MODEL 1
REMARK VINA RESULT:      -8.4      0.000      0.000
REMARK  4 active torsions:
REMARK  status: ('A' for Active; 'I' for Inactive)
REMARK    1  A    between atoms: C_9  and  C_10 
REMARK       I    between atoms: C_10  and  N_11 
REMARK    2  A    between atoms: N_11  and  C_12 
REMARK    3  A    between atoms: C_15  and  N_16 
REMARK       I    between atoms: N_16  and  C_17 
REMARK       I    between atoms: C_17  and  N_18 
REMARK    4  A    between atoms: N_18  and  C_19 
ROOT
HETATM    1  C   UNL     1      41.072 -13.941   0.751  1.00  0.00     0.035 A 
HETATM    2  C   UNL     1      41.117 -12.621   0.308  1.00  0.00     0.032 A 
HETATM    3  C   UNL     1      40.282 -12.187  -0.729  1.00  0.00     0.032 A 
HETATM    4  C   UNL     1      39.389 -13.067  -1.341  1.00  0.00     0.036 A 
HETATM    5  C   UNL     1      39.395 -14.409  -0.946  1.00  0.00     0.032 A 
HETATM    6  C   UNL     1      40.225 -14.840   0.096  1.00  0.00     0.032 A 
ENDROOT
BRANCH   1   7
HETATM    7  N   UNL     1      41.786 -14.418   1.862  1.00  0.00    -0.322 N 
HETATM    8  C   UNL     1      41.291 -14.778   3.103  1.00  0.00     0.277 C 
HETATM    9  O   UNL     1      40.156 -14.576   3.519  1.00  0.00    -0.266 OA
HETATM   10  H   UNL     1      42.768 -14.652   1.740  1.00  0.00     0.169 HD
BRANCH   8  11
HETATM   11  C   UNL     1      42.298 -15.500   3.903  1.00  0.00     0.157 A 
HETATM   12  C   UNL     1      42.828 -16.799   3.649  1.00  0.00     0.029 A 
HETATM   13  C   UNL     1      42.622 -17.808   2.687  1.00  0.00     0.023 A 
HETATM   14  C   UNL     1      43.787 -16.998   4.634  1.00  0.00     0.063 A 
HETATM   15  C   UNL     1      43.385 -18.985   2.743  1.00  0.00    -0.061 A 
HETATM   16  C   UNL     1      43.192 -20.063   1.717  1.00  0.00     0.048 C 
HETATM   17  C   UNL     1      44.346 -19.143   3.750  1.00  0.00     0.009 A 
HETATM   18  C   UNL     1      44.565 -18.155   4.719  1.00  0.00     0.032 A 
HETATM   19  N   UNL     1      43.759 -15.865   5.399  1.00  0.00    -0.277 N 
HETATM   20  H   UNL     1      44.329 -15.662   6.211  1.00  0.00     0.189 HD
HETATM   21  N   UNL     1      42.881 -14.931   4.984  1.00  0.00    -0.168 NA
ENDBRANCH   8  11
ENDBRANCH   1   7
BRANCH   4  22
HETATM   22  N   UNL     1      38.464 -12.677  -2.330  1.00  0.00    -0.309 N 
HETATM   23  C   UNL     1      37.403 -11.805  -2.164  1.00  0.00     0.321 C 
HETATM   24  N   UNL     1      36.688 -11.671  -3.346  1.00  0.00    -0.338 N 
HETATM   25  O   UNL     1      37.075 -11.245  -1.125  1.00  0.00    -0.247 OA
HETATM   26  H   UNL     1      37.206 -11.817  -4.200  1.00  0.00     0.164 HD
HETATM   27  H   UNL     1      38.417 -13.257  -3.154  1.00  0.00     0.170 HD
BRANCH  24  28
HETATM   28  C   UNL     1      35.491 -10.889  -3.426  1.00  0.00     0.086 A 
HETATM   29  C   UNL     1      34.969 -10.404  -4.750  1.00  0.00     0.027 A 
HETATM   30  C   UNL     1      34.243 -11.492  -4.014  1.00  0.00     0.027 A 
ENDBRANCH  24  28
ENDBRANCH   4  22
TORSDOF 4
ENDMDL
MODEL 2
REMARK VINA RESULT:      -8.4      6.551     10.204
REMARK  4 active torsions:
REMARK  status: ('A' for Active; 'I' for Inactive)
REMARK    1  A    between atoms: C_9  and  C_10 
REMARK       I    between atoms: C_10  and  N_11 
REMARK    2  A    between atoms: N_11  and  C_12 
REMARK    3  A    between atoms: C_15  and  N_16 
REMARK       I    between atoms: N_16  and  C_17 
REMARK       I    between atoms: C_17  and  N_18 
REMARK    4  A    between atoms: N_18  and  C_19 
ROOT
HETATM    1  C   UNL     1      43.797 -11.626   6.598  1.00  0.00     0.035 A 
HETATM    2  C   UNL     1      44.892 -11.498   7.450  1.00  0.00     0.032 A 
HETATM    3  C   UNL     1      44.872 -10.579   8.505  1.00  0.00     0.032 A 
HETATM    4  C   UNL     1      43.756  -9.772   8.726  1.00  0.00     0.036 A 
HETATM    5  C   UNL     1      42.686  -9.849   7.829  1.00  0.00     0.032 A 
HETATM    6  C   UNL     1      42.704 -10.773   6.778  1.00  0.00     0.032 A 
ENDROOT
BRANCH   1   7
HETATM    7  N   UNL     1      43.694 -12.607   5.598  1.00  0.00    -0.322 N 
HETATM    8  C   UNL     1      43.013 -13.810   5.650  1.00  0.00     0.277 C 
HETATM    9  O   UNL     1      42.521 -14.323   6.649  1.00  0.00    -0.266 OA
HETATM   10  H   UNL     1      44.050 -12.389   4.670  1.00  0.00     0.169 HD
BRANCH   8  11
HETATM   11  C   UNL     1      42.896 -14.429   4.316  1.00  0.00     0.157 A 
HETATM   12  C   UNL     1      43.192 -15.779   3.967  1.00  0.00     0.029 A 
HETATM   13  C   UNL     1      43.680 -16.917   4.639  1.00  0.00     0.023 A 
HETATM   14  C   UNL     1      42.852 -15.888   2.624  1.00  0.00     0.063 A 
HETATM   15  C   UNL     1      43.813 -18.130   3.944  1.00  0.00    -0.061 A 
HETATM   16  C   UNL     1      44.314 -19.357   4.648  1.00  0.00     0.048 C 
HETATM   17  C   UNL     1      43.453 -18.198   2.592  1.00  0.00     0.009 A 
HETATM   18  C   UNL     1      42.969 -17.079   1.903  1.00  0.00     0.032 A 
HETATM   19  N   UNL     1      42.414 -14.645   2.261  1.00  0.00    -0.277 N 
HETATM   20  H   UNL     1      42.085 -14.356   1.348  1.00  0.00     0.189 HD
HETATM   21  N   UNL     1      42.414 -13.739   3.257  1.00  0.00    -0.168 NA
ENDBRANCH   8  11
ENDBRANCH   1   7
BRANCH   4  22
HETATM   22  N   UNL     1      43.636  -8.888   9.818  1.00  0.00    -0.309 N 
HETATM   23  C   UNL     1      43.328  -9.230  11.122  1.00  0.00     0.321 C 
HETATM   24  N   UNL     1      43.272  -8.101  11.926  1.00  0.00    -0.338 N 
HETATM   25  O   UNL     1      43.083 -10.355  11.542  1.00  0.00    -0.247 OA
HETATM   26  H   UNL     1      43.843  -7.320  11.639  1.00  0.00     0.164 HD
HETATM   27  H   UNL     1      43.524  -7.911   9.593  1.00  0.00     0.170 HD
BRANCH  24  28
HETATM   28  C   UNL     1      42.890  -8.167  13.305  1.00  0.00     0.086 A 
HETATM   29  C   UNL     1      43.252  -7.066  14.263  1.00  0.00     0.027 A 
HETATM   30  C   UNL     1      41.826  -7.242  13.831  1.00  0.00     0.027 A 
ENDBRANCH  24  28
ENDBRANCH   4  22
TORSDOF 4
ENDMDL
MODEL 3
REMARK VINA RESULT:      -8.3      1.819      2.042
REMARK  4 active torsions:
REMARK  status: ('A' for Active; 'I' for Inactive)
REMARK    1  A    between atoms: C_9  and  C_10 
REMARK       I    between atoms: C_10  and  N_11 
REMARK    2  A    between atoms: N_11  and  C_12 
REMARK    3  A    between atoms: C_15  and  N_16 
REMARK       I    between atoms: N_16  and  C_17 
REMARK       I    between atoms: C_17  and  N_18 
REMARK    4  A    between atoms: N_18  and  C_19 
ROOT
HETATM    1  C   UNL     1      40.316 -14.410   0.801  1.00  0.00     0.035 A 
HETATM    2  C   UNL     1      39.908 -14.936  -0.424  1.00  0.00     0.032 A 
HETATM    3  C   UNL     1      39.208 -14.144  -1.343  1.00  0.00     0.032 A 
HETATM    4  C   UNL     1      38.903 -12.815  -1.051  1.00  0.00     0.036 A 
HETATM    5  C   UNL     1      39.248 -12.309   0.206  1.00  0.00     0.032 A 
HETATM    6  C   UNL     1      39.955 -13.098   1.122  1.00  0.00     0.032 A 
ENDROOT
BRANCH   1   7
HETATM    7  N   UNL     1      41.124 -15.102   1.718  1.00  0.00    -0.322 N 
HETATM    8  C   UNL     1      42.397 -14.773   2.148  1.00  0.00     0.277 C 
HETATM    9  O   UNL     1      43.126 -13.911   1.670  1.00  0.00    -0.266 OA
HETATM   10  H   UNL     1      40.713 -15.873   2.237  1.00  0.00     0.169 HD
BRANCH   8  11
HETATM   11  C   UNL     1      42.799 -15.571   3.321  1.00  0.00     0.157 A 
HETATM   12  C   UNL     1      43.151 -16.953   3.340  1.00  0.00     0.029 A 
HETATM   13  C   UNL     1      43.223 -17.995   2.394  1.00  0.00     0.023 A 
HETATM   14  C   UNL     1      43.521 -17.214   4.654  1.00  0.00     0.063 A 
HETATM   15  C   UNL     1      43.663 -19.266   2.795  1.00  0.00    -0.061 A 
HETATM   16  C   UNL     1      43.763 -20.383   1.798  1.00  0.00     0.048 C 
HETATM   17  C   UNL     1      44.032 -19.486   4.128  1.00  0.00     0.009 A 
HETATM   18  C   UNL     1      43.965 -18.466   5.086  1.00  0.00     0.032 A 
HETATM   19  N   UNL     1      43.353 -16.031   5.317  1.00  0.00    -0.277 N 
HETATM   20  H   UNL     1      43.527 -15.851   6.299  1.00  0.00     0.189 HD
HETATM   21  N   UNL     1      42.929 -15.011   4.546  1.00  0.00    -0.168 NA
ENDBRANCH   8  11
ENDBRANCH   1   7
BRANCH   4  22
HETATM   22  N   UNL     1      38.277 -11.940  -1.962  1.00  0.00    -0.309 N 
HETATM   23  C   UNL     1      38.909 -11.053  -2.816  1.00  0.00     0.321 C 
HETATM   24  N   UNL     1      37.979 -10.335  -3.553  1.00  0.00    -0.338 N 
HETATM   25  O   UNL     1      40.115 -10.862  -2.906  1.00  0.00    -0.247 OA
HETATM   26  H   UNL     1      37.095 -10.791  -3.723  1.00  0.00     0.164 HD
HETATM   27  H   UNL     1      37.295 -11.765  -1.813  1.00  0.00     0.170 HD
BRANCH  24  28
HETATM   28  C   UNL     1      38.365  -9.290  -4.454  1.00  0.00     0.086 A 
HETATM   29  C   UNL     1      37.461  -8.861  -5.576  1.00  0.00     0.027 A 
HETATM   30  C   UNL     1      37.668  -7.957  -4.396  1.00  0.00     0.027 A 
ENDBRANCH  24  28
ENDBRANCH   4  22
TORSDOF 4
ENDMDL
MODEL 4
REMARK VINA RESULT:      -7.7     15.571     18.495
REMARK  4 active torsions:
REMARK  status: ('A' for Active; 'I' for Inactive)
REMARK    1  A    between atoms: C_9  and  C_10 
REMARK       I    between atoms: C_10  and  N_11 
REMARK    2  A    between atoms: N_11  and  C_12 
REMARK    3  A    between atoms: C_15  and  N_16 
REMARK       I    between atoms: N_16  and  C_17 
REMARK       I    between atoms: C_17  and  N_18 
REMARK    4  A    between atoms: N_18  and  C_19 
ROOT
HETATM    1  C   UNL     1      41.778 -31.579   3.269  1.00  0.00     0.035 A 
HETATM    2  C   UNL     1      41.099 -30.956   4.315  1.00  0.00     0.032 A 
HETATM    3  C   UNL     1      40.179 -31.669   5.093  1.00  0.00     0.032 A 
HETATM    4  C   UNL     1      39.922 -33.015   4.838  1.00  0.00     0.036 A 
HETATM    5  C   UNL     1      40.548 -33.622   3.744  1.00  0.00     0.032 A 
HETATM    6  C   UNL     1      41.474 -32.911   2.970  1.00  0.00     0.032 A 
ENDROOT
BRANCH   1   7
HETATM    7  N   UNL     1      42.801 -30.967   2.526  1.00  0.00    -0.322 N 
HETATM    8  C   UNL     1      42.712 -29.852   1.712  1.00  0.00     0.277 C 
HETATM    9  O   UNL     1      41.681 -29.299   1.347  1.00  0.00    -0.266 OA
HETATM   10  H   UNL     1      43.757 -31.280   2.673  1.00  0.00     0.169 HD
BRANCH   8  11
HETATM   11  C   UNL     1      44.045 -29.343   1.337  1.00  0.00     0.157 A 
HETATM   12  C   UNL     1      44.528 -29.090   0.020  1.00  0.00     0.029 A 
HETATM   13  C   UNL     1      44.025 -29.228  -1.290  1.00  0.00     0.023 A 
HETATM   14  C   UNL     1      45.798 -28.556   0.197  1.00  0.00     0.063 A 
HETATM   15  C   UNL     1      44.811 -28.826  -2.381  1.00  0.00    -0.061 A 
HETATM   16  C   UNL     1      44.286 -28.948  -3.781  1.00  0.00     0.048 C 
HETATM   17  C   UNL     1      46.085 -28.286  -2.158  1.00  0.00     0.009 A 
HETATM   18  C   UNL     1      46.607 -28.143  -0.865  1.00  0.00     0.032 A 
HETATM   19  N   UNL     1      45.998 -28.543   1.549  1.00  0.00    -0.277 N 
HETATM   20  H   UNL     1      46.822 -28.218   2.041  1.00  0.00     0.189 HD
HETATM   21  N   UNL     1      44.959 -29.000   2.273  1.00  0.00    -0.168 NA
ENDBRANCH   8  11
ENDBRANCH   1   7
BRANCH   4  22
HETATM   22  N   UNL     1      39.073 -33.812   5.633  1.00  0.00    -0.309 N 
HETATM   23  C   UNL     1      37.704 -33.671   5.769  1.00  0.00     0.321 C 
HETATM   24  N   UNL     1      37.198 -34.616   6.651  1.00  0.00    -0.338 N 
HETATM   25  O   UNL     1      37.003 -32.817   5.241  1.00  0.00    -0.247 OA
HETATM   26  H   UNL     1      37.714 -35.480   6.723  1.00  0.00     0.164 HD
HETATM   27  H   UNL     1      39.519 -34.370   6.346  1.00  0.00     0.170 HD
BRANCH  24  28
HETATM   28  C   UNL     1      35.818 -34.638   7.034  1.00  0.00     0.086 A 
HETATM   29  C   UNL     1      35.171 -35.901   7.530  1.00  0.00     0.027 A 
HETATM   30  C   UNL     1      35.447 -34.777   8.486  1.00  0.00     0.027 A 
ENDBRANCH  24  28
ENDBRANCH   4  22
TORSDOF 4
ENDMDL
MODEL 5
REMARK VINA RESULT:      -7.7      6.253      9.140
REMARK  4 active torsions:
REMARK  status: ('A' for Active; 'I' for Inactive)
REMARK    1  A    between atoms: C_9  and  C_10 
REMARK       I    between atoms: C_10  and  N_11 
REMARK    2  A    between atoms: N_11  and  C_12 
REMARK    3  A    between atoms: C_15  and  N_16 
REMARK       I    between atoms: N_16  and  C_17 
REMARK       I    between atoms: C_17  and  N_18 
REMARK    4  A    between atoms: N_18  and  C_19 
ROOT
HETATM    1  C   UNL     1      43.511 -12.400   6.701  1.00  0.00     0.035 A 
HETATM    2  C   UNL     1      42.404 -11.655   6.298  1.00  0.00     0.032 A 
HETATM    3  C   UNL     1      42.253 -10.325   6.706  1.00  0.00     0.032 A 
HETATM    4  C   UNL     1      43.205  -9.716   7.523  1.00  0.00     0.036 A 
HETATM    5  C   UNL     1      44.278 -10.484   7.986  1.00  0.00     0.032 A 
HETATM    6  C   UNL     1      44.433 -11.813   7.573  1.00  0.00     0.032 A 
ENDROOT
BRANCH   1   7
HETATM    7  N   UNL     1      43.794 -13.695   6.236  1.00  0.00    -0.322 N 
HETATM    8  C   UNL     1      43.399 -14.902   6.783  1.00  0.00     0.277 C 
HETATM    9  O   UNL     1      42.877 -15.066   7.880  1.00  0.00    -0.266 OA
HETATM   10  H   UNL     1      44.239 -13.794   5.327  1.00  0.00     0.169 HD
BRANCH   8  11
HETATM   11  C   UNL     1      43.641 -16.025   5.858  1.00  0.00     0.157 A 
HETATM   12  C   UNL     1      42.923 -16.324   4.663  1.00  0.00     0.029 A 
HETATM   13  C   UNL     1      41.823 -15.774   3.976  1.00  0.00     0.023 A 
HETATM   14  C   UNL     1      43.574 -17.424   4.116  1.00  0.00     0.063 A 
HETATM   15  C   UNL     1      41.408 -16.344   2.762  1.00  0.00    -0.061 A 
HETATM   16  C   UNL     1      40.249 -15.761   2.007  1.00  0.00     0.048 C 
HETATM   17  C   UNL     1      42.095 -17.449   2.242  1.00  0.00     0.009 A 
HETATM   18  C   UNL     1      43.189 -18.014   2.910  1.00  0.00     0.032 A 
HETATM   19  N   UNL     1      44.582 -17.718   4.991  1.00  0.00    -0.277 N 
HETATM   20  H   UNL     1      45.261 -18.465   4.911  1.00  0.00     0.189 HD
HETATM   21  N   UNL     1      44.664 -16.890   6.050  1.00  0.00    -0.168 NA
ENDBRANCH   8  11
ENDBRANCH   1   7
BRANCH   4  22
HETATM   22  N   UNL     1      43.157  -8.359   7.900  1.00  0.00    -0.309 N 
HETATM   23  C   UNL     1      42.606  -7.848   9.061  1.00  0.00     0.321 C 
HETATM   24  N   UNL     1      42.716  -6.465   9.090  1.00  0.00    -0.338 N 
HETATM   25  O   UNL     1      42.045  -8.485   9.944  1.00  0.00    -0.247 OA
HETATM   26  H   UNL     1      43.491  -6.069   8.578  1.00  0.00     0.164 HD
HETATM   27  H   UNL     1      43.313  -7.684   7.166  1.00  0.00     0.170 HD
BRANCH  24  28
HETATM   28  C   UNL     1      42.152  -5.678  10.145  1.00  0.00     0.086 A 
HETATM   29  C   UNL     1      42.824  -4.420  10.619  1.00  0.00     0.027 A 
HETATM   30  C   UNL     1      41.547  -4.335   9.834  1.00  0.00     0.027 A 
ENDBRANCH  24  28
ENDBRANCH   4  22
TORSDOF 4
ENDMDL
MODEL 6
REMARK VINA RESULT:      -7.7      6.816      8.918
REMARK  4 active torsions:
REMARK  status: ('A' for Active; 'I' for Inactive)
REMARK    1  A    between atoms: C_9  and  C_10 
REMARK       I    between atoms: C_10  and  N_11 
REMARK    2  A    between atoms: N_11  and  C_12 
REMARK    3  A    between atoms: C_15  and  N_16 
REMARK       I    between atoms: N_16  and  C_17 
REMARK       I    between atoms: C_17  and  N_18 
REMARK    4  A    between atoms: N_18  and  C_19 
ROOT
HETATM    1  C   UNL     1      43.079 -11.461   6.362  1.00  0.00     0.035 A 
HETATM    2  C   UNL     1      42.649 -10.486   5.463  1.00  0.00     0.032 A 
HETATM    3  C   UNL     1      42.440 -10.801   4.115  1.00  0.00     0.032 A 
HETATM    4  C   UNL     1      42.658 -12.094   3.643  1.00  0.00     0.036 A 
HETATM    5  C   UNL     1      43.158 -13.055   4.528  1.00  0.00     0.032 A 
HETATM    6  C   UNL     1      43.360 -12.742   5.878  1.00  0.00     0.032 A 
ENDROOT
BRANCH   1   7
HETATM    7  N   UNL     1      43.192 -11.253   7.746  1.00  0.00    -0.322 N 
HETATM    8  C   UNL     1      44.297 -10.818   8.455  1.00  0.00     0.277 C 
HETATM    9  O   UNL     1      45.439 -10.706   8.023  1.00  0.00    -0.266 OA
HETATM   10  H   UNL     1      42.348 -11.303   8.312  1.00  0.00     0.169 HD
BRANCH   8  11
HETATM   11  C   UNL     1      43.947 -10.446   9.839  1.00  0.00     0.157 A 
HETATM   12  C   UNL     1      43.520  -9.167  10.302  1.00  0.00     0.029 A 
HETATM   13  C   UNL     1      43.313  -7.897   9.728  1.00  0.00     0.023 A 
HETATM   14  C   UNL     1      43.244  -9.345  11.652  1.00  0.00     0.063 A 
HETATM   15  C   UNL     1      42.836  -6.844  10.526  1.00  0.00    -0.061 A 
HETATM   16  C   UNL     1      42.593  -5.490   9.928  1.00  0.00     0.048 C 
HETATM   17  C   UNL     1      42.564  -7.069  11.882  1.00  0.00     0.009 A 
HETATM   18  C   UNL     1      42.766  -8.322  12.475  1.00  0.00     0.032 A 
HETATM   19  N   UNL     1      43.531 -10.657  11.909  1.00  0.00    -0.277 N 
HETATM   20  H   UNL     1      43.447 -11.138  12.796  1.00  0.00     0.189 HD
HETATM   21  N   UNL     1      43.948 -11.359  10.838  1.00  0.00    -0.168 NA
ENDBRANCH   8  11
ENDBRANCH   1   7
BRANCH   4  22
HETATM   22  N   UNL     1      42.387 -12.498   2.320  1.00  0.00    -0.309 N 
HETATM   23  C   UNL     1      41.207 -13.051   1.855  1.00  0.00     0.321 C 
HETATM   24  N   UNL     1      41.303 -13.348   0.503  1.00  0.00    -0.338 N 
HETATM   25  O   UNL     1      40.209 -13.304   2.519  1.00  0.00    -0.247 OA
HETATM   26  H   UNL     1      41.943 -12.782  -0.034  1.00  0.00     0.164 HD
HETATM   27  H   UNL     1      43.186 -12.625   1.717  1.00  0.00     0.170 HD
BRANCH  24  28
HETATM   28  C   UNL     1      40.248 -14.005  -0.208  1.00  0.00     0.086 A 
HETATM   29  C   UNL     1      39.148 -13.219  -0.865  1.00  0.00     0.027 A 
HETATM   30  C   UNL     1      40.183 -13.904  -1.709  1.00  0.00     0.027 A 
ENDBRANCH  24  28
ENDBRANCH   4  22
TORSDOF 4
ENDMDL
MODEL 7
REMARK VINA RESULT:      -7.6     13.461     16.256
REMARK  4 active torsions:
REMARK  status: ('A' for Active; 'I' for Inactive)
REMARK    1  A    between atoms: C_9  and  C_10 
REMARK       I    between atoms: C_10  and  N_11 
REMARK    2  A    between atoms: N_11  and  C_12 
REMARK    3  A    between atoms: C_15  and  N_16 
REMARK       I    between atoms: N_16  and  C_17 
REMARK       I    between atoms: C_17  and  N_18 
REMARK    4  A    between atoms: N_18  and  C_19 
ROOT
HETATM    1  C   UNL     1      42.311  -7.956  14.171  1.00  0.00     0.035 A 
HETATM    2  C   UNL     1      43.365  -7.693  13.298  1.00  0.00     0.032 A 
HETATM    3  C   UNL     1      43.623  -8.541  12.214  1.00  0.00     0.032 A 
HETATM    4  C   UNL     1      42.832  -9.666  11.986  1.00  0.00     0.036 A 
HETATM    5  C   UNL     1      41.820  -9.971  12.902  1.00  0.00     0.032 A 
HETATM    6  C   UNL     1      41.558  -9.119  13.982  1.00  0.00     0.032 A 
ENDROOT
BRANCH   1   7
HETATM    7  N   UNL     1      41.916  -7.090  15.203  1.00  0.00    -0.322 N 
HETATM    8  C   UNL     1      40.657  -6.571  15.445  1.00  0.00     0.277 C 
HETATM    9  O   UNL     1      39.689  -6.631  14.694  1.00  0.00    -0.266 OA
HETATM   10  H   UNL     1      42.579  -6.894  15.949  1.00  0.00     0.169 HD
BRANCH   8  11
HETATM   11  C   UNL     1      40.572  -5.942  16.776  1.00  0.00     0.157 A 
HETATM   12  C   UNL     1      40.441  -6.603  18.032  1.00  0.00     0.029 A 
HETATM   13  C   UNL     1      40.322  -7.938  18.469  1.00  0.00     0.023 A 
HETATM   14  C   UNL     1      40.479  -5.589  18.981  1.00  0.00     0.063 A 
HETATM   15  C   UNL     1      40.245  -8.215  19.843  1.00  0.00    -0.061 A 
HETATM   16  C   UNL     1      40.136  -9.631  20.327  1.00  0.00     0.048 C 
HETATM   17  C   UNL     1      40.293  -7.162  20.767  1.00  0.00     0.009 A 
HETATM   18  C   UNL     1      40.408  -5.828  20.356  1.00  0.00     0.032 A 
HETATM   19  N   UNL     1      40.603  -4.431  18.266  1.00  0.00    -0.277 N 
HETATM   20  H   UNL     1      40.660  -3.489  18.634  1.00  0.00     0.189 HD
HETATM   21  N   UNL     1      40.673  -4.601  16.932  1.00  0.00    -0.168 NA
ENDBRANCH   8  11
ENDBRANCH   1   7
BRANCH   4  22
HETATM   22  N   UNL     1      42.983 -10.513  10.869  1.00  0.00    -0.309 N 
HETATM   23  C   UNL     1      43.566 -10.181   9.659  1.00  0.00     0.321 C 
HETATM   24  N   UNL     1      43.522 -11.254   8.781  1.00  0.00    -0.338 N 
HETATM   25  O   UNL     1      44.027  -9.090   9.347  1.00  0.00    -0.247 OA
HETATM   26  H   UNL     1      43.510 -12.173   9.200  1.00  0.00     0.164 HD
HETATM   27  H   UNL     1      42.410 -11.343  10.854  1.00  0.00     0.170 HD
BRANCH  24  28
HETATM   28  C   UNL     1      43.985 -11.152   7.430  1.00  0.00     0.086 A 
HETATM   29  C   UNL     1      45.432 -11.369   7.087  1.00  0.00     0.027 A 
HETATM   30  C   UNL     1      44.409 -12.392   6.689  1.00  0.00     0.027 A 
ENDBRANCH  24  28
ENDBRANCH   4  22
TORSDOF 4
ENDMDL
MODEL 8
REMARK VINA RESULT:      -7.5      5.844      7.902
REMARK  4 active torsions:
REMARK  status: ('A' for Active; 'I' for Inactive)
REMARK    1  A    between atoms: C_9  and  C_10 
REMARK       I    between atoms: C_10  and  N_11 
REMARK    2  A    between atoms: N_11  and  C_12 
REMARK    3  A    between atoms: C_15  and  N_16 
REMARK       I    between atoms: N_16  and  C_17 
REMARK       I    between atoms: C_17  and  N_18 
REMARK    4  A    between atoms: N_18  and  C_19 
ROOT
HETATM    1  C   UNL     1      42.163 -12.638   6.022  1.00  0.00     0.035 A 
HETATM    2  C   UNL     1      42.565 -13.765   5.308  1.00  0.00     0.032 A 
HETATM    3  C   UNL     1      41.851 -14.187   4.180  1.00  0.00     0.032 A 
HETATM    4  C   UNL     1      40.724 -13.490   3.747  1.00  0.00     0.036 A 
HETATM    5  C   UNL     1      40.278 -12.402   4.504  1.00  0.00     0.032 A 
HETATM    6  C   UNL     1      40.996 -11.975   5.629  1.00  0.00     0.032 A 
ENDROOT
BRANCH   1   7
HETATM    7  N   UNL     1      42.894 -12.084   7.085  1.00  0.00    -0.322 N 
HETATM    8  C   UNL     1      44.006 -11.264   7.019  1.00  0.00     0.277 C 
HETATM    9  O   UNL     1      44.667 -11.015   6.017  1.00  0.00    -0.266 OA
HETATM   10  H   UNL     1      42.521 -12.177   8.027  1.00  0.00     0.169 HD
BRANCH   8  11
HETATM   11  C   UNL     1      44.313 -10.654   8.327  1.00  0.00     0.157 A 
HETATM   12  C   UNL     1      43.466  -9.808   9.100  1.00  0.00     0.029 A 
HETATM   13  C   UNL     1      42.180  -9.252   8.953  1.00  0.00     0.023 A 
HETATM   14  C   UNL     1      44.173  -9.561  10.270  1.00  0.00     0.063 A 
HETATM   15  C   UNL     1      41.642  -8.464   9.984  1.00  0.00    -0.061 A 
HETATM   16  C   UNL     1      40.268  -7.877   9.852  1.00  0.00     0.048 C 
HETATM   17  C   UNL     1      42.387  -8.244  11.150  1.00  0.00     0.009 A 
HETATM   18  C   UNL     1      43.669  -8.784  11.316  1.00  0.00     0.032 A 
HETATM   19  N   UNL     1      45.358 -10.226  10.123  1.00  0.00    -0.277 N 
HETATM   20  H   UNL     1      46.123 -10.266  10.786  1.00  0.00     0.189 HD
HETATM   21  N   UNL     1      45.478 -10.907   8.968  1.00  0.00    -0.168 NA
ENDBRANCH   8  11
ENDBRANCH   1   7
BRANCH   4  22
HETATM   22  N   UNL     1      40.011 -13.810   2.574  1.00  0.00    -0.309 N 
HETATM   23  C   UNL     1      40.406 -13.546   1.275  1.00  0.00     0.321 C 
HETATM   24  N   UNL     1      39.446 -13.980   0.372  1.00  0.00    -0.338 N 
HETATM   25  O   UNL     1      41.428 -12.968   0.927  1.00  0.00    -0.247 OA
HETATM   26  H   UNL     1      38.871 -14.755   0.669  1.00  0.00     0.164 HD
HETATM   27  H   UNL     1      39.032 -14.026   2.689  1.00  0.00     0.170 HD
BRANCH  24  28
HETATM   28  C   UNL     1      39.569 -13.754  -1.037  1.00  0.00     0.086 A 
HETATM   29  C   UNL     1      39.067 -14.764  -2.031  1.00  0.00     0.027 A 
HETATM   30  C   UNL     1      38.341 -13.462  -1.857  1.00  0.00     0.027 A 
ENDBRANCH  24  28
ENDBRANCH   4  22
TORSDOF 4
ENDMDL
MODEL 9
REMARK VINA RESULT:      -7.5      1.683      2.696
REMARK  4 active torsions:
REMARK  status: ('A' for Active; 'I' for Inactive)
REMARK    1  A    between atoms: C_9  and  C_10 
REMARK       I    between atoms: C_10  and  N_11 
REMARK    2  A    between atoms: N_11  and  C_12 
REMARK    3  A    between atoms: C_15  and  N_16 
REMARK       I    between atoms: N_16  and  C_17 
REMARK       I    between atoms: C_17  and  N_18 
REMARK    4  A    between atoms: N_18  and  C_19 
ROOT
HETATM    1  C   UNL     1      40.524 -14.140   0.038  1.00  0.00     0.035 A 
HETATM    2  C   UNL     1      39.613 -14.743  -0.827  1.00  0.00     0.032 A 
HETATM    3  C   UNL     1      38.958 -13.992  -1.810  1.00  0.00     0.032 A 
HETATM    4  C   UNL     1      39.203 -12.626  -1.945  1.00  0.00     0.036 A 
HETATM    5  C   UNL     1      40.062 -12.006  -1.031  1.00  0.00     0.032 A 
HETATM    6  C   UNL     1      40.723 -12.759  -0.052  1.00  0.00     0.032 A 
ENDROOT
BRANCH   1   7
HETATM    7  N   UNL     1      41.308 -14.847   0.965  1.00  0.00    -0.322 N 
HETATM    8  C   UNL     1      40.880 -15.613   2.033  1.00  0.00     0.277 C 
HETATM    9  O   UNL     1      39.739 -15.671   2.476  1.00  0.00    -0.266 OA
HETATM   10  H   UNL     1      42.307 -14.924   0.791  1.00  0.00     0.169 HD
BRANCH   8  11
HETATM   11  C   UNL     1      41.976 -16.427   2.594  1.00  0.00     0.157 A 
HETATM   12  C   UNL     1      42.665 -16.209   3.823  1.00  0.00     0.029 A 
HETATM   13  C   UNL     1      42.623 -15.249   4.854  1.00  0.00     0.023 A 
HETATM   14  C   UNL     1      43.547 -17.277   3.937  1.00  0.00     0.063 A 
HETATM   15  C   UNL     1      43.465 -15.390   5.969  1.00  0.00    -0.061 A 
HETATM   16  C   UNL     1      43.421 -14.388   7.085  1.00  0.00     0.048 C 
HETATM   17  C   UNL     1      44.335 -16.486   6.047  1.00  0.00     0.009 A 
HETATM   18  C   UNL     1      44.397 -17.449   5.033  1.00  0.00     0.032 A 
HETATM   19  N   UNL     1      43.356 -18.024   2.809  1.00  0.00    -0.277 N 
HETATM   20  H   UNL     1      43.834 -18.881   2.556  1.00  0.00     0.189 HD
HETATM   21  N   UNL     1      42.408 -17.551   1.978  1.00  0.00    -0.168 NA
ENDBRANCH   8  11
ENDBRANCH   1   7
BRANCH   4  22
HETATM   22  N   UNL     1      38.643 -11.829  -2.964  1.00  0.00    -0.309 N 
HETATM   23  C   UNL     1      37.598 -10.934  -2.827  1.00  0.00     0.321 C 
HETATM   24  N   UNL     1      37.295 -10.342  -4.044  1.00  0.00    -0.338 N 
HETATM   25  O   UNL     1      36.967 -10.701  -1.803  1.00  0.00    -0.247 OA
HETATM   26  H   UNL     1      38.054 -10.268  -4.706  1.00  0.00     0.164 HD
HETATM   27  H   UNL     1      38.850 -12.105  -3.913  1.00  0.00     0.170 HD
BRANCH  24  28
HETATM   28  C   UNL     1      36.197  -9.435  -4.198  1.00  0.00     0.086 A 
HETATM   29  C   UNL     1      35.866  -8.837  -5.536  1.00  0.00     0.027 A 
HETATM   30  C   UNL     1      34.962  -9.875  -4.938  1.00  0.00     0.027 A 
ENDBRANCH  24  28
ENDBRANCH   4  22
TORSDOF 4
ENDMDL
MODEL 10
REMARK VINA RESULT:      -7.2     16.072     17.619
REMARK  4 active torsions:
REMARK  status: ('A' for Active; 'I' for Inactive)
REMARK    1  A    between atoms: C_9  and  C_10 
REMARK       I    between atoms: C_10  and  N_11 
REMARK    2  A    between atoms: N_11  and  C_12 
REMARK    3  A    between atoms: C_15  and  N_16 
REMARK       I    between atoms: N_16  and  C_17 
REMARK       I    between atoms: C_17  and  N_18 
REMARK    4  A    between atoms: N_18  and  C_19 
ROOT
HETATM    1  C   UNL     1      45.267 -30.110  -2.376  1.00  0.00     0.035 A 
HETATM    2  C   UNL     1      44.073 -29.607  -2.892  1.00  0.00     0.032 A 
HETATM    3  C   UNL     1      43.772 -29.741  -4.252  1.00  0.00     0.032 A 
HETATM    4  C   UNL     1      44.658 -30.378  -5.120  1.00  0.00     0.036 A 
HETATM    5  C   UNL     1      45.887 -30.818  -4.618  1.00  0.00     0.032 A 
HETATM    6  C   UNL     1      46.186 -30.691  -3.255  1.00  0.00     0.032 A 
ENDROOT
BRANCH   1   7
HETATM    7  N   UNL     1      45.583 -30.124  -1.008  1.00  0.00    -0.322 N 
HETATM    8  C   UNL     1      45.884 -29.048  -0.192  1.00  0.00     0.277 C 
HETATM    9  O   UNL     1      46.106 -27.899  -0.557  1.00  0.00    -0.266 OA
HETATM   10  H   UNL     1      45.471 -30.995  -0.496  1.00  0.00     0.169 HD
BRANCH   8  11
HETATM   11  C   UNL     1      45.874 -29.425   1.234  1.00  0.00     0.157 A 
HETATM   12  C   UNL     1      47.005 -29.665   2.067  1.00  0.00     0.029 A 
HETATM   13  C   UNL     1      48.405 -29.674   1.900  1.00  0.00     0.023 A 
HETATM   14  C   UNL     1      46.480 -29.912   3.329  1.00  0.00     0.063 A 
HETATM   15  C   UNL     1      49.234 -29.930   3.004  1.00  0.00    -0.061 A 
HETATM   16  C   UNL     1      50.726 -29.927   2.849  1.00  0.00     0.048 C 
HETATM   17  C   UNL     1      48.662 -30.169   4.261  1.00  0.00     0.009 A 
HETATM   18  C   UNL     1      47.274 -30.168   4.449  1.00  0.00     0.032 A 
HETATM   19  N   UNL     1      45.124 -29.831   3.177  1.00  0.00    -0.277 N 
HETATM   20  H   UNL     1      44.420 -29.958   3.894  1.00  0.00     0.189 HD
HETATM   21  N   UNL     1      44.717 -29.528   1.929  1.00  0.00    -0.168 NA
ENDBRANCH   8  11
ENDBRANCH   1   7
BRANCH   4  22
HETATM   22  N   UNL     1      44.380 -30.620  -6.481  1.00  0.00    -0.309 N 
HETATM   23  C   UNL     1      43.917 -31.804  -7.026  1.00  0.00     0.321 C 
HETATM   24  N   UNL     1      43.777 -31.689  -8.402  1.00  0.00    -0.338 N 
HETATM   25  O   UNL     1      43.694 -32.847  -6.423  1.00  0.00    -0.247 OA
HETATM   26  H   UNL     1      43.591 -30.762  -8.756  1.00  0.00     0.164 HD
HETATM   27  H   UNL     1      44.776 -29.970  -7.142  1.00  0.00     0.170 HD
BRANCH  24  28
HETATM   28  C   UNL     1      43.391 -32.797  -9.223  1.00  0.00     0.086 A 
HETATM   29  C   UNL     1      43.466 -32.715 -10.722  1.00  0.00     0.027 A 
HETATM   30  C   UNL     1      44.441 -33.575  -9.971  1.00  0.00     0.027 A 
ENDBRANCH  24  28
ENDBRANCH   4  22
TORSDOF 4
ENDMDL
