MODEL 1
REMARK VINA RESULT:      -9.0      0.000      0.000
REMARK  6 active torsions:
REMARK  status: ('A' for Active; 'I' for Inactive)
REMARK    1  A    between atoms: N_2  and  C_4 
REMARK    2  A    between atoms: C_4  and  C_5 
REMARK       I    between atoms: C_5  and  N_7 
REMARK    3  A    between atoms: N_7  and  C_8 
REMARK    4  A    between atoms: C_8  and  C_9 
REMARK    5  A    between atoms: C_8  and  C_26 
REMARK    6  A    between atoms: C_14  and  C_20 
ROOT
HETATM    1  C   UNL     1      42.030 -13.269   5.544  1.00  0.00     0.135 A 
HETATM    2  N   UNL     1      42.340 -13.658   4.345  1.00  0.00    -0.232 NA
HETATM    3  C   UNL     1      42.584 -15.026   4.145  1.00  0.00     0.074 A 
HETATM    4  C   UNL     1      42.954 -15.463   2.874  1.00  0.00     0.033 A 
HETATM    5  C   UNL     1      43.259 -16.810   2.644  1.00  0.00     0.014 A 
HETATM    6  C   UNL     1      43.200 -17.746   3.687  1.00  0.00    -0.022 A 
HETATM    7  C   UNL     1      42.804 -17.317   4.958  1.00  0.00     0.031 A 
HETATM    8  C   UNL     1      42.502 -15.966   5.174  1.00  0.00     0.061 A 
HETATM    9  C   UNL     1      42.100 -15.482   6.505  1.00  0.00     0.259 A 
HETATM   10  O   UNL     1      41.932 -16.240   7.452  1.00  0.00    -0.267 OA
HETATM   11  N   UNL     1      41.932 -14.128   6.610  1.00  0.00    -0.309 N 
HETATM   12  H   UNL     1      41.572 -13.786   7.489  1.00  0.00     0.170 HD
ENDROOT
BRANCH   1  13
HETATM   13  C   UNL     1      41.854 -11.771   5.854  1.00  0.00     0.187 C 
BRANCH  13  14
HETATM   14  N   UNL     1      40.705 -11.482   6.707  1.00  0.00    -0.344 N 
HETATM   15  C   UNL     1      39.513 -10.940   6.305  1.00  0.00     0.247 C 
HETATM   16  O   UNL     1      38.798 -10.412   7.160  1.00  0.00    -0.272 OA
HETATM   17  H   UNL     1      40.897 -11.225   7.668  1.00  0.00     0.163 HD
BRANCH  15  18
HETATM   18  C   UNL     1      39.079 -11.035   4.840  1.00  0.00     0.373 C 
BRANCH  18  19
HETATM   19  N   UNL     1      38.841  -9.692   4.273  1.00  0.00     0.088 N 
HETATM   20  C   UNL     1      40.065  -8.883   4.292  1.00  0.00     0.310 C 
HETATM   21  C   UNL     1      38.354  -9.815   2.897  1.00  0.00     0.310 C 
ENDBRANCH  18  19
ENDBRANCH  15  18
ENDBRANCH  13  14
BRANCH  13  22
HETATM   22  C   UNL     1      43.148 -11.236   6.463  1.00  0.00    -0.028 A 
HETATM   23  C   UNL     1      43.083 -10.232   7.446  1.00  0.00     0.011 A 
HETATM   24  C   UNL     1      44.249  -9.678   7.980  1.00  0.00     0.024 A 
HETATM   25  C   UNL     1      45.493 -10.118   7.536  1.00  0.00     0.034 A 
HETATM   26 CL   UNL     1      46.928  -9.431   8.187  1.00  0.00    -0.084 Cl
HETATM   27  C   UNL     1      45.580 -11.105   6.557  1.00  0.00     0.024 A 
HETATM   28  C   UNL     1      44.415 -11.658   6.018  1.00  0.00     0.011 A 
ENDBRANCH  13  22
ENDBRANCH   1  13
BRANCH   6  29
HETATM   29  C   UNL     1      43.565 -19.130   3.442  1.00  0.00     0.010 A 
HETATM   30  C   UNL     1      43.565 -19.895   2.253  1.00  0.00     0.152 A 
HETATM   31  N   UNL     1      44.014 -21.140   2.437  1.00  0.00    -0.187 NA
HETATM   32  N   UNL     1      44.308 -21.177   3.747  1.00  0.00    -0.289 N 
HETATM   33  H   UNL     1      44.683 -22.037   4.132  1.00  0.00     0.188 HD
HETATM   34  C   UNL     1      44.059 -19.999   4.392  1.00  0.00     0.123 A 
ENDBRANCH   6  29
TORSDOF 6
ENDMDL
MODEL 2
REMARK VINA RESULT:      -8.8      1.320      1.549
REMARK  6 active torsions:
REMARK  status: ('A' for Active; 'I' for Inactive)
REMARK    1  A    between atoms: N_2  and  C_4 
REMARK    2  A    between atoms: C_4  and  C_5 
REMARK       I    between atoms: C_5  and  N_7 
REMARK    3  A    between atoms: N_7  and  C_8 
REMARK    4  A    between atoms: C_8  and  C_9 
REMARK    5  A    between atoms: C_8  and  C_26 
REMARK    6  A    between atoms: C_14  and  C_20 
ROOT
HETATM    1  C   UNL     1      42.372 -13.031   4.816  1.00  0.00     0.135 A 
HETATM    2  N   UNL     1      42.673 -13.571   3.676  1.00  0.00    -0.232 NA
HETATM    3  C   UNL     1      42.852 -14.964   3.639  1.00  0.00     0.074 A 
HETATM    4  C   UNL     1      43.211 -15.563   2.433  1.00  0.00     0.033 A 
HETATM    5  C   UNL     1      43.452 -16.940   2.366  1.00  0.00     0.014 A 
HETATM    6  C   UNL     1      43.339 -17.745   3.509  1.00  0.00    -0.022 A 
HETATM    7  C   UNL     1      42.953 -17.151   4.716  1.00  0.00     0.031 A 
HETATM    8  C   UNL     1      42.716 -15.772   4.769  1.00  0.00     0.061 A 
HETATM    9  C   UNL     1      42.326 -15.117   6.029  1.00  0.00     0.259 A 
HETATM   10  O   UNL     1      42.114 -15.750   7.055  1.00  0.00    -0.267 OA
HETATM   11  N   UNL     1      42.224 -13.754   5.973  1.00  0.00    -0.309 N 
HETATM   12  H   UNL     1      41.873 -13.294   6.802  1.00  0.00     0.170 HD
ENDROOT
BRANCH   1  13
HETATM   13  C   UNL     1      42.267 -11.500   4.948  1.00  0.00     0.187 C 
BRANCH  13  14
HETATM   14  N   UNL     1      40.899 -11.022   5.132  1.00  0.00    -0.344 N 
HETATM   15  C   UNL     1      40.061 -10.565   4.151  1.00  0.00     0.247 C 
HETATM   16  O   UNL     1      39.106  -9.859   4.485  1.00  0.00    -0.272 OA
HETATM   17  H   UNL     1      40.684 -10.568   6.012  1.00  0.00     0.163 HD
BRANCH  15  18
HETATM   18  C   UNL     1      40.293 -10.965   2.691  1.00  0.00     0.373 C 
BRANCH  18  19
HETATM   19  N   UNL     1      39.152 -11.748   2.173  1.00  0.00     0.088 N 
HETATM   20  C   UNL     1      39.218 -11.881   0.713  1.00  0.00     0.310 C 
HETATM   21  C   UNL     1      39.143 -13.078   2.788  1.00  0.00     0.310 C 
ENDBRANCH  18  19
ENDBRANCH  15  18
ENDBRANCH  13  14
BRANCH  13  22
HETATM   22  C   UNL     1      43.176 -11.036   6.083  1.00  0.00    -0.028 A 
HETATM   23  C   UNL     1      42.643 -10.239   7.110  1.00  0.00     0.011 A 
HETATM   24  C   UNL     1      43.460  -9.747   8.132  1.00  0.00     0.024 A 
HETATM   25  C   UNL     1      44.820 -10.044   8.134  1.00  0.00     0.034 A 
HETATM   26 CL   UNL     1      45.828  -9.433   9.386  1.00  0.00    -0.084 Cl
HETATM   27  C   UNL     1      45.371 -10.824   7.120  1.00  0.00     0.024 A 
HETATM   28  C   UNL     1      44.556 -11.313   6.096  1.00  0.00     0.011 A 
ENDBRANCH  13  22
ENDBRANCH   1  13
BRANCH   6  29
HETATM   29  C   UNL     1      43.639 -19.163   3.432  1.00  0.00     0.010 A 
HETATM   30  C   UNL     1      43.644 -20.054   2.334  1.00  0.00     0.152 A 
HETATM   31  N   UNL     1      44.017 -21.291   2.672  1.00  0.00    -0.187 NA
HETATM   32  N   UNL     1      44.258 -21.197   3.989  1.00  0.00    -0.289 N 
HETATM   33  H   UNL     1      44.572 -22.027   4.482  1.00  0.00     0.188 HD
HETATM   34  C   UNL     1      44.048 -19.945   4.492  1.00  0.00     0.123 A 
ENDBRANCH   6  29
TORSDOF 6
ENDMDL
MODEL 3
REMARK VINA RESULT:      -8.6      1.287      1.778
REMARK  6 active torsions:
REMARK  status: ('A' for Active; 'I' for Inactive)
REMARK    1  A    between atoms: N_2  and  C_4 
REMARK    2  A    between atoms: C_4  and  C_5 
REMARK       I    between atoms: C_5  and  N_7 
REMARK    3  A    between atoms: N_7  and  C_8 
REMARK    4  A    between atoms: C_8  and  C_9 
REMARK    5  A    between atoms: C_8  and  C_26 
REMARK    6  A    between atoms: C_14  and  C_20 
ROOT
HETATM    1  C   UNL     1      42.280 -13.136   5.126  1.00  0.00     0.135 A 
HETATM    2  N   UNL     1      42.403 -14.170   5.900  1.00  0.00    -0.232 NA
HETATM    3  C   UNL     1      42.766 -15.390   5.308  1.00  0.00     0.074 A 
HETATM    4  C   UNL     1      42.869 -16.523   6.113  1.00  0.00     0.033 A 
HETATM    5  C   UNL     1      43.175 -17.770   5.554  1.00  0.00     0.014 A 
HETATM    6  C   UNL     1      43.382 -17.905   4.174  1.00  0.00    -0.022 A 
HETATM    7  C   UNL     1      43.305 -16.765   3.365  1.00  0.00     0.031 A 
HETATM    8  C   UNL     1      42.998 -15.525   3.938  1.00  0.00     0.061 A 
HETATM    9  C   UNL     1      42.893 -14.312   3.109  1.00  0.00     0.259 A 
HETATM   10  O   UNL     1      43.146 -14.316   1.911  1.00  0.00    -0.267 OA
HETATM   11  N   UNL     1      42.486 -13.185   3.770  1.00  0.00    -0.309 N 
HETATM   12  H   UNL     1      42.493 -12.325   3.239  1.00  0.00     0.170 HD
ENDROOT
BRANCH   1  13
HETATM   13  C   UNL     1      41.782 -11.794   5.694  1.00  0.00     0.187 C 
BRANCH  13  14
HETATM   14  N   UNL     1      40.566 -11.914   6.493  1.00  0.00    -0.344 N 
HETATM   15  C   UNL     1      39.399 -11.225   6.302  1.00  0.00     0.247 C 
HETATM   16  O   UNL     1      38.610 -11.143   7.246  1.00  0.00    -0.272 OA
HETATM   17  H   UNL     1      40.680 -12.139   7.475  1.00  0.00     0.163 HD
BRANCH  15  18
HETATM   18  C   UNL     1      39.079 -10.617   4.933  1.00  0.00     0.373 C 
BRANCH  18  19
HETATM   19  N   UNL     1      39.056  -9.142   5.004  1.00  0.00     0.088 N 
HETATM   20  C   UNL     1      40.370  -8.573   4.687  1.00  0.00     0.310 C 
HETATM   21  C   UNL     1      38.054  -8.617   4.072  1.00  0.00     0.310 C 
ENDBRANCH  18  19
ENDBRANCH  15  18
ENDBRANCH  13  14
BRANCH  13  22
HETATM   22  C   UNL     1      42.911 -11.144   6.491  1.00  0.00    -0.028 A 
HETATM   23  C   UNL     1      42.615 -10.076   7.356  1.00  0.00     0.011 A 
HETATM   24  C   UNL     1      43.632  -9.418   8.054  1.00  0.00     0.024 A 
HETATM   25  C   UNL     1      44.955  -9.820   7.893  1.00  0.00     0.034 A 
HETATM   26 CL   UNL     1      46.207  -9.008   8.745  1.00  0.00    -0.084 Cl
HETATM   27  C   UNL     1      45.271 -10.870   7.034  1.00  0.00     0.024 A 
HETATM   28  C   UNL     1      44.256 -11.526   6.331  1.00  0.00     0.011 A 
ENDBRANCH  13  22
ENDBRANCH   1  13
BRANCH   6  29
HETATM   29  C   UNL     1      43.651 -19.213   3.604  1.00  0.00     0.010 A 
HETATM   30  C   UNL     1      43.573 -19.680   2.271  1.00  0.00     0.152 A 
HETATM   31  N   UNL     1      43.947 -20.956   2.146  1.00  0.00    -0.187 NA
HETATM   32  N   UNL     1      44.270 -21.313   3.400  1.00  0.00    -0.289 N 
HETATM   33  H   UNL     1      44.599 -22.258   3.562  1.00  0.00     0.188 HD
HETATM   34  C   UNL     1      44.113 -20.305   4.308  1.00  0.00     0.123 A 
ENDBRANCH   6  29
TORSDOF 6
ENDMDL
MODEL 4
REMARK VINA RESULT:      -8.3      2.587      4.237
REMARK  6 active torsions:
REMARK  status: ('A' for Active; 'I' for Inactive)
REMARK    1  A    between atoms: N_2  and  C_4 
REMARK    2  A    between atoms: C_4  and  C_5 
REMARK       I    between atoms: C_5  and  N_7 
REMARK    3  A    between atoms: N_7  and  C_8 
REMARK    4  A    between atoms: C_8  and  C_9 
REMARK    5  A    between atoms: C_8  and  C_26 
REMARK    6  A    between atoms: C_14  and  C_20 
ROOT
HETATM    1  C   UNL     1      42.683 -13.217   5.962  1.00  0.00     0.135 A 
HETATM    2  N   UNL     1      42.768 -13.587   4.721  1.00  0.00    -0.232 NA
HETATM    3  C   UNL     1      42.924 -14.958   4.457  1.00  0.00     0.074 A 
HETATM    4  C   UNL     1      43.054 -15.376   3.133  1.00  0.00     0.033 A 
HETATM    5  C   UNL     1      43.266 -16.726   2.830  1.00  0.00     0.014 A 
HETATM    6  C   UNL     1      43.356 -17.684   3.850  1.00  0.00    -0.022 A 
HETATM    7  C   UNL     1      43.201 -17.272   5.178  1.00  0.00     0.031 A 
HETATM    8  C   UNL     1      42.990 -15.919   5.467  1.00  0.00     0.061 A 
HETATM    9  C   UNL     1      42.841 -15.454   6.856  1.00  0.00     0.259 A 
HETATM   10  O   UNL     1      42.813 -16.228   7.804  1.00  0.00    -0.267 OA
HETATM   11  N   UNL     1      42.742 -14.098   7.013  1.00  0.00    -0.309 N 
HETATM   12  H   UNL     1      42.552 -13.765   7.948  1.00  0.00     0.170 HD
ENDROOT
BRANCH   1  13
HETATM   13  C   UNL     1      42.617 -11.722   6.324  1.00  0.00     0.187 C 
BRANCH  13  14
HETATM   14  N   UNL     1      43.923 -11.067   6.341  1.00  0.00    -0.344 N 
HETATM   15  C   UNL     1      44.562 -10.563   7.442  1.00  0.00     0.247 C 
HETATM   16  O   UNL     1      45.450  -9.726   7.265  1.00  0.00    -0.272 OA
HETATM   17  H   UNL     1      44.186 -10.542   5.515  1.00  0.00     0.163 HD
BRANCH  15  18
HETATM   18  C   UNL     1      44.203 -11.070   8.841  1.00  0.00     0.373 C 
BRANCH  18  19
HETATM   19  N   UNL     1      43.822  -9.949   9.725  1.00  0.00     0.088 N 
HETATM   20  C   UNL     1      42.544  -9.359   9.314  1.00  0.00     0.310 C 
HETATM   21  C   UNL     1      43.724 -10.421  11.109  1.00  0.00     0.310 C 
ENDBRANCH  18  19
ENDBRANCH  15  18
ENDBRANCH  13  14
BRANCH  13  22
HETATM   22  C   UNL     1      41.655 -11.022   5.368  1.00  0.00    -0.028 A 
HETATM   23  C   UNL     1      42.158 -10.078   4.455  1.00  0.00     0.011 A 
HETATM   24  C   UNL     1      41.298  -9.374   3.607  1.00  0.00     0.024 A 
HETATM   25  C   UNL     1      39.926  -9.606   3.665  1.00  0.00     0.034 A 
HETATM   26 CL   UNL     1      38.867  -8.736   2.627  1.00  0.00    -0.084 Cl
HETATM   27  C   UNL     1      39.406 -10.530   4.568  1.00  0.00     0.024 A 
HETATM   28  C   UNL     1      40.265 -11.231   5.420  1.00  0.00     0.011 A 
ENDBRANCH  13  22
ENDBRANCH   1  13
BRANCH   6  29
HETATM   29  C   UNL     1      43.624 -19.072   3.521  1.00  0.00     0.010 A 
HETATM   30  C   UNL     1      43.555 -19.767   2.291  1.00  0.00     0.152 A 
HETATM   31  N   UNL     1      43.922 -21.047   2.396  1.00  0.00    -0.187 NA
HETATM   32  N   UNL     1      44.234 -21.178   3.696  1.00  0.00    -0.289 N 
HETATM   33  H   UNL     1      44.557 -22.081   4.025  1.00  0.00     0.188 HD
HETATM   34  C   UNL     1      44.074 -20.025   4.411  1.00  0.00     0.123 A 
ENDBRANCH   6  29
TORSDOF 6
ENDMDL
MODEL 5
REMARK VINA RESULT:      -8.2      3.231      4.359
REMARK  6 active torsions:
REMARK  status: ('A' for Active; 'I' for Inactive)
REMARK    1  A    between atoms: N_2  and  C_4 
REMARK    2  A    between atoms: C_4  and  C_5 
REMARK       I    between atoms: C_5  and  N_7 
REMARK    3  A    between atoms: N_7  and  C_8 
REMARK    4  A    between atoms: C_8  and  C_9 
REMARK    5  A    between atoms: C_8  and  C_26 
REMARK    6  A    between atoms: C_14  and  C_20 
ROOT
HETATM    1  C   UNL     1      40.407 -13.424   2.351  1.00  0.00     0.135 A 
HETATM    2  N   UNL     1      41.492 -13.694   3.010  1.00  0.00    -0.232 NA
HETATM    3  C   UNL     1      41.969 -15.014   2.970  1.00  0.00     0.074 A 
HETATM    4  C   UNL     1      43.113 -15.336   3.700  1.00  0.00     0.033 A 
HETATM    5  C   UNL     1      43.590 -16.652   3.731  1.00  0.00     0.014 A 
HETATM    6  C   UNL     1      42.928 -17.672   3.033  1.00  0.00    -0.022 A 
HETATM    7  C   UNL     1      41.795 -17.347   2.278  1.00  0.00     0.031 A 
HETATM    8  C   UNL     1      41.328 -16.027   2.256  1.00  0.00     0.061 A 
HETATM    9  C   UNL     1      40.128 -15.660   1.486  1.00  0.00     0.259 A 
HETATM   10  O   UNL     1      39.539 -16.463   0.773  1.00  0.00    -0.267 OA
HETATM   11  N   UNL     1      39.715 -14.363   1.628  1.00  0.00    -0.309 N 
HETATM   12  H   UNL     1      38.947 -14.068   1.041  1.00  0.00     0.170 HD
ENDROOT
BRANCH   1  13
HETATM   13  C   UNL     1      39.772 -12.024   2.438  1.00  0.00     0.187 C 
BRANCH  13  14
HETATM   14  N   UNL     1      38.340 -12.013   2.150  1.00  0.00    -0.344 N 
HETATM   15  C   UNL     1      37.738 -11.452   1.056  1.00  0.00     0.247 C 
HETATM   16  O   UNL     1      36.535 -11.188   1.127  1.00  0.00    -0.272 OA
HETATM   17  H   UNL     1      37.711 -11.989   2.944  1.00  0.00     0.163 HD
BRANCH  15  18
HETATM   18  C   UNL     1      38.540 -11.208  -0.225  1.00  0.00     0.373 C 
BRANCH  18  19
HETATM   19  N   UNL     1      38.613 -12.436  -1.042  1.00  0.00     0.088 N 
HETATM   20  C   UNL     1      37.641 -12.402  -2.141  1.00  0.00     0.310 C 
HETATM   21  C   UNL     1      39.965 -12.590  -1.587  1.00  0.00     0.310 C 
ENDBRANCH  18  19
ENDBRANCH  15  18
ENDBRANCH  13  14
BRANCH  13  22
HETATM   22  C   UNL     1      40.068 -11.430   3.813  1.00  0.00    -0.028 A 
HETATM   23  C   UNL     1      39.424 -11.961   4.945  1.00  0.00     0.011 A 
HETATM   24  C   UNL     1      39.626 -11.402   6.210  1.00  0.00     0.024 A 
HETATM   25  C   UNL     1      40.471 -10.306   6.357  1.00  0.00     0.034 A 
HETATM   26 CL   UNL     1      40.714  -9.613   7.912  1.00  0.00    -0.084 Cl
HETATM   27  C   UNL     1      41.111  -9.759   5.248  1.00  0.00     0.024 A 
HETATM   28  C   UNL     1      40.907 -10.313   3.981  1.00  0.00     0.011 A 
ENDBRANCH  13  22
ENDBRANCH   1  13
BRANCH   6  29
HETATM   29  C   UNL     1      43.409 -19.039   3.114  1.00  0.00     0.010 A 
HETATM   30  C   UNL     1      43.487 -20.057   2.135  1.00  0.00     0.152 A 
HETATM   31  N   UNL     1      44.035 -21.183   2.600  1.00  0.00    -0.187 NA
HETATM   32  N   UNL     1      44.315 -20.890   3.880  1.00  0.00    -0.289 N 
HETATM   33  H   UNL     1      44.756 -21.603   4.452  1.00  0.00     0.188 HD
HETATM   34  C   UNL     1      43.962 -19.620   4.236  1.00  0.00     0.123 A 
ENDBRANCH   6  29
TORSDOF 6
ENDMDL
MODEL 6
REMARK VINA RESULT:      -7.8      4.157      7.644
REMARK  6 active torsions:
REMARK  status: ('A' for Active; 'I' for Inactive)
REMARK    1  A    between atoms: N_2  and  C_4 
REMARK    2  A    between atoms: C_4  and  C_5 
REMARK       I    between atoms: C_5  and  N_7 
REMARK    3  A    between atoms: N_7  and  C_8 
REMARK    4  A    between atoms: C_8  and  C_9 
REMARK    5  A    between atoms: C_8  and  C_26 
REMARK    6  A    between atoms: C_14  and  C_20 
ROOT
HETATM    1  C   UNL     1      42.320 -14.819   3.478  1.00  0.00     0.135 A 
HETATM    2  N   UNL     1      42.478 -13.643   2.953  1.00  0.00    -0.232 NA
HETATM    3  C   UNL     1      41.584 -13.252   1.944  1.00  0.00     0.074 A 
HETATM    4  C   UNL     1      41.756 -12.008   1.339  1.00  0.00     0.033 A 
HETATM    5  C   UNL     1      40.920 -11.603   0.292  1.00  0.00     0.014 A 
HETATM    6  C   UNL     1      39.895 -12.440  -0.172  1.00  0.00    -0.022 A 
HETATM    7  C   UNL     1      39.702 -13.679   0.450  1.00  0.00     0.031 A 
HETATM    8  C   UNL     1      40.546 -14.071   1.496  1.00  0.00     0.061 A 
HETATM    9  C   UNL     1      40.378 -15.376   2.157  1.00  0.00     0.259 A 
HETATM   10  O   UNL     1      39.456 -16.133   1.883  1.00  0.00    -0.267 OA
HETATM   11  N   UNL     1      41.328 -15.685   3.092  1.00  0.00    -0.309 N 
HETATM   12  H   UNL     1      41.182 -16.536   3.618  1.00  0.00     0.170 HD
ENDROOT
BRANCH   1  13
HETATM   13  C   UNL     1      43.329 -15.351   4.513  1.00  0.00     0.187 C 
BRANCH  13  14
HETATM   14  N   UNL     1      42.917 -15.130   5.897  1.00  0.00    -0.344 N 
HETATM   15  C   UNL     1      43.365 -14.137   6.727  1.00  0.00     0.247 C 
HETATM   16  O   UNL     1      43.229 -14.292   7.943  1.00  0.00    -0.272 OA
HETATM   17  H   UNL     1      42.664 -15.948   6.439  1.00  0.00     0.163 HD
BRANCH  15  18
HETATM   18  C   UNL     1      43.973 -12.860   6.142  1.00  0.00     0.373 C 
BRANCH  18  19
HETATM   19  N   UNL     1      44.277 -11.885   7.209  1.00  0.00     0.088 N 
HETATM   20  C   UNL     1      45.612 -11.302   7.032  1.00  0.00     0.310 C 
HETATM   21  C   UNL     1      43.271 -10.819   7.207  1.00  0.00     0.310 C 
ENDBRANCH  18  19
ENDBRANCH  15  18
ENDBRANCH  13  14
BRANCH  13  22
HETATM   22  C   UNL     1      43.587 -16.830   4.238  1.00  0.00    -0.028 A 
HETATM   23  C   UNL     1      43.540 -17.303   2.915  1.00  0.00     0.011 A 
HETATM   24  C   UNL     1      43.711 -18.661   2.634  1.00  0.00     0.024 A 
HETATM   25  C   UNL     1      43.929 -19.562   3.674  1.00  0.00     0.034 A 
HETATM   26 CL   UNL     1      44.132 -21.234   3.330  1.00  0.00    -0.084 Cl
HETATM   27  C   UNL     1      43.970 -19.116   4.992  1.00  0.00     0.024 A 
HETATM   28  C   UNL     1      43.794 -17.759   5.276  1.00  0.00     0.011 A 
ENDBRANCH  13  22
ENDBRANCH   1  13
BRANCH   6  29
HETATM   29  C   UNL     1      39.067 -12.025  -1.290  1.00  0.00     0.010 A 
HETATM   30  C   UNL     1      37.665 -11.879  -1.404  1.00  0.00     0.152 A 
HETATM   31  N   UNL     1      37.286 -11.430  -2.604  1.00  0.00    -0.187 NA
HETATM   32  N   UNL     1      38.447 -11.282  -3.264  1.00  0.00    -0.289 N 
HETATM   33  H   UNL     1      38.418 -10.935  -4.217  1.00  0.00     0.188 HD
HETATM   34  C   UNL     1      39.541 -11.622  -2.521  1.00  0.00     0.123 A 
ENDBRANCH   6  29
TORSDOF 6
ENDMDL
MODEL 7
REMARK VINA RESULT:      -7.6     16.664     19.051
REMARK  6 active torsions:
REMARK  status: ('A' for Active; 'I' for Inactive)
REMARK    1  A    between atoms: N_2  and  C_4 
REMARK    2  A    between atoms: C_4  and  C_5 
REMARK       I    between atoms: C_5  and  N_7 
REMARK    3  A    between atoms: N_7  and  C_8 
REMARK    4  A    between atoms: C_8  and  C_9 
REMARK    5  A    between atoms: C_8  and  C_26 
REMARK    6  A    between atoms: C_14  and  C_20 
ROOT
HETATM    1  C   UNL     1      44.296 -30.202  -0.407  1.00  0.00     0.135 A 
HETATM    2  N   UNL     1      44.016 -31.423  -0.069  1.00  0.00    -0.232 NA
HETATM    3  C   UNL     1      42.963 -31.624   0.839  1.00  0.00     0.074 A 
HETATM    4  C   UNL     1      42.667 -32.924   1.246  1.00  0.00     0.033 A 
HETATM    5  C   UNL     1      41.661 -33.164   2.190  1.00  0.00     0.014 A 
HETATM    6  C   UNL     1      40.934 -32.102   2.748  1.00  0.00    -0.022 A 
HETATM    7  C   UNL     1      41.211 -30.798   2.323  1.00  0.00     0.031 A 
HETATM    8  C   UNL     1      42.219 -30.573   1.378  1.00  0.00     0.061 A 
HETATM    9  C   UNL     1      42.545 -29.210   0.925  1.00  0.00     0.259 A 
HETATM   10  O   UNL     1      41.903 -28.232   1.286  1.00  0.00    -0.267 OA
HETATM   11  N   UNL     1      43.616 -29.113   0.079  1.00  0.00    -0.309 N 
HETATM   12  H   UNL     1      43.801 -28.200  -0.311  1.00  0.00     0.170 HD
ENDROOT
BRANCH   1  13
HETATM   13  C   UNL     1      45.504 -29.904  -1.314  1.00  0.00     0.187 C 
BRANCH  13  14
HETATM   14  N   UNL     1      46.719 -30.612  -0.919  1.00  0.00    -0.344 N 
HETATM   15  C   UNL     1      47.708 -30.131  -0.103  1.00  0.00     0.247 C 
HETATM   16  O   UNL     1      48.818 -30.665  -0.159  1.00  0.00    -0.272 OA
HETATM   17  H   UNL     1      47.107 -31.269  -1.585  1.00  0.00     0.163 HD
BRANCH  15  18
HETATM   18  C   UNL     1      47.413 -28.992   0.876  1.00  0.00     0.373 C 
BRANCH  18  19
HETATM   19  N   UNL     1      47.303 -29.501   2.259  1.00  0.00     0.088 N 
HETATM   20  C   UNL     1      48.275 -28.849   3.144  1.00  0.00     0.310 C 
HETATM   21  C   UNL     1      45.947 -29.273   2.765  1.00  0.00     0.310 C 
ENDBRANCH  18  19
ENDBRANCH  15  18
ENDBRANCH  13  14
BRANCH  13  22
HETATM   22  C   UNL     1      45.126 -30.212  -2.761  1.00  0.00    -0.028 A 
HETATM   23  C   UNL     1      45.929 -31.090  -3.510  1.00  0.00     0.011 A 
HETATM   24  C   UNL     1      45.647 -31.347  -4.855  1.00  0.00     0.024 A 
HETATM   25  C   UNL     1      44.560 -30.726  -5.465  1.00  0.00     0.034 A 
HETATM   26 CL   UNL     1      44.216 -31.035  -7.121  1.00  0.00    -0.084 Cl
HETATM   27  C   UNL     1      43.758 -29.845  -4.744  1.00  0.00     0.024 A 
HETATM   28  C   UNL     1      44.041 -29.584  -3.400  1.00  0.00     0.011 A 
ENDBRANCH  13  22
ENDBRANCH   1  13
BRANCH   6  29
HETATM   29  C   UNL     1      39.928 -32.363   3.760  1.00  0.00     0.010 A 
HETATM   30  C   UNL     1      39.859 -31.986   5.122  1.00  0.00     0.152 A 
HETATM   31  N   UNL     1      38.734 -32.393   5.717  1.00  0.00    -0.187 NA
HETATM   32  N   UNL     1      38.074 -33.031   4.736  1.00  0.00    -0.289 N 
HETATM   33  H   UNL     1      37.166 -33.430   4.948  1.00  0.00     0.188 HD
HETATM   34  C   UNL     1      38.744 -33.040   3.547  1.00  0.00     0.123 A 
ENDBRANCH   6  29
TORSDOF 6
ENDMDL
MODEL 8
REMARK VINA RESULT:      -7.6     16.991     19.305
REMARK  6 active torsions:
REMARK  status: ('A' for Active; 'I' for Inactive)
REMARK    1  A    between atoms: N_2  and  C_4 
REMARK    2  A    between atoms: C_4  and  C_5 
REMARK       I    between atoms: C_5  and  N_7 
REMARK    3  A    between atoms: N_7  and  C_8 
REMARK    4  A    between atoms: C_8  and  C_9 
REMARK    5  A    between atoms: C_8  and  C_26 
REMARK    6  A    between atoms: C_14  and  C_20 
ROOT
HETATM    1  C   UNL     1      45.210 -30.310  -1.184  1.00  0.00     0.135 A 
HETATM    2  N   UNL     1      44.441 -29.475  -0.554  1.00  0.00    -0.232 NA
HETATM    3  C   UNL     1      43.578 -29.993   0.425  1.00  0.00     0.074 A 
HETATM    4  C   UNL     1      42.717 -29.121   1.090  1.00  0.00     0.033 A 
HETATM    5  C   UNL     1      41.803 -29.604   2.033  1.00  0.00     0.014 A 
HETATM    6  C   UNL     1      41.732 -30.973   2.328  1.00  0.00    -0.022 A 
HETATM    7  C   UNL     1      42.612 -31.848   1.682  1.00  0.00     0.031 A 
HETATM    8  C   UNL     1      43.522 -31.352   0.740  1.00  0.00     0.061 A 
HETATM    9  C   UNL     1      44.447 -32.251   0.031  1.00  0.00     0.259 A 
HETATM   10  O   UNL     1      44.522 -33.446   0.289  1.00  0.00    -0.267 OA
HETATM   11  N   UNL     1      45.213 -31.660  -0.937  1.00  0.00    -0.309 N 
HETATM   12  H   UNL     1      45.915 -32.241  -1.373  1.00  0.00     0.170 HD
ENDROOT
BRANCH   1  13
HETATM   13  C   UNL     1      46.102 -29.824  -2.341  1.00  0.00     0.187 C 
BRANCH  13  14
HETATM   14  N   UNL     1      47.492 -30.257  -2.228  1.00  0.00    -0.344 N 
HETATM   15  C   UNL     1      48.498 -29.594  -1.579  1.00  0.00     0.247 C 
HETATM   16  O   UNL     1      49.663 -29.868  -1.877  1.00  0.00    -0.272 OA
HETATM   17  H   UNL     1      47.872 -30.795  -2.999  1.00  0.00     0.163 HD
BRANCH  15  18
HETATM   18  C   UNL     1      48.168 -28.575  -0.484  1.00  0.00     0.373 C 
BRANCH  18  19
HETATM   19  N   UNL     1      47.833 -29.254   0.784  1.00  0.00     0.088 N 
HETATM   20  C   UNL     1      49.031 -29.811   1.421  1.00  0.00     0.310 C 
HETATM   21  C   UNL     1      47.186 -28.308   1.697  1.00  0.00     0.310 C 
ENDBRANCH  18  19
ENDBRANCH  15  18
ENDBRANCH  13  14
BRANCH  13  22
HETATM   22  C   UNL     1      45.485 -30.271  -3.664  1.00  0.00    -0.028 A 
HETATM   23  C   UNL     1      46.173 -31.200  -4.465  1.00  0.00     0.011 A 
HETATM   24  C   UNL     1      45.666 -31.584  -5.710  1.00  0.00     0.024 A 
HETATM   25  C   UNL     1      44.469 -31.042  -6.168  1.00  0.00     0.034 A 
HETATM   26 CL   UNL     1      43.848 -31.508  -7.702  1.00  0.00    -0.084 Cl
HETATM   27  C   UNL     1      43.777 -30.112  -5.395  1.00  0.00     0.024 A 
HETATM   28  C   UNL     1      44.284 -29.723  -4.152  1.00  0.00     0.011 A 
ENDBRANCH  13  22
ENDBRANCH   1  13
BRANCH   6  29
HETATM   29  C   UNL     1      40.746 -31.463   3.273  1.00  0.00     0.010 A 
HETATM   30  C   UNL     1      40.522 -31.143   4.633  1.00  0.00     0.152 A 
HETATM   31  N   UNL     1      39.476 -31.790   5.153  1.00  0.00    -0.187 NA
HETATM   32  N   UNL     1      39.021 -32.526   4.126  1.00  0.00    -0.289 N 
HETATM   33  H   UNL     1      38.205 -33.111   4.277  1.00  0.00     0.188 HD
HETATM   34  C   UNL     1      39.745 -32.365   2.980  1.00  0.00     0.123 A 
ENDBRANCH   6  29
TORSDOF 6
ENDMDL
MODEL 9
REMARK VINA RESULT:      -7.5      4.089      5.482
REMARK  6 active torsions:
REMARK  status: ('A' for Active; 'I' for Inactive)
REMARK    1  A    between atoms: N_2  and  C_4 
REMARK    2  A    between atoms: C_4  and  C_5 
REMARK       I    between atoms: C_5  and  N_7 
REMARK    3  A    between atoms: N_7  and  C_8 
REMARK    4  A    between atoms: C_8  and  C_9 
REMARK    5  A    between atoms: C_8  and  C_26 
REMARK    6  A    between atoms: C_14  and  C_20 
ROOT
HETATM    1  C   UNL     1      40.295 -13.315   2.548  1.00  0.00     0.135 A 
HETATM    2  N   UNL     1      41.351 -13.610   3.242  1.00  0.00    -0.232 NA
HETATM    3  C   UNL     1      41.855 -14.917   3.143  1.00  0.00     0.074 A 
HETATM    4  C   UNL     1      42.967 -15.267   3.907  1.00  0.00     0.033 A 
HETATM    5  C   UNL     1      43.468 -16.574   3.878  1.00  0.00     0.014 A 
HETATM    6  C   UNL     1      42.861 -17.557   3.084  1.00  0.00    -0.022 A 
HETATM    7  C   UNL     1      41.760 -17.203   2.295  1.00  0.00     0.031 A 
HETATM    8  C   UNL     1      41.269 -15.892   2.334  1.00  0.00     0.061 A 
HETATM    9  C   UNL     1      40.102 -15.495   1.529  1.00  0.00     0.259 A 
HETATM   10  O   UNL     1      39.564 -16.259   0.738  1.00  0.00    -0.267 OA
HETATM   11  N   UNL     1      39.658 -14.216   1.732  1.00  0.00    -0.309 N 
HETATM   12  H   UNL     1      38.914 -13.897   1.128  1.00  0.00     0.170 HD
ENDROOT
BRANCH   1  13
HETATM   13  C   UNL     1      39.629 -11.934   2.693  1.00  0.00     0.187 C 
BRANCH  13  14
HETATM   14  N   UNL     1      40.476 -10.945   3.353  1.00  0.00    -0.344 N 
HETATM   15  C   UNL     1      40.071  -9.738   3.858  1.00  0.00     0.247 C 
HETATM   16  O   UNL     1      40.925  -8.867   4.038  1.00  0.00    -0.272 OA
HETATM   17  H   UNL     1      41.442 -10.887   3.050  1.00  0.00     0.163 HD
BRANCH  15  18
HETATM   18  C   UNL     1      38.602  -9.511   4.225  1.00  0.00     0.373 C 
BRANCH  18  19
HETATM   19  N   UNL     1      38.192  -8.124   3.923  1.00  0.00     0.088 N 
HETATM   20  C   UNL     1      37.438  -8.054   2.667  1.00  0.00     0.310 C 
HETATM   21  C   UNL     1      37.373  -7.600   5.019  1.00  0.00     0.310 C 
ENDBRANCH  18  19
ENDBRANCH  15  18
ENDBRANCH  13  14
BRANCH  13  22
HETATM   22  C   UNL     1      39.182 -11.452   1.315  1.00  0.00    -0.028 A 
HETATM   23  C   UNL     1      37.808 -11.377   1.025  1.00  0.00     0.011 A 
HETATM   24  C   UNL     1      37.365 -10.999  -0.245  1.00  0.00     0.024 A 
HETATM   25  C   UNL     1      38.290 -10.695  -1.240  1.00  0.00     0.034 A 
HETATM   26 CL   UNL     1      37.746 -10.237  -2.805  1.00  0.00    -0.084 Cl
HETATM   27  C   UNL     1      39.655 -10.773  -0.977  1.00  0.00     0.024 A 
HETATM   28  C   UNL     1      40.101 -11.156   0.291  1.00  0.00     0.011 A 
ENDBRANCH  13  22
ENDBRANCH   1  13
BRANCH   6  29
HETATM   29  C   UNL     1      43.363 -18.919   3.101  1.00  0.00     0.010 A 
HETATM   30  C   UNL     1      43.341 -19.931   2.114  1.00  0.00     0.152 A 
HETATM   31  N   UNL     1      43.951 -21.053   2.507  1.00  0.00    -0.187 NA
HETATM   32  N   UNL     1      44.372 -20.763   3.748  1.00  0.00    -0.289 N 
HETATM   33  H   UNL     1      44.883 -21.473   4.262  1.00  0.00     0.188 HD
HETATM   34  C   UNL     1      44.047 -19.498   4.150  1.00  0.00     0.123 A 
ENDBRANCH   6  29
TORSDOF 6
ENDMDL
MODEL 10
REMARK VINA RESULT:      -7.5      3.471      4.816
REMARK  6 active torsions:
REMARK  status: ('A' for Active; 'I' for Inactive)
REMARK    1  A    between atoms: N_2  and  C_4 
REMARK    2  A    between atoms: C_4  and  C_5 
REMARK       I    between atoms: C_5  and  N_7 
REMARK    3  A    between atoms: N_7  and  C_8 
REMARK    4  A    between atoms: C_8  and  C_9 
REMARK    5  A    between atoms: C_8  and  C_26 
REMARK    6  A    between atoms: C_14  and  C_20 
ROOT
HETATM    1  C   UNL     1      41.118 -13.150   2.868  1.00  0.00     0.135 A 
HETATM    2  N   UNL     1      41.873 -13.792   2.029  1.00  0.00    -0.232 NA
HETATM    3  C   UNL     1      42.220 -15.116   2.343  1.00  0.00     0.074 A 
HETATM    4  C   UNL     1      43.059 -15.813   1.476  1.00  0.00     0.033 A 
HETATM    5  C   UNL     1      43.473 -17.116   1.779  1.00  0.00     0.014 A 
HETATM    6  C   UNL     1      43.055 -17.744   2.961  1.00  0.00    -0.022 A 
HETATM    7  C   UNL     1      42.192 -17.057   3.822  1.00  0.00     0.031 A 
HETATM    8  C   UNL     1      41.786 -15.754   3.506  1.00  0.00     0.061 A 
HETATM    9  C   UNL     1      40.893 -15.000   4.402  1.00  0.00     0.259 A 
HETATM   10  O   UNL     1      40.405 -15.499   5.408  1.00  0.00    -0.267 OA
HETATM   11  N   UNL     1      40.653 -13.704   4.034  1.00  0.00    -0.309 N 
HETATM   12  H   UNL     1      39.975 -13.198   4.586  1.00  0.00     0.170 HD
ENDROOT
BRANCH   1  13
HETATM   13  C   UNL     1      40.788 -11.664   2.637  1.00  0.00     0.187 C 
BRANCH  13  14
HETATM   14  N   UNL     1      41.685 -10.751   3.340  1.00  0.00    -0.344 N 
HETATM   15  C   UNL     1      41.367  -9.975   4.422  1.00  0.00     0.247 C 
HETATM   16  O   UNL     1      42.082  -9.000   4.669  1.00  0.00    -0.272 OA
HETATM   17  H   UNL     1      42.408 -10.301   2.790  1.00  0.00     0.163 HD
BRANCH  15  18
HETATM   18  C   UNL     1      40.180 -10.347   5.315  1.00  0.00     0.373 C 
BRANCH  18  19
HETATM   19  N   UNL     1      39.458  -9.139   5.762  1.00  0.00     0.088 N 
HETATM   20  C   UNL     1      38.131  -9.052   5.142  1.00  0.00     0.310 C 
HETATM   21  C   UNL     1      39.318  -9.157   7.221  1.00  0.00     0.310 C 
ENDBRANCH  18  19
ENDBRANCH  15  18
ENDBRANCH  13  14
BRANCH  13  22
HETATM   22  C   UNL     1      40.775 -11.386   1.136  1.00  0.00    -0.028 A 
HETATM   23  C   UNL     1      41.586 -10.361   0.619  1.00  0.00     0.011 A 
HETATM   24  C   UNL     1      41.553 -10.040  -0.742  1.00  0.00     0.024 A 
HETATM   25  C   UNL     1      40.707 -10.739  -1.598  1.00  0.00     0.034 A 
HETATM   26 CL   UNL     1      40.661 -10.341  -3.270  1.00  0.00    -0.084 Cl
HETATM   27  C   UNL     1      39.889 -11.752  -1.105  1.00  0.00     0.024 A 
HETATM   28  C   UNL     1      39.917 -12.071   0.256  1.00  0.00     0.011 A 
ENDBRANCH  13  22
ENDBRANCH   1  13
BRANCH   6  29
HETATM   29  C   UNL     1      43.531 -19.077   3.283  1.00  0.00     0.010 A 
HETATM   30  C   UNL     1      43.557 -20.266   2.517  1.00  0.00     0.152 A 
HETATM   31  N   UNL     1      44.120 -21.289   3.166  1.00  0.00    -0.187 NA
HETATM   32  N   UNL     1      44.462 -20.758   4.351  1.00  0.00    -0.289 N 
HETATM   33  H   UNL     1      44.925 -21.354   5.029  1.00  0.00     0.188 HD
HETATM   34  C   UNL     1      44.134 -19.438   4.470  1.00  0.00     0.123 A 
ENDBRANCH   6  29
TORSDOF 6
ENDMDL
