MODEL 1
REMARK VINA RESULT:      -8.2      0.000      0.000
REMARK  4 active torsions:
REMARK  status: ('A' for Active; 'I' for Inactive)
REMARK    1  A    between atoms: C_2  and  C_3 
REMARK    2  A    between atoms: C_5  and  C_6 
REMARK       I    between atoms: C_6  and  N_7 
REMARK    3  A    between atoms: N_7  and  C_8 
REMARK    4  A    between atoms: C_10  and  C_11 
ROOT
HETATM    1  C   UNL     1      42.538 -15.581   2.133  1.00  0.00     0.035 A 
HETATM    2  C   UNL     1      42.841 -16.947   2.094  1.00  0.00     0.042 A 
HETATM    3  C   UNL     1      43.357 -17.609   3.222  1.00  0.00    -0.021 A 
HETATM    4  C   UNL     1      43.569 -16.875   4.396  1.00  0.00     0.012 A 
HETATM    5  C   UNL     1      43.266 -15.514   4.445  1.00  0.00     0.003 A 
HETATM    6  C   UNL     1      42.748 -14.874   3.321  1.00  0.00     0.029 A 
ENDROOT
BRANCH   1   7
HETATM    7  N   UNL     1      42.007 -14.863   1.045  1.00  0.00    -0.321 N 
HETATM    8  C   UNL     1      40.681 -14.705   0.678  1.00  0.00     0.280 C 
HETATM    9  O   UNL     1      39.723 -15.224   1.243  1.00  0.00    -0.265 OA
HETATM   10  H   UNL     1      42.668 -14.410   0.423  1.00  0.00     0.169 HD
BRANCH   8  11
HETATM   11  C   UNL     1      40.528 -13.850  -0.491  1.00  0.00     0.149 A 
HETATM   12  O   UNL     1      41.143 -12.622  -0.491  1.00  0.00    -0.309 OA
HETATM   13  C   UNL     1      40.824 -12.005  -1.661  1.00  0.00     0.054 A 
HETATM   14  C   UNL     1      40.031 -12.828  -2.427  1.00  0.00     0.042 A 
HETATM   15  C   UNL     1      39.837 -14.024  -1.681  1.00  0.00    -0.020 A 
HETATM   16  C   UNL     1      39.045 -15.209  -2.095  1.00  0.00     0.051 C 
BRANCH  13  17
HETATM   17  C   UNL     1      41.362 -10.636  -1.858  1.00  0.00     0.060 C 
HETATM   18  C   UNL     1      40.625  -9.898  -2.963  1.00  0.00     0.012 C 
ENDBRANCH  13  17
ENDBRANCH   8  11
ENDBRANCH   1   7
BRANCH   3  19
HETATM   19  C   UNL     1      43.652 -19.034   3.191  1.00  0.00     0.010 A 
HETATM   20  C   UNL     1      43.622 -19.964   2.123  1.00  0.00     0.152 A 
HETATM   21  N   UNL     1      43.960 -21.200   2.498  1.00  0.00    -0.187 NA
HETATM   22  N   UNL     1      44.213 -21.070   3.809  1.00  0.00    -0.289 N 
HETATM   23  H   UNL     1      44.500 -21.893   4.329  1.00  0.00     0.188 HD
HETATM   24  C   UNL     1      44.039 -19.798   4.273  1.00  0.00     0.123 A 
ENDBRANCH   3  19
TORSDOF 4
ENDMDL
MODEL 2
REMARK VINA RESULT:      -8.1      1.360      2.124
REMARK  4 active torsions:
REMARK  status: ('A' for Active; 'I' for Inactive)
REMARK    1  A    between atoms: C_2  and  C_3 
REMARK    2  A    between atoms: C_5  and  C_6 
REMARK       I    between atoms: C_6  and  N_7 
REMARK    3  A    between atoms: N_7  and  C_8 
REMARK    4  A    between atoms: C_10  and  C_11 
ROOT
HETATM    1  C   UNL     1      42.403 -15.775   2.797  1.00  0.00     0.035 A 
HETATM    2  C   UNL     1      42.710 -17.135   2.681  1.00  0.00     0.042 A 
HETATM    3  C   UNL     1      43.426 -17.808   3.688  1.00  0.00    -0.021 A 
HETATM    4  C   UNL     1      43.835 -17.088   4.818  1.00  0.00     0.012 A 
HETATM    5  C   UNL     1      43.530 -15.732   4.945  1.00  0.00     0.003 A 
HETATM    6  C   UNL     1      42.813 -15.083   3.942  1.00  0.00     0.029 A 
ENDROOT
BRANCH   1   7
HETATM    7  N   UNL     1      41.679 -15.048   1.834  1.00  0.00    -0.321 N 
HETATM    8  C   UNL     1      40.312 -15.030   1.612  1.00  0.00     0.280 C 
HETATM    9  O   UNL     1      39.487 -15.707   2.219  1.00  0.00    -0.265 OA
HETATM   10  H   UNL     1      42.212 -14.469   1.194  1.00  0.00     0.169 HD
BRANCH   8  11
HETATM   11  C   UNL     1      39.937 -14.114   0.544  1.00  0.00     0.149 A 
HETATM   12  O   UNL     1      39.846 -14.602  -0.737  1.00  0.00    -0.309 OA
HETATM   13  C   UNL     1      39.522 -13.560  -1.549  1.00  0.00     0.054 A 
HETATM   14  C   UNL     1      39.378 -12.410  -0.807  1.00  0.00     0.042 A 
HETATM   15  C   UNL     1      39.641 -12.759   0.547  1.00  0.00    -0.020 A 
HETATM   16  C   UNL     1      39.612 -11.848   1.720  1.00  0.00     0.051 C 
BRANCH  13  17
HETATM   17  C   UNL     1      39.404 -13.858  -2.998  1.00  0.00     0.060 C 
HETATM   18  C   UNL     1      38.324 -14.890  -3.272  1.00  0.00     0.012 C 
ENDBRANCH  13  17
ENDBRANCH   8  11
ENDBRANCH   1   7
BRANCH   3  19
HETATM   19  C   UNL     1      43.726 -19.227   3.580  1.00  0.00     0.010 A 
HETATM   20  C   UNL     1      43.697 -20.099   2.464  1.00  0.00     0.152 A 
HETATM   21  N   UNL     1      44.041 -21.352   2.771  1.00  0.00    -0.187 NA
HETATM   22  N   UNL     1      44.298 -21.291   4.087  1.00  0.00    -0.289 N 
HETATM   23  H   UNL     1      44.590 -22.139   4.562  1.00  0.00     0.188 HD
HETATM   24  C   UNL     1      44.120 -20.046   4.619  1.00  0.00     0.123 A 
ENDBRANCH   3  19
TORSDOF 4
ENDMDL
MODEL 3
REMARK VINA RESULT:      -8.1      2.736      7.893
REMARK  4 active torsions:
REMARK  status: ('A' for Active; 'I' for Inactive)
REMARK    1  A    between atoms: C_2  and  C_3 
REMARK    2  A    between atoms: C_5  and  C_6 
REMARK       I    between atoms: C_6  and  N_7 
REMARK    3  A    between atoms: N_7  and  C_8 
REMARK    4  A    between atoms: C_10  and  C_11 
ROOT
HETATM    1  C   UNL     1      40.729 -14.532   1.498  1.00  0.00     0.035 A 
HETATM    2  C   UNL     1      40.154 -14.728   0.238  1.00  0.00     0.042 A 
HETATM    3  C   UNL     1      39.424 -13.706  -0.395  1.00  0.00    -0.021 A 
HETATM    4  C   UNL     1      39.274 -12.479   0.264  1.00  0.00     0.012 A 
HETATM    5  C   UNL     1      39.847 -12.273   1.520  1.00  0.00     0.003 A 
HETATM    6  C   UNL     1      40.575 -13.293   2.129  1.00  0.00     0.029 A 
ENDROOT
BRANCH   1   7
HETATM    7  N   UNL     1      41.483 -15.507   2.179  1.00  0.00    -0.321 N 
HETATM    8  C   UNL     1      42.858 -15.669   2.211  1.00  0.00     0.280 C 
HETATM    9  O   UNL     1      43.667 -14.985   1.590  1.00  0.00    -0.265 OA
HETATM   10  H   UNL     1      40.969 -16.206   2.704  1.00  0.00     0.169 HD
BRANCH   8  11
HETATM   11  C   UNL     1      43.265 -16.777   3.065  1.00  0.00     0.149 A 
HETATM   12  O   UNL     1      43.439 -18.015   2.496  1.00  0.00    -0.309 OA
HETATM   13  C   UNL     1      43.777 -18.878   3.492  1.00  0.00     0.054 A 
HETATM   14  C   UNL     1      43.848 -18.209   4.693  1.00  0.00     0.042 A 
HETATM   15  C   UNL     1      43.522 -16.850   4.426  1.00  0.00    -0.020 A 
HETATM   16  C   UNL     1      43.462 -15.742   5.413  1.00  0.00     0.051 C 
BRANCH  13  17
HETATM   17  C   UNL     1      43.982 -20.295   3.102  1.00  0.00     0.060 C 
HETATM   18  C   UNL     1      43.494 -20.564   1.689  1.00  0.00     0.012 C 
ENDBRANCH  13  17
ENDBRANCH   8  11
ENDBRANCH   1   7
BRANCH   3  19
HETATM   19  C   UNL     1      38.844 -13.900  -1.715  1.00  0.00     0.010 A 
HETATM   20  C   UNL     1      39.190 -14.795  -2.757  1.00  0.00     0.152 A 
HETATM   21  N   UNL     1      38.412 -14.666  -3.835  1.00  0.00    -0.187 NA
HETATM   22  N   UNL     1      37.559 -13.690  -3.489  1.00  0.00    -0.289 N 
HETATM   23  H   UNL     1      36.850 -13.409  -4.158  1.00  0.00     0.188 HD
HETATM   24  C   UNL     1      37.778 -13.195  -2.236  1.00  0.00     0.123 A 
ENDBRANCH   3  19
TORSDOF 4
ENDMDL
MODEL 4
REMARK VINA RESULT:      -7.8      4.030      6.313
REMARK  4 active torsions:
REMARK  status: ('A' for Active; 'I' for Inactive)
REMARK    1  A    between atoms: C_2  and  C_3 
REMARK    2  A    between atoms: C_5  and  C_6 
REMARK       I    between atoms: C_6  and  N_7 
REMARK    3  A    between atoms: N_7  and  C_8 
REMARK    4  A    between atoms: C_10  and  C_11 
ROOT
HETATM    1  C   UNL     1      43.275 -15.394   3.820  1.00  0.00     0.035 A 
HETATM    2  C   UNL     1      43.563 -16.677   4.299  1.00  0.00     0.042 A 
HETATM    3  C   UNL     1      43.414 -17.810   3.478  1.00  0.00    -0.021 A 
HETATM    4  C   UNL     1      42.963 -17.635   2.163  1.00  0.00     0.012 A 
HETATM    5  C   UNL     1      42.677 -16.359   1.676  1.00  0.00     0.003 A 
HETATM    6  C   UNL     1      42.838 -15.246   2.500  1.00  0.00     0.029 A 
ENDROOT
BRANCH   1   7
HETATM    7  N   UNL     1      43.417 -14.220   4.583  1.00  0.00    -0.321 N 
HETATM    8  C   UNL     1      42.824 -13.899   5.793  1.00  0.00     0.280 C 
HETATM    9  O   UNL     1      42.016 -14.601   6.394  1.00  0.00    -0.265 OA
HETATM   10  H   UNL     1      44.011 -13.490   4.204  1.00  0.00     0.169 HD
BRANCH   8  11
HETATM   11  C   UNL     1      43.253 -12.600   6.292  1.00  0.00     0.149 A 
HETATM   12  O   UNL     1      44.553 -12.455   6.714  1.00  0.00    -0.309 OA
HETATM   13  C   UNL     1      44.697 -11.179   7.163  1.00  0.00     0.054 A 
HETATM   14  C   UNL     1      43.514 -10.491   7.016  1.00  0.00     0.042 A 
HETATM   15  C   UNL     1      42.577 -11.399   6.450  1.00  0.00    -0.020 A 
HETATM   16  C   UNL     1      41.160 -11.115   6.110  1.00  0.00     0.051 C 
BRANCH  13  17
HETATM   17  C   UNL     1      46.029 -10.812   7.703  1.00  0.00     0.060 C 
HETATM   18  C   UNL     1      46.094  -9.342   8.082  1.00  0.00     0.012 C 
ENDBRANCH  13  17
ENDBRANCH   8  11
ENDBRANCH   1   7
BRANCH   3  19
HETATM   19  C   UNL     1      43.735 -19.142   3.967  1.00  0.00     0.010 A 
HETATM   20  C   UNL     1      44.079 -19.597   5.263  1.00  0.00     0.152 A 
HETATM   21  N   UNL     1      44.309 -20.911   5.312  1.00  0.00    -0.187 NA
HETATM   22  N   UNL     1      44.109 -21.309   4.046  1.00  0.00    -0.289 N 
HETATM   23  H   UNL     1      44.223 -22.294   3.826  1.00  0.00     0.188 HD
HETATM   24  C   UNL     1      43.770 -20.291   3.203  1.00  0.00     0.123 A 
ENDBRANCH   3  19
TORSDOF 4
ENDMDL
MODEL 5
REMARK VINA RESULT:      -7.8      5.895      8.721
REMARK  4 active torsions:
REMARK  status: ('A' for Active; 'I' for Inactive)
REMARK    1  A    between atoms: C_2  and  C_3 
REMARK    2  A    between atoms: C_5  and  C_6 
REMARK       I    between atoms: C_6  and  N_7 
REMARK    3  A    between atoms: N_7  and  C_8 
REMARK    4  A    between atoms: C_10  and  C_11 
ROOT
HETATM    1  C   UNL     1      43.177 -13.445   6.259  1.00  0.00     0.035 A 
HETATM    2  C   UNL     1      43.491 -14.809   6.246  1.00  0.00     0.042 A 
HETATM    3  C   UNL     1      43.061 -15.643   5.199  1.00  0.00    -0.021 A 
HETATM    4  C   UNL     1      42.302 -15.086   4.162  1.00  0.00     0.012 A 
HETATM    5  C   UNL     1      41.986 -13.727   4.165  1.00  0.00     0.003 A 
HETATM    6  C   UNL     1      42.427 -12.912   5.206  1.00  0.00     0.029 A 
ENDROOT
BRANCH   1   7
HETATM    7  N   UNL     1      43.587 -12.554   7.268  1.00  0.00    -0.321 N 
HETATM    8  C   UNL     1      44.690 -11.717   7.285  1.00  0.00     0.280 C 
HETATM    9  O   UNL     1      45.542 -11.649   6.404  1.00  0.00    -0.265 OA
HETATM   10  H   UNL     1      43.026 -12.520   8.113  1.00  0.00     0.169 HD
BRANCH   8  11
HETATM   11  C   UNL     1      44.754 -10.910   8.497  1.00  0.00     0.149 A 
HETATM   12  O   UNL     1      43.936 -11.241   9.549  1.00  0.00    -0.309 OA
HETATM   13  C   UNL     1      44.151 -10.329  10.536  1.00  0.00     0.054 A 
HETATM   14  C   UNL     1      45.114  -9.428  10.144  1.00  0.00     0.042 A 
HETATM   15  C   UNL     1      45.513  -9.798   8.829  1.00  0.00    -0.020 A 
HETATM   16  C   UNL     1      46.529  -9.119   7.986  1.00  0.00     0.051 C 
BRANCH  13  17
HETATM   17  C   UNL     1      43.337 -10.479  11.767  1.00  0.00     0.060 C 
HETATM   18  C   UNL     1      43.054  -9.136  12.419  1.00  0.00     0.012 C 
ENDBRANCH  13  17
ENDBRANCH   8  11
ENDBRANCH   1   7
BRANCH   3  19
HETATM   19  C   UNL     1      43.406 -17.057   5.171  1.00  0.00     0.010 A 
HETATM   20  C   UNL     1      43.385 -18.037   6.193  1.00  0.00     0.152 A 
HETATM   21  N   UNL     1      43.782 -19.240   5.771  1.00  0.00    -0.187 NA
HETATM   22  N   UNL     1      44.056 -19.040   4.473  1.00  0.00    -0.289 N 
HETATM   23  H   UNL     1      44.380 -19.828   3.921  1.00  0.00     0.188 HD
HETATM   24  C   UNL     1      43.853 -17.753   4.066  1.00  0.00     0.123 A 
ENDBRANCH   3  19
TORSDOF 4
ENDMDL
MODEL 6
REMARK VINA RESULT:      -7.8      2.505      3.741
REMARK  4 active torsions:
REMARK  status: ('A' for Active; 'I' for Inactive)
REMARK    1  A    between atoms: C_2  and  C_3 
REMARK    2  A    between atoms: C_5  and  C_6 
REMARK       I    between atoms: C_6  and  N_7 
REMARK    3  A    between atoms: N_7  and  C_8 
REMARK    4  A    between atoms: C_10  and  C_11 
ROOT
HETATM    1  C   UNL     1      42.517 -16.167   2.541  1.00  0.00     0.035 A 
HETATM    2  C   UNL     1      42.566 -15.865   3.906  1.00  0.00     0.042 A 
HETATM    3  C   UNL     1      43.183 -16.736   4.822  1.00  0.00    -0.021 A 
HETATM    4  C   UNL     1      43.748 -17.926   4.344  1.00  0.00     0.012 A 
HETATM    5  C   UNL     1      43.706 -18.234   2.984  1.00  0.00     0.003 A 
HETATM    6  C   UNL     1      43.099 -17.356   2.088  1.00  0.00     0.029 A 
ENDROOT
BRANCH   1   7
HETATM    7  N   UNL     1      41.929 -15.333   1.572  1.00  0.00    -0.321 N 
HETATM    8  C   UNL     1      40.585 -15.134   1.304  1.00  0.00     0.280 C 
HETATM    9  O   UNL     1      39.658 -15.710   1.864  1.00  0.00    -0.265 OA
HETATM   10  H   UNL     1      42.556 -14.816   0.964  1.00  0.00     0.169 HD
BRANCH   8  11
HETATM   11  C   UNL     1      40.371 -14.156   0.245  1.00  0.00     0.149 A 
HETATM   12  O   UNL     1      39.803 -14.577  -0.932  1.00  0.00    -0.309 OA
HETATM   13  C   UNL     1      39.743 -13.502  -1.764  1.00  0.00     0.054 A 
HETATM   14  C   UNL     1      40.243 -12.387  -1.131  1.00  0.00     0.042 A 
HETATM   15  C   UNL     1      40.648 -12.799   0.169  1.00  0.00    -0.020 A 
HETATM   16  C   UNL     1      41.253 -11.945   1.222  1.00  0.00     0.051 C 
BRANCH  13  17
HETATM   17  C   UNL     1      39.188 -13.741  -3.119  1.00  0.00     0.060 C 
HETATM   18  C   UNL     1      38.362 -15.015  -3.171  1.00  0.00     0.012 C 
ENDBRANCH  13  17
ENDBRANCH   8  11
ENDBRANCH   1   7
BRANCH   3  19
HETATM   19  C   UNL     1      43.256 -16.413   6.239  1.00  0.00     0.010 A 
HETATM   20  C   UNL     1      42.969 -15.211   6.932  1.00  0.00     0.152 A 
HETATM   21  N   UNL     1      43.163 -15.309   8.249  1.00  0.00    -0.187 NA
HETATM   22  N   UNL     1      43.573 -16.577   8.410  1.00  0.00    -0.289 N 
HETATM   23  H   UNL     1      43.785 -16.900   9.349  1.00  0.00     0.188 HD
HETATM   24  C   UNL     1      43.650 -17.276   7.240  1.00  0.00     0.123 A 
ENDBRANCH   3  19
TORSDOF 4
ENDMDL
MODEL 7
REMARK VINA RESULT:      -7.6      2.341      3.250
REMARK  4 active torsions:
REMARK  status: ('A' for Active; 'I' for Inactive)
REMARK    1  A    between atoms: C_2  and  C_3 
REMARK    2  A    between atoms: C_5  and  C_6 
REMARK       I    between atoms: C_6  and  N_7 
REMARK    3  A    between atoms: N_7  and  C_8 
REMARK    4  A    between atoms: C_10  and  C_11 
ROOT
HETATM    1  C   UNL     1      42.557 -15.892   2.335  1.00  0.00     0.035 A 
HETATM    2  C   UNL     1      42.582 -15.588   3.700  1.00  0.00     0.042 A 
HETATM    3  C   UNL     1      43.141 -16.480   4.633  1.00  0.00    -0.021 A 
HETATM    4  C   UNL     1      43.672 -17.692   4.172  1.00  0.00     0.012 A 
HETATM    5  C   UNL     1      43.654 -18.002   2.812  1.00  0.00     0.003 A 
HETATM    6  C   UNL     1      43.104 -17.103   1.899  1.00  0.00     0.029 A 
ENDROOT
BRANCH   1   7
HETATM    7  N   UNL     1      42.027 -15.038   1.349  1.00  0.00    -0.321 N 
HETATM    8  C   UNL     1      40.722 -14.946   0.897  1.00  0.00     0.280 C 
HETATM    9  O   UNL     1      39.791 -15.654   1.270  1.00  0.00    -0.265 OA
HETATM   10  H   UNL     1      42.675 -14.413   0.881  1.00  0.00     0.169 HD
BRANCH   8  11
HETATM   11  C   UNL     1      40.557 -13.906  -0.110  1.00  0.00     0.149 A 
HETATM   12  O   UNL     1      41.150 -12.686   0.104  1.00  0.00    -0.309 OA
HETATM   13  C   UNL     1      40.823 -11.884  -0.945  1.00  0.00     0.054 A 
HETATM   14  C   UNL     1      40.047 -12.576  -1.845  1.00  0.00     0.042 A 
HETATM   15  C   UNL     1      39.872 -13.886  -1.316  1.00  0.00    -0.020 A 
HETATM   16  C   UNL     1      39.103 -14.996  -1.931  1.00  0.00     0.051 C 
BRANCH  13  17
HETATM   17  C   UNL     1      41.337 -10.492  -0.903  1.00  0.00     0.060 C 
HETATM   18  C   UNL     1      41.501  -9.998   0.525  1.00  0.00     0.012 C 
ENDBRANCH  13  17
ENDBRANCH   8  11
ENDBRANCH   1   7
BRANCH   3  19
HETATM   19  C   UNL     1      43.189 -16.156   6.051  1.00  0.00     0.010 A 
HETATM   20  C   UNL     1      43.070 -14.915   6.723  1.00  0.00     0.152 A 
HETATM   21  N   UNL     1      43.173 -15.028   8.050  1.00  0.00    -0.187 NA
HETATM   22  N   UNL     1      43.354 -16.345   8.237  1.00  0.00    -0.289 N 
HETATM   23  H   UNL     1      43.457 -16.688   9.187  1.00  0.00     0.188 HD
HETATM   24  C   UNL     1      43.377 -17.061   7.076  1.00  0.00     0.123 A 
ENDBRANCH   3  19
TORSDOF 4
ENDMDL
MODEL 8
REMARK VINA RESULT:      -7.3      6.823      9.835
REMARK  4 active torsions:
REMARK  status: ('A' for Active; 'I' for Inactive)
REMARK    1  A    between atoms: C_2  and  C_3 
REMARK    2  A    between atoms: C_5  and  C_6 
REMARK       I    between atoms: C_6  and  N_7 
REMARK    3  A    between atoms: N_7  and  C_8 
REMARK    4  A    between atoms: C_10  and  C_11 
ROOT
HETATM    1  C   UNL     1      44.785 -11.401   7.611  1.00  0.00     0.035 A 
HETATM    2  C   UNL     1      44.095 -10.768   8.650  1.00  0.00     0.042 A 
HETATM    3  C   UNL     1      44.582  -9.583   9.231  1.00  0.00    -0.021 A 
HETATM    4  C   UNL     1      45.783  -9.043   8.755  1.00  0.00     0.012 A 
HETATM    5  C   UNL     1      46.478  -9.666   7.716  1.00  0.00     0.003 A 
HETATM    6  C   UNL     1      45.977 -10.834   7.145  1.00  0.00     0.029 A 
ENDROOT
BRANCH   1   7
HETATM    7  N   UNL     1      44.346 -12.578   6.977  1.00  0.00    -0.321 N 
HETATM    8  C   UNL     1      43.201 -12.778   6.224  1.00  0.00     0.280 C 
HETATM    9  O   UNL     1      42.332 -11.936   6.018  1.00  0.00    -0.265 OA
HETATM   10  H   UNL     1      44.919 -13.407   7.092  1.00  0.00     0.169 HD
BRANCH   8  11
HETATM   11  C   UNL     1      43.116 -14.134   5.697  1.00  0.00     0.149 A 
HETATM   12  O   UNL     1      43.134 -14.310   4.335  1.00  0.00    -0.309 OA
HETATM   13  C   UNL     1      43.005 -15.643   4.095  1.00  0.00     0.054 A 
HETATM   14  C   UNL     1      42.928 -16.332   5.283  1.00  0.00     0.042 A 
HETATM   15  C   UNL     1      43.002 -15.366   6.325  1.00  0.00    -0.020 A 
HETATM   16  C   UNL     1      42.956 -15.629   7.785  1.00  0.00     0.051 C 
BRANCH  13  17
HETATM   17  C   UNL     1      42.967 -16.061   2.671  1.00  0.00     0.060 C 
HETATM   18  C   UNL     1      43.300 -17.534   2.509  1.00  0.00     0.012 C 
ENDBRANCH  13  17
ENDBRANCH   8  11
ENDBRANCH   1   7
BRANCH   3  19
HETATM   19  C   UNL     1      43.853  -8.911  10.296  1.00  0.00     0.010 A 
HETATM   20  C   UNL     1      43.162  -7.674  10.310  1.00  0.00     0.152 A 
HETATM   21  N   UNL     1      42.615  -7.396  11.497  1.00  0.00    -0.187 NA
HETATM   22  N   UNL     1      42.949  -8.455  12.250  1.00  0.00    -0.289 N 
HETATM   23  H   UNL     1      42.636  -8.478  13.215  1.00  0.00     0.188 HD
HETATM   24  C   UNL     1      43.692  -9.385  11.582  1.00  0.00     0.123 A 
ENDBRANCH   3  19
TORSDOF 4
ENDMDL
MODEL 9
REMARK VINA RESULT:      -7.2      2.203      2.665
REMARK  4 active torsions:
REMARK  status: ('A' for Active; 'I' for Inactive)
REMARK    1  A    between atoms: C_2  and  C_3 
REMARK    2  A    between atoms: C_5  and  C_6 
REMARK       I    between atoms: C_6  and  N_7 
REMARK    3  A    between atoms: N_7  and  C_8 
REMARK    4  A    between atoms: C_10  and  C_11 
ROOT
HETATM    1  C   UNL     1      40.272 -14.611   2.050  1.00  0.00     0.035 A 
HETATM    2  C   UNL     1      41.153 -15.698   2.030  1.00  0.00     0.042 A 
HETATM    3  C   UNL     1      41.822 -16.114   3.195  1.00  0.00    -0.021 A 
HETATM    4  C   UNL     1      41.596 -15.414   4.387  1.00  0.00     0.012 A 
HETATM    5  C   UNL     1      40.717 -14.331   4.418  1.00  0.00     0.003 A 
HETATM    6  C   UNL     1      40.055 -13.937   3.256  1.00  0.00     0.029 A 
ENDROOT
BRANCH   1   7
HETATM    7  N   UNL     1      39.562 -14.153   0.925  1.00  0.00    -0.321 N 
HETATM    8  C   UNL     1      40.003 -13.338  -0.104  1.00  0.00     0.280 C 
HETATM    9  O   UNL     1      41.119 -12.831  -0.177  1.00  0.00    -0.265 OA
HETATM   10  H   UNL     1      38.588 -14.429   0.849  1.00  0.00     0.169 HD
BRANCH   8  11
HETATM   11  C   UNL     1      38.979 -13.119  -1.116  1.00  0.00     0.149 A 
HETATM   12  O   UNL     1      38.338 -11.905  -1.149  1.00  0.00    -0.309 OA
HETATM   13  C   UNL     1      37.411 -11.959  -2.144  1.00  0.00     0.054 A 
HETATM   14  C   UNL     1      37.462 -13.183  -2.769  1.00  0.00     0.042 A 
HETATM   15  C   UNL     1      38.474 -13.939  -2.115  1.00  0.00    -0.020 A 
HETATM   16  C   UNL     1      38.892 -15.327  -2.435  1.00  0.00     0.051 C 
BRANCH  13  17
HETATM   17  C   UNL     1      36.571 -10.751  -2.335  1.00  0.00     0.060 C 
HETATM   18  C   UNL     1      36.408  -9.970  -1.042  1.00  0.00     0.012 C 
ENDBRANCH  13  17
ENDBRANCH   8  11
ENDBRANCH   1   7
BRANCH   3  19
HETATM   19  C   UNL     1      42.721 -17.258   3.181  1.00  0.00     0.010 A 
HETATM   20  C   UNL     1      42.879 -18.301   2.236  1.00  0.00     0.152 A 
HETATM   21  N   UNL     1      43.821 -19.182   2.584  1.00  0.00    -0.187 NA
HETATM   22  N   UNL     1      44.275 -18.707   3.754  1.00  0.00    -0.289 N 
HETATM   23  H   UNL     1      45.016 -19.214   4.226  1.00  0.00     0.188 HD
HETATM   24  C   UNL     1      43.647 -17.564   4.157  1.00  0.00     0.123 A 
ENDBRANCH   3  19
TORSDOF 4
ENDMDL
MODEL 10
REMARK VINA RESULT:      -7.2      6.855      9.633
REMARK  4 active torsions:
REMARK  status: ('A' for Active; 'I' for Inactive)
REMARK    1  A    between atoms: C_2  and  C_3 
REMARK    2  A    between atoms: C_5  and  C_6 
REMARK       I    between atoms: C_6  and  N_7 
REMARK    3  A    between atoms: N_7  and  C_8 
REMARK    4  A    between atoms: C_10  and  C_11 
ROOT
HETATM    1  C   UNL     1      44.698 -11.318   7.615  1.00  0.00     0.035 A 
HETATM    2  C   UNL     1      44.063 -11.027   8.827  1.00  0.00     0.042 A 
HETATM    3  C   UNL     1      44.546 -10.014   9.676  1.00  0.00    -0.021 A 
HETATM    4  C   UNL     1      45.686  -9.298   9.289  1.00  0.00     0.012 A 
HETATM    5  C   UNL     1      46.324  -9.579   8.080  1.00  0.00     0.003 A 
HETATM    6  C   UNL     1      45.827 -10.580   7.246  1.00  0.00     0.029 A 
ENDROOT
BRANCH   1   7
HETATM    7  N   UNL     1      44.258 -12.307   6.714  1.00  0.00    -0.321 N 
HETATM    8  C   UNL     1      43.052 -12.386   6.040  1.00  0.00     0.280 C 
HETATM    9  O   UNL     1      42.120 -11.595   6.158  1.00  0.00    -0.265 OA
HETATM   10  H   UNL     1      44.885 -13.085   6.539  1.00  0.00     0.169 HD
BRANCH   8  11
HETATM   11  C   UNL     1      42.985 -13.545   5.160  1.00  0.00     0.149 A 
HETATM   12  O   UNL     1      42.937 -14.796   5.725  1.00  0.00    -0.309 OA
HETATM   13  C   UNL     1      42.917 -15.702   4.711  1.00  0.00     0.054 A 
HETATM   14  C   UNL     1      42.927 -15.053   3.497  1.00  0.00     0.042 A 
HETATM   15  C   UNL     1      42.967 -13.658   3.778  1.00  0.00    -0.020 A 
HETATM   16  C   UNL     1      42.994 -12.554   2.785  1.00  0.00     0.051 C 
BRANCH  13  17
HETATM   17  C   UNL     1      42.900 -17.134   5.099  1.00  0.00     0.060 C 
HETATM   18  C   UNL     1      44.279 -17.761   4.994  1.00  0.00     0.012 C 
ENDBRANCH  13  17
ENDBRANCH   8  11
ENDBRANCH   1   7
BRANCH   3  19
HETATM   19  C   UNL     1      43.874  -9.695  10.926  1.00  0.00     0.010 A 
HETATM   20  C   UNL     1      43.585  -8.447  11.531  1.00  0.00     0.152 A 
HETATM   21  N   UNL     1      42.947  -8.568  12.698  1.00  0.00    -0.187 NA
HETATM   22  N   UNL     1      42.819  -9.895  12.847  1.00  0.00    -0.289 N 
HETATM   23  H   UNL     1      42.351 -10.245  13.677  1.00  0.00     0.188 HD
HETATM   24  C   UNL     1      43.360 -10.613  11.820  1.00  0.00     0.123 A 
ENDBRANCH   3  19
TORSDOF 4
ENDMDL
