MODEL 1
REMARK VINA RESULT:      -7.3      0.000      0.000
REMARK  5 active torsions:
REMARK  status: ('A' for Active; 'I' for Inactive)
REMARK    1  A    between atoms: C_2  and  N_3 
REMARK    2  A    between atoms: N_3  and  C_6 
REMARK    3  A    between atoms: C_6  and  C_7 
REMARK    4  A    between atoms: C_8  and  N_9 
REMARK       I    between atoms: N_9  and  C_10 
REMARK    5  A    between atoms: C_10  and  C_11 
ROOT
HETATM    1  N   UNL     1      43.306 -16.749   2.871  1.00  0.00    -0.326 N 
HETATM    2  C   UNL     1      42.120 -16.024   2.933  1.00  0.00     0.231 C 
HETATM    3  O   UNL     1      41.048 -16.457   3.344  1.00  0.00    -0.272 OA
HETATM    4  H   UNL     1      44.092 -16.233   2.510  1.00  0.00     0.169 HD
ENDROOT
BRANCH   1   5
HETATM    5  C   UNL     1      43.499 -18.126   3.137  1.00  0.00     0.042 A 
HETATM    6  C   UNL     1      43.956 -18.529   4.415  1.00  0.00    -0.006 A 
HETATM    7  C   UNL     1      44.174 -19.899   4.671  1.00  0.00     0.011 A 
HETATM    8  C   UNL     1      43.945 -20.856   3.686  1.00  0.00     0.001 A 
HETATM    9  C   UNL     1      43.485 -20.460   2.438  1.00  0.00     0.002 A 
HETATM   10  C   UNL     1      43.263 -19.108   2.167  1.00  0.00     0.030 A 
BRANCH   6  11
HETATM   11  C   UNL     1      44.133 -17.571   5.563  1.00  0.00     0.273 C 
BRANCH  11  12
HETATM   12  N   UNL     1      42.926 -17.556   6.443  1.00  0.00    -0.072 N 
HETATM   13  H   UNL     1      43.061 -18.263   7.180  1.00  0.00     0.277 HD
HETATM   14  H   UNL     1      42.113 -17.887   5.903  1.00  0.00     0.277 HD
BRANCH  12  15
HETATM   15  C   UNL     1      42.619 -16.233   7.055  1.00  0.00     0.228 C 
HETATM   16  C   UNL     1      41.171 -15.884   6.777  1.00  0.00     0.034 C 
ENDBRANCH  12  15
ENDBRANCH  11  12
ENDBRANCH   6  11
ENDBRANCH   1   5
BRANCH   2  17
HETATM   17  C   UNL     1      42.256 -14.531   2.608  1.00  0.00     0.122 C 
HETATM   18  C   UNL     1      42.057 -13.599   3.783  1.00  0.00    -0.028 A 
HETATM   19  C   UNL     1      40.792 -13.002   3.845  1.00  0.00     0.007 A 
HETATM   20  C   UNL     1      42.991 -13.361   4.786  1.00  0.00     0.009 A 
HETATM   21  C   UNL     1      40.441 -12.162   4.888  1.00  0.00     0.019 A 
HETATM   22  S   UNL     1      39.752 -13.518   2.511  1.00  0.00    -0.128 SA
HETATM   23  C   UNL     1      41.380 -11.916   5.890  1.00  0.00     0.001 A 
HETATM   24  C   UNL     1      42.646 -12.514   5.841  1.00  0.00     0.001 A 
HETATM   25  C   UNL     1      41.190 -14.146   1.569  1.00  0.00     0.098 C 
ENDBRANCH   2  17
TORSDOF 5
ENDMDL
MODEL 2
REMARK VINA RESULT:      -7.1      3.305      6.714
REMARK  5 active torsions:
REMARK  status: ('A' for Active; 'I' for Inactive)
REMARK    1  A    between atoms: C_2  and  N_3 
REMARK    2  A    between atoms: N_3  and  C_6 
REMARK    3  A    between atoms: C_6  and  C_7 
REMARK    4  A    between atoms: C_8  and  N_9 
REMARK       I    between atoms: N_9  and  C_10 
REMARK    5  A    between atoms: C_10  and  C_11 
ROOT
HETATM    1  N   UNL     1      41.060 -13.811  -0.252  1.00  0.00    -0.326 N 
HETATM    2  C   UNL     1      41.191 -14.589   0.893  1.00  0.00     0.231 C 
HETATM    3  O   UNL     1      40.355 -15.388   1.304  1.00  0.00    -0.272 OA
HETATM    4  H   UNL     1      41.848 -13.212  -0.442  1.00  0.00     0.169 HD
ENDROOT
BRANCH   1   5
HETATM    5  C   UNL     1      39.927 -13.681  -1.092  1.00  0.00     0.042 A 
HETATM    6  C   UNL     1      38.908 -12.761  -0.745  1.00  0.00    -0.006 A 
HETATM    7  C   UNL     1      37.767 -12.652  -1.568  1.00  0.00     0.011 A 
HETATM    8  C   UNL     1      37.632 -13.435  -2.711  1.00  0.00     0.001 A 
HETATM    9  C   UNL     1      38.638 -14.327  -3.055  1.00  0.00     0.002 A 
HETATM   10  C   UNL     1      39.775 -14.447  -2.253  1.00  0.00     0.030 A 
BRANCH   6  11
HETATM   11  C   UNL     1      39.021 -11.811   0.416  1.00  0.00     0.273 C 
BRANCH  11  12
HETATM   12  N   UNL     1      38.283 -12.328   1.609  1.00  0.00    -0.072 N 
HETATM   13  H   UNL     1      38.045 -13.314   1.433  1.00  0.00     0.277 HD
HETATM   14  H   UNL     1      37.376 -11.844   1.677  1.00  0.00     0.277 HD
BRANCH  12  15
HETATM   15  C   UNL     1      39.019 -12.202   2.898  1.00  0.00     0.228 C 
HETATM   16  C   UNL     1      39.808 -10.909   2.894  1.00  0.00     0.034 C 
ENDBRANCH  12  15
ENDBRANCH  11  12
ENDBRANCH   6  11
ENDBRANCH   1   5
BRANCH   2  17
HETATM   17  C   UNL     1      42.569 -14.527   1.564  1.00  0.00     0.122 C 
HETATM   18  C   UNL     1      42.925 -15.733   2.408  1.00  0.00    -0.028 A 
HETATM   19  C   UNL     1      42.753 -15.549   3.786  1.00  0.00     0.007 A 
HETATM   20  C   UNL     1      43.334 -16.966   1.914  1.00  0.00     0.009 A 
HETATM   21  C   UNL     1      42.990 -16.574   4.685  1.00  0.00     0.019 A 
HETATM   22  S   UNL     1      42.149 -13.931   4.166  1.00  0.00    -0.128 SA
HETATM   23  C   UNL     1      43.408 -17.810   4.191  1.00  0.00     0.001 A 
HETATM   24  C   UNL     1      43.576 -18.006   2.814  1.00  0.00     0.001 A 
HETATM   25  C   UNL     1      42.613 -13.315   2.507  1.00  0.00     0.098 C 
ENDBRANCH   2  17
TORSDOF 5
ENDMDL
MODEL 3
REMARK VINA RESULT:      -6.9      2.192      3.843
REMARK  5 active torsions:
REMARK  status: ('A' for Active; 'I' for Inactive)
REMARK    1  A    between atoms: C_2  and  N_3 
REMARK    2  A    between atoms: N_3  and  C_6 
REMARK    3  A    between atoms: C_6  and  C_7 
REMARK    4  A    between atoms: C_8  and  N_9 
REMARK       I    between atoms: N_9  and  C_10 
REMARK    5  A    between atoms: C_10  and  C_11 
ROOT
HETATM    1  N   UNL     1      41.500 -16.053   2.720  1.00  0.00    -0.326 N 
HETATM    2  C   UNL     1      41.727 -14.863   2.037  1.00  0.00     0.231 C 
HETATM    3  O   UNL     1      42.813 -14.494   1.601  1.00  0.00    -0.272 OA
HETATM    4  H   UNL     1      40.543 -16.196   3.003  1.00  0.00     0.169 HD
ENDROOT
BRANCH   1   5
HETATM    5  C   UNL     1      42.456 -17.002   3.157  1.00  0.00     0.042 A 
HETATM    6  C   UNL     1      43.074 -16.835   4.420  1.00  0.00    -0.006 A 
HETATM    7  C   UNL     1      44.045 -17.767   4.841  1.00  0.00     0.011 A 
HETATM    8  C   UNL     1      44.403 -18.843   4.034  1.00  0.00     0.001 A 
HETATM    9  C   UNL     1      43.787 -19.011   2.802  1.00  0.00     0.002 A 
HETATM   10  C   UNL     1      42.822 -18.099   2.369  1.00  0.00     0.030 A 
BRANCH   6  11
HETATM   11  C   UNL     1      42.675 -15.758   5.392  1.00  0.00     0.273 C 
BRANCH  11  12
HETATM   12  N   UNL     1      41.784 -16.300   6.462  1.00  0.00    -0.072 N 
HETATM   13  H   UNL     1      42.216 -16.088   7.373  1.00  0.00     0.277 HD
HETATM   14  H   UNL     1      41.779 -17.330   6.405  1.00  0.00     0.277 HD
BRANCH  12  15
HETATM   15  C   UNL     1      40.386 -15.787   6.428  1.00  0.00     0.228 C 
HETATM   16  C   UNL     1      40.404 -14.330   6.013  1.00  0.00     0.034 C 
ENDBRANCH  12  15
ENDBRANCH  11  12
ENDBRANCH   6  11
ENDBRANCH   1   5
BRANCH   2  17
HETATM   17  C   UNL     1      40.463 -14.067   1.685  1.00  0.00     0.122 C 
HETATM   18  C   UNL     1      40.318 -13.711   0.221  1.00  0.00    -0.028 A 
HETATM   19  C   UNL     1      40.682 -12.397  -0.097  1.00  0.00     0.007 A 
HETATM   20  C   UNL     1      39.922 -14.588  -0.783  1.00  0.00     0.009 A 
HETATM   21  C   UNL     1      40.650 -11.935  -1.402  1.00  0.00     0.019 A 
HETATM   22  S   UNL     1      41.228 -11.500   1.325  1.00  0.00    -0.128 SA
HETATM   23  C   UNL     1      40.245 -12.812  -2.409  1.00  0.00     0.001 A 
HETATM   24  C   UNL     1      39.886 -14.131  -2.102  1.00  0.00     0.001 A 
HETATM   25  C   UNL     1      40.481 -12.734   2.451  1.00  0.00     0.098 C 
ENDBRANCH   2  17
TORSDOF 5
ENDMDL
MODEL 4
REMARK VINA RESULT:      -6.8      3.601      7.250
REMARK  5 active torsions:
REMARK  status: ('A' for Active; 'I' for Inactive)
REMARK    1  A    between atoms: C_2  and  N_3 
REMARK    2  A    between atoms: N_3  and  C_6 
REMARK    3  A    between atoms: C_6  and  C_7 
REMARK    4  A    between atoms: C_8  and  N_9 
REMARK       I    between atoms: N_9  and  C_10 
REMARK    5  A    between atoms: C_10  and  C_11 
ROOT
HETATM    1  N   UNL     1      41.212 -13.871  -0.008  1.00  0.00    -0.326 N 
HETATM    2  C   UNL     1      41.362 -14.627   1.150  1.00  0.00     0.231 C 
HETATM    3  O   UNL     1      40.493 -15.334   1.650  1.00  0.00    -0.272 OA
HETATM    4  H   UNL     1      42.032 -13.352  -0.277  1.00  0.00     0.169 HD
ENDROOT
BRANCH   1   5
HETATM    5  C   UNL     1      40.032 -13.660  -0.762  1.00  0.00     0.042 A 
HETATM    6  C   UNL     1      39.254 -12.500  -0.525  1.00  0.00    -0.006 A 
HETATM    7  C   UNL     1      38.065 -12.305  -1.258  1.00  0.00     0.011 A 
HETATM    8  C   UNL     1      37.649 -13.234  -2.208  1.00  0.00     0.001 A 
HETATM    9  C   UNL     1      38.419 -14.363  -2.447  1.00  0.00     0.002 A 
HETATM   10  C   UNL     1      39.600 -14.573  -1.731  1.00  0.00     0.030 A 
BRANCH   6  11
HETATM   11  C   UNL     1      39.682 -11.402   0.411  1.00  0.00     0.273 C 
BRANCH  11  12
HETATM   12  N   UNL     1      40.034 -10.160  -0.341  1.00  0.00    -0.072 N 
HETATM   13  H   UNL     1      40.111  -9.388   0.337  1.00  0.00     0.277 HD
HETATM   14  H   UNL     1      39.242  -9.900  -0.949  1.00  0.00     0.277 HD
BRANCH  12  15
HETATM   15  C   UNL     1      41.280 -10.254  -1.151  1.00  0.00     0.228 C 
HETATM   16  C   UNL     1      40.948  -9.984  -2.604  1.00  0.00     0.034 C 
ENDBRANCH  12  15
ENDBRANCH  11  12
ENDBRANCH   6  11
ENDBRANCH   1   5
BRANCH   2  17
HETATM   17  C   UNL     1      42.789 -14.674   1.711  1.00  0.00     0.122 C 
HETATM   18  C   UNL     1      43.110 -15.898   2.542  1.00  0.00    -0.028 A 
HETATM   19  C   UNL     1      43.062 -15.691   3.926  1.00  0.00     0.007 A 
HETATM   20  C   UNL     1      43.377 -17.165   2.034  1.00  0.00     0.009 A 
HETATM   21  C   UNL     1      43.284 -16.726   4.818  1.00  0.00     0.019 A 
HETATM   22  S   UNL     1      42.624 -14.027   4.330  1.00  0.00    -0.128 SA
HETATM   23  C   UNL     1      43.561 -17.996   4.310  1.00  0.00     0.001 A 
HETATM   24  C   UNL     1      43.604 -18.215   2.927  1.00  0.00     0.001 A 
HETATM   25  C   UNL     1      43.005 -13.462   2.632  1.00  0.00     0.098 C 
ENDBRANCH   2  17
TORSDOF 5
ENDMDL
MODEL 5
REMARK VINA RESULT:      -6.5      2.156      3.761
REMARK  5 active torsions:
REMARK  status: ('A' for Active; 'I' for Inactive)
REMARK    1  A    between atoms: C_2  and  N_3 
REMARK    2  A    between atoms: N_3  and  C_6 
REMARK    3  A    between atoms: C_6  and  C_7 
REMARK    4  A    between atoms: C_8  and  N_9 
REMARK       I    between atoms: N_9  and  C_10 
REMARK    5  A    between atoms: C_10  and  C_11 
ROOT
HETATM    1  N   UNL     1      42.952 -15.172   4.814  1.00  0.00    -0.326 N 
HETATM    2  C   UNL     1      43.486 -14.753   6.028  1.00  0.00     0.231 C 
HETATM    3  O   UNL     1      44.380 -15.327   6.643  1.00  0.00    -0.272 OA
HETATM    4  H   UNL     1      42.225 -14.576   4.449  1.00  0.00     0.169 HD
ENDROOT
BRANCH   1   5
HETATM    5  C   UNL     1      43.223 -16.371   4.112  1.00  0.00     0.042 A 
HETATM    6  C   UNL     1      43.284 -16.350   2.697  1.00  0.00    -0.006 A 
HETATM    7  C   UNL     1      43.527 -17.550   1.998  1.00  0.00     0.011 A 
HETATM    8  C   UNL     1      43.707 -18.751   2.679  1.00  0.00     0.001 A 
HETATM    9  C   UNL     1      43.659 -18.768   4.065  1.00  0.00     0.002 A 
HETATM   10  C   UNL     1      43.420 -17.588   4.774  1.00  0.00     0.030 A 
BRANCH   6  11
HETATM   11  C   UNL     1      43.197 -15.081   1.892  1.00  0.00     0.273 C 
BRANCH  11  12
HETATM   12  N   UNL     1      41.926 -15.025   1.109  1.00  0.00    -0.072 N 
HETATM   13  H   UNL     1      41.693 -15.984   0.811  1.00  0.00     0.277 HD
HETATM   14  H   UNL     1      42.095 -14.510   0.232  1.00  0.00     0.277 HD
BRANCH  12  15
HETATM   15  C   UNL     1      40.774 -14.422   1.834  1.00  0.00     0.228 C 
HETATM   16  C   UNL     1      39.824 -15.524   2.258  1.00  0.00     0.034 C 
ENDBRANCH  12  15
ENDBRANCH  11  12
ENDBRANCH   6  11
ENDBRANCH   1   5
BRANCH   2  17
HETATM   17  C   UNL     1      43.001 -13.379   6.509  1.00  0.00     0.122 C 
HETATM   18  C   UNL     1      41.788 -12.838   5.781  1.00  0.00    -0.028 A 
HETATM   19  C   UNL     1      42.078 -11.883   4.799  1.00  0.00     0.007 A 
HETATM   20  C   UNL     1      40.478 -13.257   5.983  1.00  0.00     0.009 A 
HETATM   21  C   UNL     1      41.080 -11.330   4.014  1.00  0.00     0.019 A 
HETATM   22  S   UNL     1      43.814 -11.573   4.670  1.00  0.00    -0.128 SA
HETATM   23  C   UNL     1      39.764 -11.744   4.221  1.00  0.00     0.001 A 
HETATM   24  C   UNL     1      39.465 -12.704   5.197  1.00  0.00     0.001 A 
HETATM   25  C   UNL     1      44.123 -12.350   6.297  1.00  0.00     0.098 C 
ENDBRANCH   2  17
TORSDOF 5
ENDMDL
MODEL 6
REMARK VINA RESULT:      -6.5      4.116      7.453
REMARK  5 active torsions:
REMARK  status: ('A' for Active; 'I' for Inactive)
REMARK    1  A    between atoms: C_2  and  N_3 
REMARK    2  A    between atoms: N_3  and  C_6 
REMARK    3  A    between atoms: C_6  and  C_7 
REMARK    4  A    between atoms: C_8  and  N_9 
REMARK       I    between atoms: N_9  and  C_10 
REMARK    5  A    between atoms: C_10  and  C_11 
ROOT
HETATM    1  N   UNL     1      43.339 -12.131   7.429  1.00  0.00    -0.326 N 
HETATM    2  C   UNL     1      43.017 -12.670   6.189  1.00  0.00     0.231 C 
HETATM    3  O   UNL     1      43.549 -12.366   5.125  1.00  0.00    -0.272 OA
HETATM    4  H   UNL     1      42.803 -12.501   8.198  1.00  0.00     0.169 HD
ENDROOT
BRANCH   1   5
HETATM    5  C   UNL     1      44.227 -11.065   7.710  1.00  0.00     0.042 A 
HETATM    6  C   UNL     1      43.711  -9.843   8.206  1.00  0.00    -0.006 A 
HETATM    7  C   UNL     1      44.594  -8.772   8.459  1.00  0.00     0.011 A 
HETATM    8  C   UNL     1      45.961  -8.902   8.230  1.00  0.00     0.001 A 
HETATM    9  C   UNL     1      46.466 -10.105   7.757  1.00  0.00     0.002 A 
HETATM   10  C   UNL     1      45.607 -11.176   7.501  1.00  0.00     0.030 A 
BRANCH   6  11
HETATM   11  C   UNL     1      42.264  -9.652   8.572  1.00  0.00     0.273 C 
BRANCH  11  12
HETATM   12  N   UNL     1      42.127  -8.884   9.847  1.00  0.00    -0.072 N 
HETATM   13  H   UNL     1      41.229  -8.381   9.820  1.00  0.00     0.277 HD
HETATM   14  H   UNL     1      42.845  -8.145   9.872  1.00  0.00     0.277 HD
BRANCH  12  15
HETATM   15  C   UNL     1      42.212  -9.710  11.083  1.00  0.00     0.228 C 
HETATM   16  C   UNL     1      43.279  -9.133  11.991  1.00  0.00     0.034 C 
ENDBRANCH  12  15
ENDBRANCH  11  12
ENDBRANCH   6  11
ENDBRANCH   1   5
BRANCH   2  17
HETATM   17  C   UNL     1      42.032 -13.846   6.230  1.00  0.00     0.122 C 
HETATM   18  C   UNL     1      42.297 -14.939   5.217  1.00  0.00    -0.028 A 
HETATM   19  C   UNL     1      41.480 -14.889   4.080  1.00  0.00     0.007 A 
HETATM   20  C   UNL     1      43.294 -15.903   5.318  1.00  0.00     0.009 A 
HETATM   21  C   UNL     1      41.633 -15.791   3.041  1.00  0.00     0.019 A 
HETATM   22  S   UNL     1      40.347 -13.533   4.140  1.00  0.00    -0.128 SA
HETATM   23  C   UNL     1      42.628 -16.764   3.145  1.00  0.00     0.001 A 
HETATM   24  C   UNL     1      43.455 -16.817   4.275  1.00  0.00     0.001 A 
HETATM   25  C   UNL     1      40.616 -13.324   5.938  1.00  0.00     0.098 C 
ENDBRANCH   2  17
TORSDOF 5
ENDMDL
MODEL 7
REMARK VINA RESULT:      -6.4      3.531      7.387
REMARK  5 active torsions:
REMARK  status: ('A' for Active; 'I' for Inactive)
REMARK    1  A    between atoms: C_2  and  N_3 
REMARK    2  A    between atoms: N_3  and  C_6 
REMARK    3  A    between atoms: C_6  and  C_7 
REMARK    4  A    between atoms: C_8  and  N_9 
REMARK       I    between atoms: N_9  and  C_10 
REMARK    5  A    between atoms: C_10  and  C_11 
ROOT
HETATM    1  N   UNL     1      40.910 -12.613   2.175  1.00  0.00    -0.326 N 
HETATM    2  C   UNL     1      42.148 -11.988   2.285  1.00  0.00     0.231 C 
HETATM    3  O   UNL     1      42.378 -10.819   1.992  1.00  0.00    -0.272 OA
HETATM    4  H   UNL     1      40.902 -13.578   2.464  1.00  0.00     0.169 HD
ENDROOT
BRANCH   1   5
HETATM    5  C   UNL     1      39.722 -12.095   1.605  1.00  0.00     0.042 A 
HETATM    6  C   UNL     1      39.325 -12.524   0.315  1.00  0.00    -0.006 A 
HETATM    7  C   UNL     1      38.155 -11.987  -0.262  1.00  0.00     0.011 A 
HETATM    8  C   UNL     1      37.390 -11.044   0.419  1.00  0.00     0.001 A 
HETATM    9  C   UNL     1      37.773 -10.634   1.687  1.00  0.00     0.002 A 
HETATM   10  C   UNL     1      38.928 -11.156   2.275  1.00  0.00     0.030 A 
BRANCH   6  11
HETATM   11  C   UNL     1      40.040 -13.608  -0.444  1.00  0.00     0.273 C 
BRANCH  11  12
HETATM   12  N   UNL     1      39.071 -14.560  -1.067  1.00  0.00    -0.072 N 
HETATM   13  H   UNL     1      38.119 -14.216  -0.873  1.00  0.00     0.277 HD
HETATM   14  H   UNL     1      39.130 -15.466  -0.580  1.00  0.00     0.277 HD
BRANCH  12  15
HETATM   15  C   UNL     1      39.251 -14.763  -2.531  1.00  0.00     0.228 C 
HETATM   16  C   UNL     1      38.025 -14.250  -3.258  1.00  0.00     0.034 C 
ENDBRANCH  12  15
ENDBRANCH  11  12
ENDBRANCH   6  11
ENDBRANCH   1   5
BRANCH   2  17
HETATM   17  C   UNL     1      43.232 -12.819   2.983  1.00  0.00     0.122 C 
HETATM   18  C   UNL     1      43.077 -14.319   2.846  1.00  0.00    -0.028 A 
HETATM   19  C   UNL     1      42.518 -14.950   3.964  1.00  0.00     0.007 A 
HETATM   20  C   UNL     1      43.387 -15.057   1.709  1.00  0.00     0.009 A 
HETATM   21  C   UNL     1      42.268 -16.312   3.973  1.00  0.00     0.019 A 
HETATM   22  S   UNL     1      42.133 -13.799   5.249  1.00  0.00    -0.128 SA
HETATM   23  C   UNL     1      42.586 -17.055   2.836  1.00  0.00     0.001 A 
HETATM   24  C   UNL     1      43.139 -16.431   1.710  1.00  0.00     0.001 A 
HETATM   25  C   UNL     1      43.200 -12.520   4.490  1.00  0.00     0.098 C 
ENDBRANCH   2  17
TORSDOF 5
ENDMDL
MODEL 8
REMARK VINA RESULT:      -6.4      3.145      5.059
REMARK  5 active torsions:
REMARK  status: ('A' for Active; 'I' for Inactive)
REMARK    1  A    between atoms: C_2  and  N_3 
REMARK    2  A    between atoms: N_3  and  C_6 
REMARK    3  A    between atoms: C_6  and  C_7 
REMARK    4  A    between atoms: C_8  and  N_9 
REMARK       I    between atoms: N_9  and  C_10 
REMARK    5  A    between atoms: C_10  and  C_11 
ROOT
HETATM    1  N   UNL     1      42.885 -13.273   3.471  1.00  0.00    -0.326 N 
HETATM    2  C   UNL     1      43.129 -12.826   4.765  1.00  0.00     0.231 C 
HETATM    3  O   UNL     1      43.175 -13.539   5.763  1.00  0.00    -0.272 OA
HETATM    4  H   UNL     1      42.887 -12.548   2.771  1.00  0.00     0.169 HD
ENDROOT
BRANCH   1   5
HETATM    5  C   UNL     1      42.525 -14.577   3.054  1.00  0.00     0.042 A 
HETATM    6  C   UNL     1      41.155 -14.912   2.923  1.00  0.00    -0.006 A 
HETATM    7  C   UNL     1      40.798 -16.219   2.534  1.00  0.00     0.011 A 
HETATM    8  C   UNL     1      41.771 -17.181   2.279  1.00  0.00     0.001 A 
HETATM    9  C   UNL     1      43.113 -16.848   2.397  1.00  0.00     0.002 A 
HETATM   10  C   UNL     1      43.486 -15.558   2.780  1.00  0.00     0.030 A 
BRANCH   6  11
HETATM   11  C   UNL     1      40.046 -13.907   3.084  1.00  0.00     0.273 C 
BRANCH  11  12
HETATM   12  N   UNL     1      39.246 -13.782   1.829  1.00  0.00    -0.072 N 
HETATM   13  H   UNL     1      38.426 -13.191   2.031  1.00  0.00     0.277 HD
HETATM   14  H   UNL     1      38.854 -14.704   1.587  1.00  0.00     0.277 HD
BRANCH  12  15
HETATM   15  C   UNL     1      39.995 -13.233   0.664  1.00  0.00     0.228 C 
HETATM   16  C   UNL     1      39.858 -14.185  -0.506  1.00  0.00     0.034 C 
ENDBRANCH  12  15
ENDBRANCH  11  12
ENDBRANCH   6  11
ENDBRANCH   1   5
BRANCH   2  17
HETATM   17  C   UNL     1      43.526 -11.348   4.876  1.00  0.00     0.122 C 
HETATM   18  C   UNL     1      44.283 -10.981   6.134  1.00  0.00    -0.028 A 
HETATM   19  C   UNL     1      43.504 -10.372   7.125  1.00  0.00     0.007 A 
HETATM   20  C   UNL     1      45.626 -11.254   6.371  1.00  0.00     0.009 A 
HETATM   21  C   UNL     1      44.041 -10.022   8.352  1.00  0.00     0.019 A 
HETATM   22  S   UNL     1      41.815 -10.204   6.628  1.00  0.00    -0.128 SA
HETATM   23  C   UNL     1      45.391 -10.288   8.588  1.00  0.00     0.001 A 
HETATM   24  C   UNL     1      46.177 -10.903   7.605  1.00  0.00     0.001 A 
HETATM   25  C   UNL     1      42.253 -10.486   4.874  1.00  0.00     0.098 C 
ENDBRANCH   2  17
TORSDOF 5
ENDMDL
MODEL 9
REMARK VINA RESULT:      -6.3     14.444     15.621
REMARK  5 active torsions:
REMARK  status: ('A' for Active; 'I' for Inactive)
REMARK    1  A    between atoms: C_2  and  N_3 
REMARK    2  A    between atoms: N_3  and  C_6 
REMARK    3  A    between atoms: C_6  and  C_7 
REMARK    4  A    between atoms: C_8  and  N_9 
REMARK       I    between atoms: N_9  and  C_10 
REMARK    5  A    between atoms: C_10  and  C_11 
ROOT
HETATM    1  N   UNL     1      48.030 -29.674   0.546  1.00  0.00    -0.326 N 
HETATM    2  C   UNL     1      47.559 -28.597  -0.198  1.00  0.00     0.231 C 
HETATM    3  O   UNL     1      47.044 -27.586   0.271  1.00  0.00    -0.272 OA
HETATM    4  H   UNL     1      48.427 -30.420  -0.005  1.00  0.00     0.169 HD
ENDROOT
BRANCH   1   5
HETATM    5  C   UNL     1      47.911 -29.888   1.940  1.00  0.00     0.042 A 
HETATM    6  C   UNL     1      46.650 -30.233   2.485  1.00  0.00    -0.006 A 
HETATM    7  C   UNL     1      46.527 -30.419   3.877  1.00  0.00     0.011 A 
HETATM    8  C   UNL     1      47.625 -30.269   4.719  1.00  0.00     0.001 A 
HETATM    9  C   UNL     1      48.862 -29.943   4.183  1.00  0.00     0.002 A 
HETATM   10  C   UNL     1      49.003 -29.756   2.805  1.00  0.00     0.030 A 
BRANCH   6  11
HETATM   11  C   UNL     1      45.438 -30.510   1.636  1.00  0.00     0.273 C 
BRANCH  11  12
HETATM   12  N   UNL     1      44.609 -29.279   1.462  1.00  0.00    -0.072 N 
HETATM   13  H   UNL     1      45.231 -28.462   1.549  1.00  0.00     0.277 HD
HETATM   14  H   UNL     1      43.955 -29.200   2.256  1.00  0.00     0.277 HD
BRANCH  12  15
HETATM   15  C   UNL     1      43.855 -29.212   0.180  1.00  0.00     0.228 C 
HETATM   16  C   UNL     1      43.924 -30.561  -0.506  1.00  0.00     0.034 C 
ENDBRANCH  12  15
ENDBRANCH  11  12
ENDBRANCH   6  11
ENDBRANCH   1   5
BRANCH   2  17
HETATM   17  C   UNL     1      47.878 -28.656  -1.697  1.00  0.00     0.122 C 
HETATM   18  C   UNL     1      46.698 -28.973  -2.591  1.00  0.00    -0.028 A 
HETATM   19  C   UNL     1      46.634 -30.305  -3.018  1.00  0.00     0.007 A 
HETATM   20  C   UNL     1      45.695 -28.077  -2.943  1.00  0.00     0.009 A 
HETATM   21  C   UNL     1      45.588 -30.762  -3.802  1.00  0.00     0.019 A 
HETATM   22  S   UNL     1      47.970 -31.270  -2.378  1.00  0.00    -0.128 SA
HETATM   23  C   UNL     1      44.584 -29.862  -4.163  1.00  0.00     0.001 A 
HETATM   24  C   UNL     1      44.636 -28.529  -3.734  1.00  0.00     0.001 A 
HETATM   25  C   UNL     1      48.915 -29.764  -1.945  1.00  0.00     0.098 C 
ENDBRANCH   2  17
TORSDOF 5
ENDMDL
MODEL 10
REMARK VINA RESULT:      -6.2      6.699      9.476
REMARK  5 active torsions:
REMARK  status: ('A' for Active; 'I' for Inactive)
REMARK    1  A    between atoms: C_2  and  N_3 
REMARK    2  A    between atoms: N_3  and  C_6 
REMARK    3  A    between atoms: C_6  and  C_7 
REMARK    4  A    between atoms: C_8  and  N_9 
REMARK       I    between atoms: N_9  and  C_10 
REMARK    5  A    between atoms: C_10  and  C_11 
ROOT
HETATM    1  N   UNL     1      43.052  -9.225   9.078  1.00  0.00    -0.326 N 
HETATM    2  C   UNL     1      42.630  -9.586  10.353  1.00  0.00     0.231 C 
HETATM    3  O   UNL     1      43.110 -10.494  11.027  1.00  0.00    -0.272 OA
HETATM    4  H   UNL     1      42.547  -8.452   8.674  1.00  0.00     0.169 HD
ENDROOT
BRANCH   1   5
HETATM    5  C   UNL     1      44.004  -9.879   8.259  1.00  0.00     0.042 A 
HETATM    6  C   UNL     1      43.563 -10.603   7.125  1.00  0.00    -0.006 A 
HETATM    7  C   UNL     1      44.510 -11.277   6.325  1.00  0.00     0.011 A 
HETATM    8  C   UNL     1      45.866 -11.238   6.636  1.00  0.00     0.001 A 
HETATM    9  C   UNL     1      46.297 -10.518   7.740  1.00  0.00     0.002 A 
HETATM   10  C   UNL     1      45.374  -9.844   8.543  1.00  0.00     0.030 A 
BRANCH   6  11
HETATM   11  C   UNL     1      42.131 -10.615   6.665  1.00  0.00     0.273 C 
BRANCH  11  12
HETATM   12  N   UNL     1      41.595 -12.009   6.604  1.00  0.00    -0.072 N 
HETATM   13  H   UNL     1      40.855 -12.097   7.315  1.00  0.00     0.277 HD
HETATM   14  H   UNL     1      42.331 -12.664   6.906  1.00  0.00     0.277 HD
BRANCH  12  15
HETATM   15  C   UNL     1      41.073 -12.418   5.270  1.00  0.00     0.228 C 
HETATM   16  C   UNL     1      40.171 -13.623   5.440  1.00  0.00     0.034 C 
ENDBRANCH  12  15
ENDBRANCH  11  12
ENDBRANCH   6  11
ENDBRANCH   1   5
BRANCH   2  17
HETATM   17  C   UNL     1      41.597  -8.644  10.984  1.00  0.00     0.122 C 
HETATM   18  C   UNL     1      41.897  -8.226  12.408  1.00  0.00    -0.028 A 
HETATM   19  C   UNL     1      41.177  -8.927  13.384  1.00  0.00     0.007 A 
HETATM   20  C   UNL     1      42.841  -7.277  12.784  1.00  0.00     0.009 A 
HETATM   21  C   UNL     1      41.376  -8.693  14.734  1.00  0.00     0.019 A 
HETATM   22  S   UNL     1      40.101 -10.136  12.671  1.00  0.00    -0.128 SA
HETATM   23  C   UNL     1      42.317  -7.735  15.112  1.00  0.00     0.001 A 
HETATM   24  C   UNL     1      43.047  -7.034  14.144  1.00  0.00     0.001 A 
HETATM   25  C   UNL     1      40.232  -9.351  11.023  1.00  0.00     0.098 C 
ENDBRANCH   2  17
TORSDOF 5
ENDMDL
