MODEL 1
REMARK VINA RESULT:      -7.5      0.000      0.000
REMARK  6 active torsions:
REMARK  status: ('A' for Active; 'I' for Inactive)
REMARK    1  A    between atoms: C_2  and  C_3 
REMARK    2  A    between atoms: C_3  and  O_4 
REMARK    3  A    between atoms: O_4  and  C_5 
REMARK    4  A    between atoms: C_7  and  N_8 
REMARK       I    between atoms: N_8  and  C_9 
REMARK       I    between atoms: C_9  and  N_10 
REMARK    5  A    between atoms: N_10  and  C_11 
REMARK    6  A    between atoms: C_11  and  C_12 
ROOT
HETATM    1  N   UNL     1      43.729 -11.816   6.412  1.00  0.00    -0.309 N 
HETATM    2  C   UNL     1      43.504 -11.868   5.054  1.00  0.00     0.320 C 
HETATM    3  N   UNL     1      42.778 -12.993   4.729  1.00  0.00    -0.339 N 
HETATM    4  O   UNL     1      43.925 -11.090   4.211  1.00  0.00    -0.247 OA
HETATM    5  H   UNL     1      43.512 -12.661   6.915  1.00  0.00     0.170 HD
HETATM    6  H   UNL     1      42.144 -13.361   5.422  1.00  0.00     0.164 HD
ENDROOT
BRANCH   1   7
HETATM    7  C   UNL     1      44.484 -10.853   7.112  1.00  0.00     0.039 A 
HETATM    8  C   UNL     1      43.773  -9.867   7.804  1.00  0.00     0.066 A 
HETATM    9  C   UNL     1      44.438  -8.908   8.575  1.00  0.00     0.070 A 
HETATM   10  C   UNL     1      45.830  -8.896   8.606  1.00  0.00     0.037 A 
HETATM   11  C   UNL     1      46.547  -9.861   7.896  1.00  0.00     0.005 A 
HETATM   12  C   UNL     1      45.877 -10.841   7.158  1.00  0.00     0.030 A 
BRANCH   9  13
HETATM   13  O   UNL     1      43.615  -8.041   9.239  1.00  0.00    -0.351 OA
BRANCH  13  14
HETATM   14  C   UNL     1      42.773  -8.606  10.246  1.00  0.00     0.179 C 
BRANCH  14  15
HETATM   15  C   UNL     1      43.626  -9.017  11.458  1.00  0.00     0.002 C 
HETATM   16  C   UNL     1      43.471 -10.510  11.760  1.00  0.00     0.011 C 
HETATM   17  C   UNL     1      43.273  -8.194  12.697  1.00  0.00     0.011 C 
ENDBRANCH  14  15
ENDBRANCH  13  14
ENDBRANCH   9  13
ENDBRANCH   1   7
BRANCH   3  18
HETATM   18  C   UNL     1      42.570 -13.395   3.353  1.00  0.00     0.164 C 
BRANCH  18  19
HETATM   19  C   UNL     1      42.904 -14.844   3.114  1.00  0.00    -0.023 A 
HETATM   20  C   UNL     1      43.022 -15.704   4.205  1.00  0.00     0.127 A 
HETATM   21  N   UNL     1      43.290 -17.027   4.113  1.00  0.00    -0.248 NA
HETATM   22  C   UNL     1      43.434 -17.521   2.868  1.00  0.00     0.125 A 
HETATM   23 CL   UNL     1      43.763 -19.203   2.796  1.00  0.00    -0.063 Cl
HETATM   24  C   UNL     1      43.329 -16.770   1.713  1.00  0.00     0.045 A 
HETATM   25  C   UNL     1      43.053 -15.411   1.842  1.00  0.00     0.013 A 
ENDBRANCH  18  19
ENDBRANCH   3  18
TORSDOF 6
ENDMDL
MODEL 2
REMARK VINA RESULT:      -7.5      3.942      9.441
REMARK  6 active torsions:
REMARK  status: ('A' for Active; 'I' for Inactive)
REMARK    1  A    between atoms: C_2  and  C_3 
REMARK    2  A    between atoms: C_3  and  O_4 
REMARK    3  A    between atoms: O_4  and  C_5 
REMARK    4  A    between atoms: C_7  and  N_8 
REMARK       I    between atoms: N_8  and  C_9 
REMARK       I    between atoms: C_9  and  N_10 
REMARK    5  A    between atoms: N_10  and  C_11 
REMARK    6  A    between atoms: C_11  and  C_12 
ROOT
HETATM    1  N   UNL     1      43.111 -12.488   6.679  1.00  0.00    -0.309 N 
HETATM    2  C   UNL     1      44.177 -11.889   7.313  1.00  0.00     0.320 C 
HETATM    3  N   UNL     1      43.787 -11.378   8.532  1.00  0.00    -0.339 N 
HETATM    4  O   UNL     1      45.307 -11.745   6.869  1.00  0.00    -0.247 OA
HETATM    5  H   UNL     1      42.209 -12.303   7.088  1.00  0.00     0.170 HD
HETATM    6  H   UNL     1      43.027 -11.834   9.012  1.00  0.00     0.164 HD
ENDROOT
BRANCH   1   7
HETATM    7  C   UNL     1      43.102 -13.066   5.394  1.00  0.00     0.039 A 
HETATM    8  C   UNL     1      43.075 -14.463   5.324  1.00  0.00     0.066 A 
HETATM    9  C   UNL     1      43.003 -15.121   4.092  1.00  0.00     0.070 A 
HETATM   10  C   UNL     1      43.020 -14.377   2.914  1.00  0.00     0.037 A 
HETATM   11  C   UNL     1      43.075 -12.984   2.975  1.00  0.00     0.005 A 
HETATM   12  C   UNL     1      43.108 -12.329   4.210  1.00  0.00     0.030 A 
BRANCH   9  13
HETATM   13  O   UNL     1      42.927 -16.483   4.176  1.00  0.00    -0.351 OA
BRANCH  13  14
HETATM   14  C   UNL     1      42.787 -17.192   2.944  1.00  0.00     0.179 C 
BRANCH  14  15
HETATM   15  C   UNL     1      43.824 -18.326   2.882  1.00  0.00     0.002 C 
HETATM   16  C   UNL     1      43.238 -19.573   2.216  1.00  0.00     0.011 C 
HETATM   17  C   UNL     1      44.355 -18.677   4.272  1.00  0.00     0.011 C 
ENDBRANCH  14  15
ENDBRANCH  13  14
ENDBRANCH   9  13
ENDBRANCH   1   7
BRANCH   3  18
HETATM   18  C   UNL     1      44.659 -10.528   9.316  1.00  0.00     0.164 C 
BRANCH  18  19
HETATM   19  C   UNL     1      43.992 -10.000  10.559  1.00  0.00    -0.023 A 
HETATM   20  C   UNL     1      43.483 -10.901  11.493  1.00  0.00     0.127 A 
HETATM   21  N   UNL     1      42.890 -10.547  12.656  1.00  0.00    -0.248 NA
HETATM   22  C   UNL     1      42.812  -9.226  12.908  1.00  0.00     0.125 A 
HETATM   23 CL   UNL     1      42.062  -8.821  14.396  1.00  0.00    -0.063 Cl
HETATM   24  C   UNL     1      43.289  -8.241  12.064  1.00  0.00     0.045 A 
HETATM   25  C   UNL     1      43.894  -8.639  10.874  1.00  0.00     0.013 A 
ENDBRANCH  18  19
ENDBRANCH   3  18
TORSDOF 6
ENDMDL
MODEL 3
REMARK VINA RESULT:      -7.4      5.739      8.318
REMARK  6 active torsions:
REMARK  status: ('A' for Active; 'I' for Inactive)
REMARK    1  A    between atoms: C_2  and  C_3 
REMARK    2  A    between atoms: C_3  and  O_4 
REMARK    3  A    between atoms: O_4  and  C_5 
REMARK    4  A    between atoms: C_7  and  N_8 
REMARK       I    between atoms: N_8  and  C_9 
REMARK       I    between atoms: C_9  and  N_10 
REMARK    5  A    between atoms: N_10  and  C_11 
REMARK    6  A    between atoms: C_11  and  C_12 
ROOT
HETATM    1  N   UNL     1      40.635 -15.104   4.853  1.00  0.00    -0.309 N 
HETATM    2  C   UNL     1      40.751 -13.899   4.197  1.00  0.00     0.320 C 
HETATM    3  N   UNL     1      39.612 -13.634   3.470  1.00  0.00    -0.339 N 
HETATM    4  O   UNL     1      41.731 -13.168   4.176  1.00  0.00    -0.247 OA
HETATM    5  H   UNL     1      39.857 -15.676   4.565  1.00  0.00     0.170 HD
HETATM    6  H   UNL     1      38.740 -14.012   3.807  1.00  0.00     0.164 HD
ENDROOT
BRANCH   1   7
HETATM    7  C   UNL     1      41.614 -15.741   5.642  1.00  0.00     0.039 A 
HETATM    8  C   UNL     1      42.334 -16.781   5.045  1.00  0.00     0.066 A 
HETATM    9  C   UNL     1      43.366 -17.429   5.731  1.00  0.00     0.070 A 
HETATM   10  C   UNL     1      43.642 -17.076   7.050  1.00  0.00     0.037 A 
HETATM   11  C   UNL     1      42.909 -16.056   7.661  1.00  0.00     0.005 A 
HETATM   12  C   UNL     1      41.905 -15.386   6.958  1.00  0.00     0.030 A 
BRANCH   9  13
HETATM   13  O   UNL     1      44.019 -18.387   5.006  1.00  0.00    -0.351 OA
BRANCH  13  14
HETATM   14  C   UNL     1      43.818 -18.364   3.592  1.00  0.00     0.179 C 
BRANCH  14  15
HETATM   15  C   UNL     1      44.003 -19.781   3.024  1.00  0.00     0.002 C 
HETATM   16  C   UNL     1      42.976 -20.074   1.928  1.00  0.00     0.011 C 
HETATM   17  C   UNL     1      43.912 -20.842   4.121  1.00  0.00     0.011 C 
ENDBRANCH  14  15
ENDBRANCH  13  14
ENDBRANCH   9  13
ENDBRANCH   1   7
BRANCH   3  18
HETATM   18  C   UNL     1      39.544 -12.531   2.534  1.00  0.00     0.164 C 
BRANCH  18  19
HETATM   19  C   UNL     1      39.408 -12.989   1.105  1.00  0.00    -0.023 A 
HETATM   20  C   UNL     1      38.760 -12.166   0.185  1.00  0.00     0.127 A 
HETATM   21  N   UNL     1      38.603 -12.457  -1.126  1.00  0.00    -0.248 NA
HETATM   22  C   UNL     1      39.131 -13.623  -1.546  1.00  0.00     0.125 A 
HETATM   23 CL   UNL     1      38.918 -13.948  -3.216  1.00  0.00    -0.063 Cl
HETATM   24  C   UNL     1      39.804 -14.513  -0.731  1.00  0.00     0.045 A 
HETATM   25  C   UNL     1      39.948 -14.184   0.615  1.00  0.00     0.013 A 
ENDBRANCH  18  19
ENDBRANCH   3  18
TORSDOF 6
ENDMDL
MODEL 4
REMARK VINA RESULT:      -7.3      3.742      9.428
REMARK  6 active torsions:
REMARK  status: ('A' for Active; 'I' for Inactive)
REMARK    1  A    between atoms: C_2  and  C_3 
REMARK    2  A    between atoms: C_3  and  O_4 
REMARK    3  A    between atoms: O_4  and  C_5 
REMARK    4  A    between atoms: C_7  and  N_8 
REMARK       I    between atoms: N_8  and  C_9 
REMARK       I    between atoms: C_9  and  N_10 
REMARK    5  A    between atoms: N_10  and  C_11 
REMARK    6  A    between atoms: C_11  and  C_12 
ROOT
HETATM    1  N   UNL     1      43.131 -13.969   5.653  1.00  0.00    -0.309 N 
HETATM    2  C   UNL     1      43.785 -12.770   5.477  1.00  0.00     0.320 C 
HETATM    3  N   UNL     1      44.352 -12.352   6.660  1.00  0.00    -0.339 N 
HETATM    4  O   UNL     1      43.825 -12.100   4.455  1.00  0.00    -0.247 OA
HETATM    5  H   UNL     1      43.003 -14.251   6.612  1.00  0.00     0.170 HD
HETATM    6  H   UNL     1      44.635 -13.059   7.322  1.00  0.00     0.164 HD
ENDROOT
BRANCH   1   7
HETATM    7  C   UNL     1      42.379 -14.676   4.693  1.00  0.00     0.039 A 
HETATM    8  C   UNL     1      42.977 -15.804   4.121  1.00  0.00     0.066 A 
HETATM    9  C   UNL     1      42.283 -16.601   3.206  1.00  0.00     0.070 A 
HETATM   10  C   UNL     1      40.999 -16.234   2.810  1.00  0.00     0.037 A 
HETATM   11  C   UNL     1      40.406 -15.094   3.356  1.00  0.00     0.005 A 
HETATM   12  C   UNL     1      41.089 -14.322   4.300  1.00  0.00     0.030 A 
BRANCH   9  13
HETATM   13  O   UNL     1      42.970 -17.701   2.772  1.00  0.00    -0.351 OA
BRANCH  13  14
HETATM   14  C   UNL     1      43.756 -18.388   3.748  1.00  0.00     0.179 C 
BRANCH  14  15
HETATM   15  C   UNL     1      44.072 -19.807   3.246  1.00  0.00     0.002 C 
HETATM   16  C   UNL     1      43.223 -20.160   2.023  1.00  0.00     0.011 C 
HETATM   17  C   UNL     1      43.863 -20.850   4.345  1.00  0.00     0.011 C 
ENDBRANCH  14  15
ENDBRANCH  13  14
ENDBRANCH   9  13
ENDBRANCH   1   7
BRANCH   3  18
HETATM   18  C   UNL     1      44.932 -11.032   6.804  1.00  0.00     0.164 C 
BRANCH  18  19
HETATM   19  C   UNL     1      44.660 -10.423   8.155  1.00  0.00    -0.023 A 
HETATM   20  C   UNL     1      43.350 -10.090   8.500  1.00  0.00     0.127 A 
HETATM   21  N   UNL     1      42.981  -9.566   9.691  1.00  0.00    -0.248 NA
HETATM   22  C   UNL     1      43.967  -9.375  10.590  1.00  0.00     0.125 A 
HETATM   23 CL   UNL     1      43.454  -8.717  12.089  1.00  0.00    -0.063 Cl
HETATM   24  C   UNL     1      45.297  -9.676  10.366  1.00  0.00     0.045 A 
HETATM   25  C   UNL     1      45.644 -10.214   9.129  1.00  0.00     0.013 A 
ENDBRANCH  18  19
ENDBRANCH   3  18
TORSDOF 6
ENDMDL
MODEL 5
REMARK VINA RESULT:      -7.1      6.976      9.744
REMARK  6 active torsions:
REMARK  status: ('A' for Active; 'I' for Inactive)
REMARK    1  A    between atoms: C_2  and  C_3 
REMARK    2  A    between atoms: C_3  and  O_4 
REMARK    3  A    between atoms: O_4  and  C_5 
REMARK    4  A    between atoms: C_7  and  N_8 
REMARK       I    between atoms: N_8  and  C_9 
REMARK       I    between atoms: C_9  and  N_10 
REMARK    5  A    between atoms: N_10  and  C_11 
REMARK    6  A    between atoms: C_11  and  C_12 
ROOT
HETATM    1  N   UNL     1      39.630 -15.278   1.180  1.00  0.00    -0.309 N 
HETATM    2  C   UNL     1      39.932 -14.561   0.044  1.00  0.00     0.320 C 
HETATM    3  N   UNL     1      39.053 -14.873  -0.970  1.00  0.00    -0.339 N 
HETATM    4  O   UNL     1      40.874 -13.798  -0.114  1.00  0.00    -0.247 OA
HETATM    5  H   UNL     1      38.971 -16.028   1.052  1.00  0.00     0.170 HD
HETATM    6  H   UNL     1      38.121 -15.161  -0.713  1.00  0.00     0.164 HD
ENDROOT
BRANCH   1   7
HETATM    7  C   UNL     1      40.339 -15.277   2.399  1.00  0.00     0.039 A 
HETATM    8  C   UNL     1      41.295 -16.282   2.581  1.00  0.00     0.066 A 
HETATM    9  C   UNL     1      42.087 -16.322   3.732  1.00  0.00     0.070 A 
HETATM   10  C   UNL     1      41.881 -15.384   4.741  1.00  0.00     0.037 A 
HETATM   11  C   UNL     1      40.910 -14.394   4.578  1.00  0.00     0.005 A 
HETATM   12  C   UNL     1      40.147 -14.335   3.409  1.00  0.00     0.030 A 
BRANCH   9  13
HETATM   13  O   UNL     1      43.016 -17.325   3.750  1.00  0.00    -0.351 OA
BRANCH  13  14
HETATM   14  C   UNL     1      43.228 -18.020   2.520  1.00  0.00     0.179 C 
BRANCH  14  15
HETATM   15  C   UNL     1      44.073 -19.279   2.779  1.00  0.00     0.002 C 
HETATM   16  C   UNL     1      43.576 -20.458   1.939  1.00  0.00     0.011 C 
HETATM   17  C   UNL     1      44.075 -19.657   4.260  1.00  0.00     0.011 C 
ENDBRANCH  14  15
ENDBRANCH  13  14
ENDBRANCH   9  13
ENDBRANCH   1   7
BRANCH   3  18
HETATM   18  C   UNL     1      39.259 -14.411  -2.327  1.00  0.00     0.164 C 
BRANCH  18  19
HETATM   19  C   UNL     1      38.668 -13.046  -2.572  1.00  0.00    -0.023 A 
HETATM   20  C   UNL     1      39.505 -12.003  -2.964  1.00  0.00     0.127 A 
HETATM   21  N   UNL     1      39.086 -10.746  -3.239  1.00  0.00    -0.248 NA
HETATM   22  C   UNL     1      37.762 -10.522  -3.130  1.00  0.00     0.125 A 
HETATM   23 CL   UNL     1      37.273  -8.919  -3.497  1.00  0.00    -0.063 Cl
HETATM   24  C   UNL     1      36.835 -11.479  -2.762  1.00  0.00     0.045 A 
HETATM   25  C   UNL     1      37.300 -12.762  -2.485  1.00  0.00     0.013 A 
ENDBRANCH  18  19
ENDBRANCH   3  18
TORSDOF 6
ENDMDL
MODEL 6
REMARK VINA RESULT:      -7.1      5.346      8.327
REMARK  6 active torsions:
REMARK  status: ('A' for Active; 'I' for Inactive)
REMARK    1  A    between atoms: C_2  and  C_3 
REMARK    2  A    between atoms: C_3  and  O_4 
REMARK    3  A    between atoms: O_4  and  C_5 
REMARK    4  A    between atoms: C_7  and  N_8 
REMARK       I    between atoms: N_8  and  C_9 
REMARK       I    between atoms: C_9  and  N_10 
REMARK    5  A    between atoms: N_10  and  C_11 
REMARK    6  A    between atoms: C_11  and  C_12 
ROOT
HETATM    1  N   UNL     1      42.294 -13.682   2.944  1.00  0.00    -0.309 N 
HETATM    2  C   UNL     1      40.969 -13.486   2.621  1.00  0.00     0.320 C 
HETATM    3  N   UNL     1      40.859 -12.701   1.495  1.00  0.00    -0.339 N 
HETATM    4  O   UNL     1      39.996 -13.874   3.252  1.00  0.00    -0.247 OA
HETATM    5  H   UNL     1      42.947 -13.093   2.452  1.00  0.00     0.170 HD
HETATM    6  H   UNL     1      41.607 -12.740   0.819  1.00  0.00     0.164 HD
ENDROOT
BRANCH   1   7
HETATM    7  C   UNL     1      42.803 -14.375   4.061  1.00  0.00     0.039 A 
HETATM    8  C   UNL     1      43.057 -15.741   3.901  1.00  0.00     0.066 A 
HETATM    9  C   UNL     1      43.620 -16.495   4.936  1.00  0.00     0.070 A 
HETATM   10  C   UNL     1      43.874 -15.892   6.165  1.00  0.00     0.037 A 
HETATM   11  C   UNL     1      43.598 -14.534   6.341  1.00  0.00     0.005 A 
HETATM   12  C   UNL     1      43.072 -13.776   5.291  1.00  0.00     0.030 A 
BRANCH   9  13
HETATM   13  O   UNL     1      43.864 -17.803   4.621  1.00  0.00    -0.351 OA
BRANCH  13  14
HETATM   14  C   UNL     1      43.603 -18.193   3.272  1.00  0.00     0.179 C 
BRANCH  14  15
HETATM   15  C   UNL     1      44.072 -19.642   3.056  1.00  0.00     0.002 C 
HETATM   16  C   UNL     1      43.273 -20.318   1.938  1.00  0.00     0.011 C 
HETATM   17  C   UNL     1      43.969 -20.463   4.341  1.00  0.00     0.011 C 
ENDBRANCH  14  15
ENDBRANCH  13  14
ENDBRANCH   9  13
ENDBRANCH   1   7
BRANCH   3  18
HETATM   18  C   UNL     1      39.583 -12.180   1.051  1.00  0.00     0.164 C 
BRANCH  18  19
HETATM   19  C   UNL     1      39.142 -12.769  -0.264  1.00  0.00    -0.023 A 
HETATM   20  C   UNL     1      39.732 -13.949  -0.714  1.00  0.00     0.127 A 
HETATM   21  N   UNL     1      39.399 -14.585  -1.860  1.00  0.00    -0.248 NA
HETATM   22  C   UNL     1      38.417 -14.022  -2.590  1.00  0.00     0.125 A 
HETATM   23 CL   UNL     1      38.019 -14.865  -4.030  1.00  0.00    -0.063 Cl
HETATM   24  C   UNL     1      37.751 -12.862  -2.242  1.00  0.00     0.045 A 
HETATM   25  C   UNL     1      38.119 -12.232  -1.055  1.00  0.00     0.013 A 
ENDBRANCH  18  19
ENDBRANCH   3  18
TORSDOF 6
ENDMDL
MODEL 7
REMARK VINA RESULT:      -6.8      3.984      9.157
REMARK  6 active torsions:
REMARK  status: ('A' for Active; 'I' for Inactive)
REMARK    1  A    between atoms: C_2  and  C_3 
REMARK    2  A    between atoms: C_3  and  O_4 
REMARK    3  A    between atoms: O_4  and  C_5 
REMARK    4  A    between atoms: C_7  and  N_8 
REMARK       I    between atoms: N_8  and  C_9 
REMARK       I    between atoms: C_9  and  N_10 
REMARK    5  A    between atoms: N_10  and  C_11 
REMARK    6  A    between atoms: C_11  and  C_12 
ROOT
HETATM    1  N   UNL     1      43.210 -13.588   7.119  1.00  0.00    -0.309 N 
HETATM    2  C   UNL     1      44.027 -12.486   7.238  1.00  0.00     0.320 C 
HETATM    3  N   UNL     1      43.490 -11.583   8.129  1.00  0.00    -0.339 N 
HETATM    4  O   UNL     1      45.053 -12.264   6.613  1.00  0.00    -0.247 OA
HETATM    5  H   UNL     1      42.294 -13.490   7.528  1.00  0.00     0.170 HD
HETATM    6  H   UNL     1      42.913 -11.943   8.874  1.00  0.00     0.164 HD
ENDROOT
BRANCH   1   7
HETATM    7  C   UNL     1      43.390 -14.691   6.260  1.00  0.00     0.039 A 
HETATM    8  C   UNL     1      42.721 -14.658   5.031  1.00  0.00     0.066 A 
HETATM    9  C   UNL     1      42.890 -15.679   4.092  1.00  0.00     0.070 A 
HETATM   10  C   UNL     1      43.688 -16.777   4.406  1.00  0.00     0.037 A 
HETATM   11  C   UNL     1      44.337 -16.831   5.641  1.00  0.00     0.005 A 
HETATM   12  C   UNL     1      44.195 -15.789   6.562  1.00  0.00     0.030 A 
BRANCH   9  13
HETATM   13  O   UNL     1      42.221 -15.488   2.915  1.00  0.00    -0.351 OA
BRANCH  13  14
HETATM   14  C   UNL     1      42.727 -14.468   2.052  1.00  0.00     0.179 C 
BRANCH  14  15
HETATM   15  C   UNL     1      41.562 -13.814   1.291  1.00  0.00     0.002 C 
HETATM   16  C   UNL     1      40.724 -12.933   2.220  1.00  0.00     0.011 C 
HETATM   17  C   UNL     1      40.672 -14.860   0.619  1.00  0.00     0.011 C 
ENDBRANCH  14  15
ENDBRANCH  13  14
ENDBRANCH   9  13
ENDBRANCH   1   7
BRANCH   3  18
HETATM   18  C   UNL     1      44.043 -10.255   8.294  1.00  0.00     0.164 C 
BRANCH  18  19
HETATM   19  C   UNL     1      43.690  -9.640   9.624  1.00  0.00    -0.023 A 
HETATM   20  C   UNL     1      43.613 -10.456  10.752  1.00  0.00     0.127 A 
HETATM   21  N   UNL     1      43.334 -10.015  12.000  1.00  0.00    -0.248 NA
HETATM   22  C   UNL     1      43.135  -8.689  12.133  1.00  0.00     0.125 A 
HETATM   23 CL   UNL     1      42.793  -8.171  13.732  1.00  0.00    -0.063 Cl
HETATM   24  C   UNL     1      43.196  -7.782  11.093  1.00  0.00     0.045 A 
HETATM   25  C   UNL     1      43.485  -8.269   9.820  1.00  0.00     0.013 A 
ENDBRANCH  18  19
ENDBRANCH   3  18
TORSDOF 6
ENDMDL
MODEL 8
REMARK VINA RESULT:      -6.8      4.223      9.462
REMARK  6 active torsions:
REMARK  status: ('A' for Active; 'I' for Inactive)
REMARK    1  A    between atoms: C_2  and  C_3 
REMARK    2  A    between atoms: C_3  and  O_4 
REMARK    3  A    between atoms: O_4  and  C_5 
REMARK    4  A    between atoms: C_7  and  N_8 
REMARK       I    between atoms: N_8  and  C_9 
REMARK       I    between atoms: C_9  and  N_10 
REMARK    5  A    between atoms: N_10  and  C_11 
REMARK    6  A    between atoms: C_11  and  C_12 
ROOT
HETATM    1  N   UNL     1      42.922 -11.509   7.076  1.00  0.00    -0.309 N 
HETATM    2  C   UNL     1      43.945 -11.302   7.976  1.00  0.00     0.320 C 
HETATM    3  N   UNL     1      43.453 -10.779   9.152  1.00  0.00    -0.339 N 
HETATM    4  O   UNL     1      45.139 -11.476   7.781  1.00  0.00    -0.247 OA
HETATM    5  H   UNL     1      42.041 -11.088   7.324  1.00  0.00     0.170 HD
HETATM    6  H   UNL     1      42.509 -11.016   9.414  1.00  0.00     0.164 HD
ENDROOT
BRANCH   1   7
HETATM    7  C   UNL     1      43.038 -11.971   5.750  1.00  0.00     0.039 A 
HETATM    8  C   UNL     1      42.985 -13.354   5.550  1.00  0.00     0.066 A 
HETATM    9  C   UNL     1      43.030 -13.898   4.262  1.00  0.00     0.070 A 
HETATM   10  C   UNL     1      43.192 -13.055   3.166  1.00  0.00     0.037 A 
HETATM   11  C   UNL     1      43.273 -11.675   3.360  1.00  0.00     0.005 A 
HETATM   12  C   UNL     1      43.189 -11.133   4.645  1.00  0.00     0.030 A 
BRANCH   9  13
HETATM   13  O   UNL     1      42.912 -15.259   4.214  1.00  0.00    -0.351 OA
BRANCH  13  14
HETATM   14  C   UNL     1      41.589 -15.781   4.079  1.00  0.00     0.179 C 
BRANCH  14  15
HETATM   15  C   UNL     1      41.466 -16.530   2.742  1.00  0.00     0.002 C 
HETATM   16  C   UNL     1      42.825 -17.067   2.285  1.00  0.00     0.011 C 
HETATM   17  C   UNL     1      40.862 -15.642   1.654  1.00  0.00     0.011 C 
ENDBRANCH  14  15
ENDBRANCH  13  14
ENDBRANCH   9  13
ENDBRANCH   1   7
BRANCH   3  18
HETATM   18  C   UNL     1      44.332 -10.286  10.192  1.00  0.00     0.164 C 
BRANCH  18  19
HETATM   19  C   UNL     1      43.581  -9.646  11.331  1.00  0.00    -0.023 A 
HETATM   20  C   UNL     1      43.459  -8.258  11.371  1.00  0.00     0.127 A 
HETATM   21  N   UNL     1      42.786  -7.574  12.324  1.00  0.00    -0.248 NA
HETATM   22  C   UNL     1      42.192  -8.313  13.281  1.00  0.00     0.125 A 
HETATM   23 CL   UNL     1      41.342  -7.408  14.464  1.00  0.00    -0.063 Cl
HETATM   24  C   UNL     1      42.234  -9.693  13.340  1.00  0.00     0.045 A 
HETATM   25  C   UNL     1      42.936 -10.367  12.343  1.00  0.00     0.013 A 
ENDBRANCH  18  19
ENDBRANCH   3  18
TORSDOF 6
ENDMDL
MODEL 9
REMARK VINA RESULT:      -6.7      6.026      8.635
REMARK  6 active torsions:
REMARK  status: ('A' for Active; 'I' for Inactive)
REMARK    1  A    between atoms: C_2  and  C_3 
REMARK    2  A    between atoms: C_3  and  O_4 
REMARK    3  A    between atoms: O_4  and  C_5 
REMARK    4  A    between atoms: C_7  and  N_8 
REMARK       I    between atoms: N_8  and  C_9 
REMARK       I    between atoms: C_9  and  N_10 
REMARK    5  A    between atoms: N_10  and  C_11 
REMARK    6  A    between atoms: C_11  and  C_12 
ROOT
HETATM    1  N   UNL     1      40.380 -15.109   2.969  1.00  0.00    -0.309 N 
HETATM    2  C   UNL     1      40.783 -14.598   1.755  1.00  0.00     0.320 C 
HETATM    3  N   UNL     1      39.809 -14.799   0.802  1.00  0.00    -0.339 N 
HETATM    4  O   UNL     1      41.865 -14.094   1.495  1.00  0.00    -0.247 OA
HETATM    5  H   UNL     1      39.562 -15.695   2.938  1.00  0.00     0.170 HD
HETATM    6  H   UNL     1      38.849 -14.836   1.110  1.00  0.00     0.164 HD
ENDROOT
BRANCH   1   7
HETATM    7  C   UNL     1      41.127 -15.149   4.164  1.00  0.00     0.039 A 
HETATM    8  C   UNL     1      42.156 -16.095   4.240  1.00  0.00     0.066 A 
HETATM    9  C   UNL     1      42.987 -16.165   5.363  1.00  0.00     0.070 A 
HETATM   10  C   UNL     1      42.750 -15.324   6.447  1.00  0.00     0.037 A 
HETATM   11  C   UNL     1      41.708 -14.396   6.389  1.00  0.00     0.005 A 
HETATM   12  C   UNL     1      40.904 -14.303   5.249  1.00  0.00     0.030 A 
BRANCH   9  13
HETATM   13  O   UNL     1      43.983 -17.098   5.277  1.00  0.00    -0.351 OA
BRANCH  13  14
HETATM   14  C   UNL     1      43.653 -18.423   5.697  1.00  0.00     0.179 C 
BRANCH  14  15
HETATM   15  C   UNL     1      44.336 -19.442   4.769  1.00  0.00     0.002 C 
HETATM   16  C   UNL     1      43.957 -19.194   3.307  1.00  0.00     0.011 C 
HETATM   17  C   UNL     1      43.992 -20.878   5.162  1.00  0.00     0.011 C 
ENDBRANCH  14  15
ENDBRANCH  13  14
ENDBRANCH   9  13
ENDBRANCH   1   7
BRANCH   3  18
HETATM   18  C   UNL     1      40.050 -14.535  -0.602  1.00  0.00     0.164 C 
BRANCH  18  19
HETATM   19  C   UNL     1      39.000 -13.645  -1.214  1.00  0.00    -0.023 A 
HETATM   20  C   UNL     1      38.775 -12.382  -0.668  1.00  0.00     0.127 A 
HETATM   21  N   UNL     1      37.882 -11.487  -1.148  1.00  0.00    -0.248 NA
HETATM   22  C   UNL     1      37.186 -11.864  -2.238  1.00  0.00     0.125 A 
HETATM   23 CL   UNL     1      36.073 -10.697  -2.819  1.00  0.00    -0.063 Cl
HETATM   24  C   UNL     1      37.331 -13.083  -2.873  1.00  0.00     0.045 A 
HETATM   25  C   UNL     1      38.258 -13.983  -2.352  1.00  0.00     0.013 A 
ENDBRANCH  18  19
ENDBRANCH   3  18
TORSDOF 6
ENDMDL
MODEL 10
REMARK VINA RESULT:      -6.7      6.435      9.651
REMARK  6 active torsions:
REMARK  status: ('A' for Active; 'I' for Inactive)
REMARK    1  A    between atoms: C_2  and  C_3 
REMARK    2  A    between atoms: C_3  and  O_4 
REMARK    3  A    between atoms: O_4  and  C_5 
REMARK    4  A    between atoms: C_7  and  N_8 
REMARK       I    between atoms: N_8  and  C_9 
REMARK       I    between atoms: C_9  and  N_10 
REMARK    5  A    between atoms: N_10  and  C_11 
REMARK    6  A    between atoms: C_11  and  C_12 
ROOT
HETATM    1  N   UNL     1      41.137 -13.985  -0.238  1.00  0.00    -0.309 N 
HETATM    2  C   UNL     1      41.232 -14.085   1.132  1.00  0.00     0.320 C 
HETATM    3  N   UNL     1      42.536 -14.319   1.509  1.00  0.00    -0.339 N 
HETATM    4  O   UNL     1      40.311 -14.050   1.935  1.00  0.00    -0.247 OA
HETATM    5  H   UNL     1      41.956 -14.276  -0.748  1.00  0.00     0.170 HD
HETATM    6  H   UNL     1      43.269 -13.959   0.916  1.00  0.00     0.164 HD
ENDROOT
BRANCH   1   7
HETATM    7  C   UNL     1      39.963 -13.812  -0.999  1.00  0.00     0.039 A 
HETATM    8  C   UNL     1      39.207 -12.661  -0.751  1.00  0.00     0.066 A 
HETATM    9  C   UNL     1      38.061 -12.378  -1.500  1.00  0.00     0.070 A 
HETATM   10  C   UNL     1      37.629 -13.284  -2.466  1.00  0.00     0.037 A 
HETATM   11  C   UNL     1      38.363 -14.448  -2.700  1.00  0.00     0.005 A 
HETATM   12  C   UNL     1      39.530 -14.709  -1.975  1.00  0.00     0.030 A 
BRANCH   9  13
HETATM   13  O   UNL     1      37.454 -11.193  -1.188  1.00  0.00    -0.351 OA
BRANCH  13  14
HETATM   14  C   UNL     1      37.178 -10.311  -2.277  1.00  0.00     0.179 C 
BRANCH  14  15
HETATM   15  C   UNL     1      38.497  -9.729  -2.814  1.00  0.00     0.002 C 
HETATM   16  C   UNL     1      38.937  -8.514  -1.993  1.00  0.00     0.011 C 
HETATM   17  C   UNL     1      38.383  -9.349  -4.290  1.00  0.00     0.011 C 
ENDBRANCH  14  15
ENDBRANCH  13  14
ENDBRANCH   9  13
ENDBRANCH   1   7
BRANCH   3  18
HETATM   18  C   UNL     1      42.886 -14.658   2.872  1.00  0.00     0.164 C 
BRANCH  18  19
HETATM   19  C   UNL     1      43.174 -16.127   3.049  1.00  0.00    -0.023 A 
HETATM   20  C   UNL     1      43.622 -16.589   4.286  1.00  0.00     0.127 A 
HETATM   21  N   UNL     1      43.885 -17.884   4.571  1.00  0.00    -0.248 NA
HETATM   22  C   UNL     1      43.678 -18.768   3.576  1.00  0.00     0.125 A 
HETATM   23 CL   UNL     1      44.014 -20.400   3.983  1.00  0.00    -0.063 Cl
HETATM   24  C   UNL     1      43.226 -18.431   2.314  1.00  0.00     0.045 A 
HETATM   25  C   UNL     1      42.965 -17.088   2.053  1.00  0.00     0.013 A 
ENDBRANCH  18  19
ENDBRANCH   3  18
TORSDOF 6
ENDMDL
