MODEL 1
REMARK VINA RESULT:      -8.5      0.000      0.000
REMARK  9 active torsions:
REMARK  status: ('A' for Active; 'I' for Inactive)
REMARK    1  A    between atoms: C_6  and  N_7 
REMARK    2  A    between atoms: N_7  and  C_8 
REMARK    3  A    between atoms: C_10  and  S_11 
REMARK    4  A    between atoms: S_11  and  C_12 
REMARK    5  A    between atoms: C_15  and  N_16 
REMARK       I    between atoms: N_16  and  C_17 
REMARK    6  A    between atoms: C_17  and  C_18 
REMARK    7  A    between atoms: C_25  and  N_26 
REMARK    8  A    between atoms: C_34  and  C_35 
REMARK    9  A    between atoms: C_35  and  O_36 
ROOT
HETATM    1  C   UNL     1      43.207 -14.512   6.256  1.00  0.00     0.152 A 
HETATM    2  N   UNL     1      44.128 -13.606   6.629  1.00  0.00    -0.204 NA
HETATM    3  C   UNL     1      44.030 -12.357   6.167  1.00  0.00     0.196 A 
HETATM    4  N   UNL     1      43.037 -11.926   5.378  1.00  0.00    -0.209 NA
HETATM    5  C   UNL     1      42.075 -12.804   5.032  1.00  0.00     0.128 A 
HETATM    6  C   UNL     1      42.139 -14.139   5.442  1.00  0.00     0.125 A 
ENDROOT
BRANCH   3   7
HETATM    7  S   UNL     1      45.345 -11.263   6.636  1.00  0.00    -0.050 SA
BRANCH   7   8
HETATM    8  C   UNL     1      44.769 -10.393   8.075  1.00  0.00     0.008 A 
HETATM    9  C   UNL     1      43.481  -9.862   8.181  1.00  0.00     0.021 A 
HETATM   10  C   UNL     1      43.059  -9.236   9.360  1.00  0.00     0.031 A 
HETATM   11  C   UNL     1      43.905  -9.171  10.468  1.00  0.00     0.034 A 
HETATM   12  C   UNL     1      45.180  -9.733  10.380  1.00  0.00     0.031 A 
HETATM   13  C   UNL     1      45.613 -10.327   9.190  1.00  0.00     0.021 A 
BRANCH  11  14
HETATM   14  N   UNL     1      43.521  -8.615  11.702  1.00  0.00    -0.327 N 
HETATM   15  C   UNL     1      42.674  -9.176  12.632  1.00  0.00     0.226 C 
HETATM   16  O   UNL     1      42.002 -10.189  12.490  1.00  0.00    -0.273 OA
HETATM   17  H   UNL     1      43.889  -7.697  11.913  1.00  0.00     0.169 HD
BRANCH  15  18
HETATM   18  C   UNL     1      42.592  -8.440  13.927  1.00  0.00     0.078 A 
HETATM   19  C   UNL     1      43.124  -7.048  14.172  1.00  0.00     0.015 A 
HETATM   20  C   UNL     1      41.646  -7.266  14.040  1.00  0.00     0.015 A 
ENDBRANCH  15  18
ENDBRANCH  11  14
ENDBRANCH   7   8
ENDBRANCH   3   7
BRANCH   1  21
HETATM   21  N   UNL     1      43.329 -15.822   6.755  1.00  0.00    -0.323 N 
HETATM   22  H   UNL     1      42.849 -15.976   7.635  1.00  0.00     0.169 HD
BRANCH  21  23
HETATM   23  C   UNL     1      43.678 -16.969   6.138  1.00  0.00     0.151 A 
HETATM   24  N   UNL     1      44.348 -16.969   4.984  1.00  0.00    -0.157 NA
HETATM   25  N   UNL     1      44.473 -18.270   4.674  1.00  0.00    -0.281 N 
HETATM   26  C   UNL     1      43.879 -19.109   5.572  1.00  0.00     0.027 A 
HETATM   27  H   UNL     1      44.969 -18.513   3.822  1.00  0.00     0.189 HD
HETATM   28  C   UNL     1      43.864 -20.578   5.411  1.00  0.00     0.070 C 
HETATM   29  C   UNL     1      43.355 -18.284   6.542  1.00  0.00     0.078 A 
ENDBRANCH  21  23
ENDBRANCH   1  21
BRANCH   5  30
HETATM   30  N   UNL     1      41.030 -12.304   4.238  1.00  0.00    -0.264 NA
HETATM   31  C   UNL     1      40.278 -11.176   4.818  1.00  0.00     0.125 C 
HETATM   32  C   UNL     1      38.940 -11.023   4.065  1.00  0.00     0.249 C 
HETATM   33  N   UNL     1      39.190 -10.822   2.569  1.00  0.00    -0.073 N 
HETATM   34  H   UNL     1      39.722  -9.949   2.460  1.00  0.00     0.279 HD
HETATM   35  C   UNL     1      37.905 -10.674   1.811  1.00  0.00     0.269 C 
HETATM   36  C   UNL     1      40.058 -11.948   1.997  1.00  0.00     0.249 C 
HETATM   37  C   UNL     1      41.362 -12.114   2.811  1.00  0.00     0.125 C 
ENDBRANCH   5  30
BRANCH   6  38
HETATM   38  C   UNL     1      41.151 -15.120   4.950  1.00  0.00     0.300 C 
HETATM   39  O   UNL     1      40.260 -15.605   5.629  1.00  0.00    -0.259 OA
BRANCH  38  40
HETATM   40  O   UNL     1      41.454 -15.465   3.676  1.00  0.00    -0.322 OA
HETATM   41  C   UNL     1      40.345 -15.741   2.812  1.00  0.00     0.213 C 
ENDBRANCH  38  40
ENDBRANCH   6  38
TORSDOF 9
ENDMDL
MODEL 2
REMARK VINA RESULT:      -8.4      1.533      1.677
REMARK  9 active torsions:
REMARK  status: ('A' for Active; 'I' for Inactive)
REMARK    1  A    between atoms: C_6  and  N_7 
REMARK    2  A    between atoms: N_7  and  C_8 
REMARK    3  A    between atoms: C_10  and  S_11 
REMARK    4  A    between atoms: S_11  and  C_12 
REMARK    5  A    between atoms: C_15  and  N_16 
REMARK       I    between atoms: N_16  and  C_17 
REMARK    6  A    between atoms: C_17  and  C_18 
REMARK    7  A    between atoms: C_25  and  N_26 
REMARK    8  A    between atoms: C_34  and  C_35 
REMARK    9  A    between atoms: C_35  and  O_36 
ROOT
HETATM    1  C   UNL     1      42.367 -13.621   5.493  1.00  0.00     0.152 A 
HETATM    2  N   UNL     1      43.426 -13.122   6.156  1.00  0.00    -0.204 NA
HETATM    3  C   UNL     1      43.866 -11.900   5.845  1.00  0.00     0.196 A 
HETATM    4  N   UNL     1      43.290 -11.107   4.933  1.00  0.00    -0.209 NA
HETATM    5  C   UNL     1      42.198 -11.566   4.291  1.00  0.00     0.128 A 
HETATM    6  C   UNL     1      41.710 -12.854   4.533  1.00  0.00     0.125 A 
ENDROOT
BRANCH   3   7
HETATM    7  S   UNL     1      45.324 -11.371   6.705  1.00  0.00    -0.050 SA
BRANCH   7   8
HETATM    8  C   UNL     1      44.754 -10.488   8.139  1.00  0.00     0.008 A 
HETATM    9  C   UNL     1      43.444 -10.022   8.278  1.00  0.00     0.021 A 
HETATM   10  C   UNL     1      43.033  -9.384   9.454  1.00  0.00     0.031 A 
HETATM   11  C   UNL     1      43.913  -9.240  10.527  1.00  0.00     0.034 A 
HETATM   12  C   UNL     1      45.212  -9.737  10.407  1.00  0.00     0.031 A 
HETATM   13  C   UNL     1      45.633 -10.344   9.219  1.00  0.00     0.021 A 
BRANCH  11  14
HETATM   14  N   UNL     1      43.545  -8.668  11.759  1.00  0.00    -0.327 N 
HETATM   15  C   UNL     1      42.634  -9.169  12.662  1.00  0.00     0.226 C 
HETATM   16  O   UNL     1      41.887 -10.124  12.493  1.00  0.00    -0.273 OA
HETATM   17  H   UNL     1      43.979  -7.784  11.988  1.00  0.00     0.169 HD
BRANCH  15  18
HETATM   18  C   UNL     1      42.579  -8.441  13.963  1.00  0.00     0.078 A 
HETATM   19  C   UNL     1      43.127  -7.055  14.209  1.00  0.00     0.015 A 
HETATM   20  C   UNL     1      41.645  -7.259  14.099  1.00  0.00     0.015 A 
ENDBRANCH  15  18
ENDBRANCH  11  14
ENDBRANCH   7   8
ENDBRANCH   3   7
BRANCH   1  21
HETATM   21  N   UNL     1      41.920 -14.909   5.838  1.00  0.00    -0.323 N 
HETATM   22  H   UNL     1      40.913 -14.991   5.916  1.00  0.00     0.169 HD
BRANCH  21  23
HETATM   23  C   UNL     1      42.541 -16.104   5.765  1.00  0.00     0.151 A 
HETATM   24  N   UNL     1      42.703 -16.878   6.840  1.00  0.00    -0.157 NA
HETATM   25  N   UNL     1      43.383 -17.942   6.383  1.00  0.00    -0.281 N 
HETATM   26  C   UNL     1      43.693 -17.868   5.056  1.00  0.00     0.027 A 
HETATM   27  H   UNL     1      43.613 -18.681   7.041  1.00  0.00     0.189 HD
HETATM   28  C   UNL     1      44.468 -18.911   4.353  1.00  0.00     0.070 C 
HETATM   29  C   UNL     1      43.150 -16.677   4.626  1.00  0.00     0.078 A 
ENDBRANCH  21  23
ENDBRANCH   1  21
BRANCH   5  30
HETATM   30  N   UNL     1      41.600 -10.690   3.370  1.00  0.00    -0.264 NA
HETATM   31  C   UNL     1      41.409  -9.307   3.845  1.00  0.00     0.125 C 
HETATM   32  C   UNL     1      40.387  -8.598   2.933  1.00  0.00     0.249 C 
HETATM   33  N   UNL     1      40.857  -8.632   1.477  1.00  0.00    -0.073 N 
HETATM   34  H   UNL     1      41.745  -8.116   1.428  1.00  0.00     0.279 HD
HETATM   35  C   UNL     1      39.880  -7.953   0.566  1.00  0.00     0.269 C 
HETATM   36  C   UNL     1      41.151 -10.067   1.025  1.00  0.00     0.249 C 
HETATM   37  C   UNL     1      42.130 -10.767   1.994  1.00  0.00     0.125 C 
ENDBRANCH   5  30
BRANCH   6  38
HETATM   38  C   UNL     1      40.594 -13.393   3.732  1.00  0.00     0.300 C 
HETATM   39  O   UNL     1      39.424 -13.076   3.873  1.00  0.00    -0.259 OA
BRANCH  38  40
HETATM   40  O   UNL     1      41.059 -14.357   2.902  1.00  0.00    -0.322 OA
HETATM   41  C   UNL     1      40.121 -15.367   2.512  1.00  0.00     0.213 C 
ENDBRANCH  38  40
ENDBRANCH   6  38
TORSDOF 9
ENDMDL
MODEL 3
REMARK VINA RESULT:      -8.2      2.618      4.636
REMARK  9 active torsions:
REMARK  status: ('A' for Active; 'I' for Inactive)
REMARK    1  A    between atoms: C_6  and  N_7 
REMARK    2  A    between atoms: N_7  and  C_8 
REMARK    3  A    between atoms: C_10  and  S_11 
REMARK    4  A    between atoms: S_11  and  C_12 
REMARK    5  A    between atoms: C_15  and  N_16 
REMARK       I    between atoms: N_16  and  C_17 
REMARK    6  A    between atoms: C_17  and  C_18 
REMARK    7  A    between atoms: C_25  and  N_26 
REMARK    8  A    between atoms: C_34  and  C_35 
REMARK    9  A    between atoms: C_35  and  O_36 
ROOT
HETATM    1  C   UNL     1      41.925 -12.258   5.705  1.00  0.00     0.152 A 
HETATM    2  N   UNL     1      40.969 -11.451   6.200  1.00  0.00    -0.204 NA
HETATM    3  C   UNL     1      39.928 -11.134   5.427  1.00  0.00     0.196 A 
HETATM    4  N   UNL     1      39.744 -11.606   4.187  1.00  0.00    -0.209 NA
HETATM    5  C   UNL     1      40.664 -12.455   3.689  1.00  0.00     0.128 A 
HETATM    6  C   UNL     1      41.803 -12.795   4.425  1.00  0.00     0.125 A 
ENDROOT
BRANCH   3   7
HETATM    7  S   UNL     1      38.773  -9.989   6.133  1.00  0.00    -0.050 SA
BRANCH   7   8
HETATM    8  C   UNL     1      39.475  -9.477   7.684  1.00  0.00     0.008 A 
HETATM    9  C   UNL     1      39.050  -9.978   8.917  1.00  0.00     0.021 A 
HETATM   10  C   UNL     1      39.678  -9.584  10.105  1.00  0.00     0.031 A 
HETATM   11  C   UNL     1      40.770  -8.717  10.074  1.00  0.00     0.034 A 
HETATM   12  C   UNL     1      41.223  -8.242   8.841  1.00  0.00     0.031 A 
HETATM   13  C   UNL     1      40.573  -8.609   7.658  1.00  0.00     0.021 A 
BRANCH  11  14
HETATM   14  N   UNL     1      41.486  -8.333  11.223  1.00  0.00    -0.327 N 
HETATM   15  C   UNL     1      42.523  -9.018  11.815  1.00  0.00     0.226 C 
HETATM   16  O   UNL     1      42.913 -10.143  11.530  1.00  0.00    -0.273 OA
HETATM   17  H   UNL     1      41.189  -7.476  11.669  1.00  0.00     0.169 HD
BRANCH  15  18
HETATM   18  C   UNL     1      43.210  -8.283  12.917  1.00  0.00     0.078 A 
HETATM   19  C   UNL     1      42.832  -6.907  13.412  1.00  0.00     0.015 A 
HETATM   20  C   UNL     1      42.493  -8.112  14.238  1.00  0.00     0.015 A 
ENDBRANCH  15  18
ENDBRANCH  11  14
ENDBRANCH   7   8
ENDBRANCH   3   7
BRANCH   1  21
HETATM   21  N   UNL     1      43.012 -12.580   6.538  1.00  0.00    -0.323 N 
HETATM   22  H   UNL     1      43.259 -13.563   6.536  1.00  0.00     0.169 HD
BRANCH  21  23
HETATM   23  C   UNL     1      43.974 -11.799   7.070  1.00  0.00     0.151 A 
HETATM   24  N   UNL     1      45.229 -11.822   6.616  1.00  0.00    -0.157 NA
HETATM   25  N   UNL     1      45.883 -10.954   7.406  1.00  0.00    -0.281 N 
HETATM   26  C   UNL     1      45.101 -10.394   8.374  1.00  0.00     0.027 A 
HETATM   27  H   UNL     1      46.872 -10.801   7.232  1.00  0.00     0.189 HD
HETATM   28  C   UNL     1      45.621  -9.439   9.374  1.00  0.00     0.070 C 
HETATM   29  C   UNL     1      43.846 -10.926   8.174  1.00  0.00     0.078 A 
ENDBRANCH  21  23
ENDBRANCH   1  21
BRANCH   5  30
HETATM   30  N   UNL     1      40.416 -12.960   2.402  1.00  0.00    -0.264 NA
HETATM   31  C   UNL     1      39.818 -14.307   2.354  1.00  0.00     0.125 C 
HETATM   32  C   UNL     1      40.000 -14.888   0.937  1.00  0.00     0.249 C 
HETATM   33  N   UNL     1      39.375 -13.959  -0.106  1.00  0.00    -0.073 N 
HETATM   34  H   UNL     1      38.368 -13.906   0.093  1.00  0.00     0.279 HD
HETATM   35  C   UNL     1      39.541 -14.498  -1.494  1.00  0.00     0.269 C 
HETATM   36  C   UNL     1      39.930 -12.536   0.019  1.00  0.00     0.249 C 
HETATM   37  C   UNL     1      39.786 -12.007   1.464  1.00  0.00     0.125 C 
ENDBRANCH   5  30
BRANCH   6  38
HETATM   38  C   UNL     1      42.866 -13.622   3.820  1.00  0.00     0.300 C 
HETATM   39  O   UNL     1      43.559 -13.278   2.878  1.00  0.00    -0.259 OA
BRANCH  38  40
HETATM   40  O   UNL     1      42.875 -14.843   4.406  1.00  0.00    -0.322 OA
HETATM   41  C   UNL     1      43.012 -15.968   3.530  1.00  0.00     0.213 C 
ENDBRANCH  38  40
ENDBRANCH   6  38
TORSDOF 9
ENDMDL
MODEL 4
REMARK VINA RESULT:      -8.0      3.869      8.306
REMARK  9 active torsions:
REMARK  status: ('A' for Active; 'I' for Inactive)
REMARK    1  A    between atoms: C_6  and  N_7 
REMARK    2  A    between atoms: N_7  and  C_8 
REMARK    3  A    between atoms: C_10  and  S_11 
REMARK    4  A    between atoms: S_11  and  C_12 
REMARK    5  A    between atoms: C_15  and  N_16 
REMARK       I    between atoms: N_16  and  C_17 
REMARK    6  A    between atoms: C_17  and  C_18 
REMARK    7  A    between atoms: C_25  and  N_26 
REMARK    8  A    between atoms: C_34  and  C_35 
REMARK    9  A    between atoms: C_35  and  O_36 
ROOT
HETATM    1  C   UNL     1      42.494 -15.097   4.028  1.00  0.00     0.152 A 
HETATM    2  N   UNL     1      41.863 -15.138   2.840  1.00  0.00    -0.204 NA
HETATM    3  C   UNL     1      40.894 -14.253   2.593  1.00  0.00     0.196 A 
HETATM    4  N   UNL     1      40.531 -13.283   3.442  1.00  0.00    -0.209 NA
HETATM    5  C   UNL     1      41.183 -13.191   4.616  1.00  0.00     0.128 A 
HETATM    6  C   UNL     1      42.177 -14.112   4.962  1.00  0.00     0.125 A 
ENDROOT
BRANCH   3   7
HETATM    7  S   UNL     1      40.057 -14.452   1.042  1.00  0.00    -0.050 SA
BRANCH   7   8
HETATM    8  C   UNL     1      40.150 -12.873   0.228  1.00  0.00     0.008 A 
HETATM    9  C   UNL     1      39.571 -11.712   0.747  1.00  0.00     0.021 A 
HETATM   10  C   UNL     1      39.726 -10.483   0.095  1.00  0.00     0.031 A 
HETATM   11  C   UNL     1      40.498 -10.388  -1.063  1.00  0.00     0.034 A 
HETATM   12  C   UNL     1      41.110 -11.539  -1.565  1.00  0.00     0.031 A 
HETATM   13  C   UNL     1      40.927 -12.773  -0.932  1.00  0.00     0.021 A 
BRANCH  11  14
HETATM   14  N   UNL     1      40.746  -9.174  -1.731  1.00  0.00    -0.327 N 
HETATM   15  C   UNL     1      41.918  -8.451  -1.717  1.00  0.00     0.226 C 
HETATM   16  O   UNL     1      42.899  -8.662  -1.017  1.00  0.00    -0.273 OA
HETATM   17  H   UNL     1      39.974  -8.785  -2.253  1.00  0.00     0.169 HD
BRANCH  15  18
HETATM   18  C   UNL     1      41.950  -7.296  -2.661  1.00  0.00     0.078 A 
HETATM   19  C   UNL     1      43.176  -6.480  -2.997  1.00  0.00     0.015 A 
HETATM   20  C   UNL     1      42.640  -7.463  -3.996  1.00  0.00     0.015 A 
ENDBRANCH  15  18
ENDBRANCH  11  14
ENDBRANCH   7   8
ENDBRANCH   3   7
BRANCH   1  21
HETATM   21  N   UNL     1      43.512 -16.037   4.267  1.00  0.00    -0.323 N 
HETATM   22  H   UNL     1      44.160 -15.770   5.000  1.00  0.00     0.169 HD
BRANCH  21  23
HETATM   23  C   UNL     1      43.596 -17.343   3.942  1.00  0.00     0.151 A 
HETATM   24  N   UNL     1      43.960 -18.267   4.834  1.00  0.00    -0.157 NA
HETATM   25  N   UNL     1      43.963 -19.416   4.139  1.00  0.00    -0.281 N 
HETATM   26  C   UNL     1      43.644 -19.262   2.821  1.00  0.00     0.027 A 
HETATM   27  H   UNL     1      44.205 -20.271   4.630  1.00  0.00     0.189 HD
HETATM   28  C   UNL     1      43.620 -20.388   1.863  1.00  0.00     0.070 C 
HETATM   29  C   UNL     1      43.396 -17.916   2.666  1.00  0.00     0.078 A 
ENDBRANCH  21  23
ENDBRANCH   1  21
BRANCH   5  30
HETATM   30  N   UNL     1      40.801 -12.137   5.462  1.00  0.00    -0.264 NA
HETATM   31  C   UNL     1      41.518 -10.865   5.253  1.00  0.00     0.125 C 
HETATM   32  C   UNL     1      41.316  -9.964   6.489  1.00  0.00     0.249 C 
HETATM   33  N   UNL     1      39.824  -9.733   6.742  1.00  0.00    -0.073 N 
HETATM   34  H   UNL     1      39.445  -9.244   5.921  1.00  0.00     0.279 HD
HETATM   35  C   UNL     1      39.598  -8.862   7.941  1.00  0.00     0.269 C 
HETATM   36  C   UNL     1      39.070 -11.062   6.856  1.00  0.00     0.249 C 
HETATM   37  C   UNL     1      39.343 -11.964   5.632  1.00  0.00     0.125 C 
ENDBRANCH   5  30
BRANCH   6  38
HETATM   38  C   UNL     1      42.794 -14.080   6.303  1.00  0.00     0.300 C 
HETATM   39  O   UNL     1      43.756 -13.394   6.605  1.00  0.00    -0.259 OA
BRANCH  38  40
HETATM   40  O   UNL     1      42.191 -14.996   7.098  1.00  0.00    -0.322 OA
HETATM   41  C   UNL     1      43.053 -15.776   7.935  1.00  0.00     0.213 C 
ENDBRANCH  38  40
ENDBRANCH   6  38
TORSDOF 9
ENDMDL
MODEL 5
REMARK VINA RESULT:      -7.9      3.872      8.813
REMARK  9 active torsions:
REMARK  status: ('A' for Active; 'I' for Inactive)
REMARK    1  A    between atoms: C_6  and  N_7 
REMARK    2  A    between atoms: N_7  and  C_8 
REMARK    3  A    between atoms: C_10  and  S_11 
REMARK    4  A    between atoms: S_11  and  C_12 
REMARK    5  A    between atoms: C_15  and  N_16 
REMARK       I    between atoms: N_16  and  C_17 
REMARK    6  A    between atoms: C_17  and  C_18 
REMARK    7  A    between atoms: C_25  and  N_26 
REMARK    8  A    between atoms: C_34  and  C_35 
REMARK    9  A    between atoms: C_35  and  O_36 
ROOT
HETATM    1  C   UNL     1      42.549 -15.337   4.258  1.00  0.00     0.152 A 
HETATM    2  N   UNL     1      41.799 -15.655   3.187  1.00  0.00    -0.204 NA
HETATM    3  C   UNL     1      40.760 -14.878   2.872  1.00  0.00     0.196 A 
HETATM    4  N   UNL     1      40.433 -13.760   3.534  1.00  0.00    -0.209 NA
HETATM    5  C   UNL     1      41.199 -13.395   4.580  1.00  0.00     0.128 A 
HETATM    6  C   UNL     1      42.276 -14.185   4.994  1.00  0.00     0.125 A 
ENDROOT
BRANCH   3   7
HETATM    7  S   UNL     1      39.776 -15.435   1.506  1.00  0.00    -0.050 SA
BRANCH   7   8
HETATM    8  C   UNL     1      40.173 -14.360   0.146  1.00  0.00     0.008 A 
HETATM    9  C   UNL     1      39.783 -14.619  -1.171  1.00  0.00     0.021 A 
HETATM   10  C   UNL     1      40.071 -13.710  -2.195  1.00  0.00     0.031 A 
HETATM   11  C   UNL     1      40.716 -12.506  -1.911  1.00  0.00     0.034 A 
HETATM   12  C   UNL     1      41.076 -12.225  -0.591  1.00  0.00     0.031 A 
HETATM   13  C   UNL     1      40.818 -13.150   0.426  1.00  0.00     0.021 A 
BRANCH  11  14
HETATM   14  N   UNL     1      40.978 -11.521  -2.881  1.00  0.00    -0.327 N 
HETATM   15  C   UNL     1      40.212 -10.410  -3.156  1.00  0.00     0.226 C 
HETATM   16  O   UNL     1      39.103 -10.156  -2.703  1.00  0.00    -0.273 OA
HETATM   17  H   UNL     1      41.802 -11.660  -3.449  1.00  0.00     0.169 HD
BRANCH  15  18
HETATM   18  C   UNL     1      40.828  -9.447  -4.114  1.00  0.00     0.078 A 
HETATM   19  C   UNL     1      40.337  -8.042  -4.374  1.00  0.00     0.015 A 
HETATM   20  C   UNL     1      41.584  -8.256  -3.568  1.00  0.00     0.015 A 
ENDBRANCH  15  18
ENDBRANCH  11  14
ENDBRANCH   7   8
ENDBRANCH   3   7
BRANCH   1  21
HETATM   21  N   UNL     1      43.640 -16.168   4.570  1.00  0.00    -0.323 N 
HETATM   22  H   UNL     1      44.511 -15.671   4.720  1.00  0.00     0.169 HD
BRANCH  21  23
HETATM   23  C   UNL     1      43.676 -17.438   5.021  1.00  0.00     0.151 A 
HETATM   24  N   UNL     1      43.284 -17.756   6.256  1.00  0.00    -0.157 NA
HETATM   25  N   UNL     1      43.499 -19.079   6.343  1.00  0.00    -0.281 N 
HETATM   26  C   UNL     1      44.045 -19.622   5.216  1.00  0.00     0.027 A 
HETATM   27  H   UNL     1      43.258 -19.547   7.211  1.00  0.00     0.189 HD
HETATM   28  C   UNL     1      44.397 -21.052   5.103  1.00  0.00     0.070 C 
HETATM   29  C   UNL     1      44.168 -18.571   4.334  1.00  0.00     0.078 A 
ENDBRANCH  21  23
ENDBRANCH   1  21
BRANCH   5  30
HETATM   30  N   UNL     1      40.848 -12.197   5.223  1.00  0.00    -0.264 NA
HETATM   31  C   UNL     1      41.206 -10.962   4.501  1.00  0.00     0.125 C 
HETATM   32  C   UNL     1      41.159  -9.773   5.483  1.00  0.00     0.249 C 
HETATM   33  N   UNL     1      39.775  -9.666   6.126  1.00  0.00    -0.073 N 
HETATM   34  H   UNL     1      39.098  -9.488   5.373  1.00  0.00     0.279 HD
HETATM   35  C   UNL     1      39.702  -8.520   7.089  1.00  0.00     0.269 C 
HETATM   36  C   UNL     1      39.369 -10.988   6.786  1.00  0.00     0.249 C 
HETATM   37  C   UNL     1      39.485 -12.166   5.793  1.00  0.00     0.125 C 
ENDBRANCH   5  30
BRANCH   6  38
HETATM   38  C   UNL     1      43.028 -13.843   6.217  1.00  0.00     0.300 C 
HETATM   39  O   UNL     1      42.870 -14.382   7.300  1.00  0.00    -0.259 OA
BRANCH  38  40
HETATM   40  O   UNL     1      43.834 -12.783   5.969  1.00  0.00    -0.322 OA
HETATM   41  C   UNL     1      44.096 -11.912   7.075  1.00  0.00     0.213 C 
ENDBRANCH  38  40
ENDBRANCH   6  38
TORSDOF 9
ENDMDL
MODEL 6
REMARK VINA RESULT:      -7.8      2.725      5.913
REMARK  9 active torsions:
REMARK  status: ('A' for Active; 'I' for Inactive)
REMARK    1  A    between atoms: C_6  and  N_7 
REMARK    2  A    between atoms: N_7  and  C_8 
REMARK    3  A    between atoms: C_10  and  S_11 
REMARK    4  A    between atoms: S_11  and  C_12 
REMARK    5  A    between atoms: C_15  and  N_16 
REMARK       I    between atoms: N_16  and  C_17 
REMARK    6  A    between atoms: C_17  and  C_18 
REMARK    7  A    between atoms: C_25  and  N_26 
REMARK    8  A    between atoms: C_34  and  C_35 
REMARK    9  A    between atoms: C_35  and  O_36 
ROOT
HETATM    1  C   UNL     1      40.969 -10.476   6.831  1.00  0.00     0.152 A 
HETATM    2  N   UNL     1      42.097 -10.055   7.430  1.00  0.00    -0.204 NA
HETATM    3  C   UNL     1      43.248 -10.670   7.146  1.00  0.00     0.196 A 
HETATM    4  N   UNL     1      43.365 -11.666   6.257  1.00  0.00    -0.209 NA
HETATM    5  C   UNL     1      42.256 -12.071   5.609  1.00  0.00     0.128 A 
HETATM    6  C   UNL     1      41.010 -11.503   5.890  1.00  0.00     0.125 A 
ENDROOT
BRANCH   3   7
HETATM    7  S   UNL     1      44.661 -10.107   8.058  1.00  0.00    -0.050 SA
BRANCH   7   8
HETATM    8  C   UNL     1      44.050  -9.613   9.653  1.00  0.00     0.008 A 
HETATM    9  C   UNL     1      43.656  -8.305   9.947  1.00  0.00     0.021 A 
HETATM   10  C   UNL     1      43.127  -7.983  11.203  1.00  0.00     0.031 A 
HETATM   11  C   UNL     1      42.942  -8.973  12.168  1.00  0.00     0.034 A 
HETATM   12  C   UNL     1      43.300 -10.288  11.866  1.00  0.00     0.031 A 
HETATM   13  C   UNL     1      43.860 -10.603  10.624  1.00  0.00     0.021 A 
BRANCH  11  14
HETATM   14  N   UNL     1      42.357  -8.729  13.424  1.00  0.00    -0.327 N 
HETATM   15  C   UNL     1      42.701  -7.736  14.315  1.00  0.00     0.226 C 
HETATM   16  O   UNL     1      43.661  -6.981  14.233  1.00  0.00    -0.273 OA
HETATM   17  H   UNL     1      41.625  -9.365  13.708  1.00  0.00     0.169 HD
BRANCH  15  18
HETATM   18  C   UNL     1      41.789  -7.607  15.489  1.00  0.00     0.078 A 
HETATM   19  C   UNL     1      41.721  -6.412  16.411  1.00  0.00     0.015 A 
HETATM   20  C   UNL     1      40.628  -6.642  15.409  1.00  0.00     0.015 A 
ENDBRANCH  15  18
ENDBRANCH  11  14
ENDBRANCH   7   8
ENDBRANCH   3   7
BRANCH   1  21
HETATM   21  N   UNL     1      39.768  -9.813   7.145  1.00  0.00    -0.323 N 
HETATM   22  H   UNL     1      38.995 -10.044   6.532  1.00  0.00     0.169 HD
BRANCH  21  23
HETATM   23  C   UNL     1      39.375  -9.196   8.277  1.00  0.00     0.151 A 
HETATM   24  N   UNL     1      38.794  -9.864   9.276  1.00  0.00    -0.157 NA
HETATM   25  N   UNL     1      38.520  -8.920  10.192  1.00  0.00    -0.281 N 
HETATM   26  C   UNL     1      38.876  -7.660   9.806  1.00  0.00     0.027 A 
HETATM   27  H   UNL     1      38.075  -9.209  11.057  1.00  0.00     0.189 HD
HETATM   28  C   UNL     1      38.636  -6.466  10.642  1.00  0.00     0.070 C 
HETATM   29  C   UNL     1      39.442  -7.813   8.559  1.00  0.00     0.078 A 
ENDBRANCH  21  23
ENDBRANCH   1  21
BRANCH   5  30
HETATM   30  N   UNL     1      42.427 -13.090   4.657  1.00  0.00    -0.264 NA
HETATM   31  C   UNL     1      43.095 -12.682   3.407  1.00  0.00     0.125 C 
HETATM   32  C   UNL     1      42.831 -13.750   2.325  1.00  0.00     0.249 C 
HETATM   33  N   UNL     1      43.315 -15.122   2.799  1.00  0.00    -0.073 N 
HETATM   34  H   UNL     1      44.331 -15.056   2.946  1.00  0.00     0.279 HD
HETATM   35  C   UNL     1      43.068 -16.180   1.768  1.00  0.00     0.269 C 
HETATM   36  C   UNL     1      42.693 -15.491   4.150  1.00  0.00     0.249 C 
HETATM   37  C   UNL     1      42.923 -14.374   5.193  1.00  0.00     0.125 C 
ENDBRANCH   5  30
BRANCH   6  38
HETATM   38  C   UNL     1      39.784 -12.043   5.269  1.00  0.00     0.300 C 
HETATM   39  O   UNL     1      39.171 -13.015   5.677  1.00  0.00    -0.259 OA
BRANCH  38  40
HETATM   40  O   UNL     1      39.516 -11.356   4.133  1.00  0.00    -0.322 OA
HETATM   41  C   UNL     1      39.283 -12.139   2.956  1.00  0.00     0.213 C 
ENDBRANCH  38  40
ENDBRANCH   6  38
TORSDOF 9
ENDMDL
MODEL 7
REMARK VINA RESULT:      -7.6      2.584      5.740
REMARK  9 active torsions:
REMARK  status: ('A' for Active; 'I' for Inactive)
REMARK    1  A    between atoms: C_6  and  N_7 
REMARK    2  A    between atoms: N_7  and  C_8 
REMARK    3  A    between atoms: C_10  and  S_11 
REMARK    4  A    between atoms: S_11  and  C_12 
REMARK    5  A    between atoms: C_15  and  N_16 
REMARK       I    between atoms: N_16  and  C_17 
REMARK    6  A    between atoms: C_17  and  C_18 
REMARK    7  A    between atoms: C_25  and  N_26 
REMARK    8  A    between atoms: C_34  and  C_35 
REMARK    9  A    between atoms: C_35  and  O_36 
ROOT
HETATM    1  C   UNL     1      40.858 -11.857   2.068  1.00  0.00     0.152 A 
HETATM    2  N   UNL     1      40.366 -10.728   2.611  1.00  0.00    -0.204 NA
HETATM    3  C   UNL     1      40.343 -10.607   3.941  1.00  0.00     0.196 A 
HETATM    4  N   UNL     1      40.823 -11.530   4.785  1.00  0.00    -0.209 NA
HETATM    5  C   UNL     1      41.365 -12.647   4.263  1.00  0.00     0.128 A 
HETATM    6  C   UNL     1      41.382 -12.860   2.881  1.00  0.00     0.125 A 
ENDROOT
BRANCH   3   7
HETATM    7  S   UNL     1      39.587  -9.128   4.560  1.00  0.00    -0.050 SA
BRANCH   7   8
HETATM    8  C   UNL     1      40.170  -8.941   6.230  1.00  0.00     0.008 A 
HETATM    9  C   UNL     1      39.477  -9.432   7.340  1.00  0.00     0.021 A 
HETATM   10  C   UNL     1      40.010  -9.309   8.628  1.00  0.00     0.031 A 
HETATM   11  C   UNL     1      41.265  -8.732   8.822  1.00  0.00     0.034 A 
HETATM   12  C   UNL     1      41.979  -8.274   7.713  1.00  0.00     0.031 A 
HETATM   13  C   UNL     1      41.430  -8.366   6.429  1.00  0.00     0.021 A 
BRANCH  11  14
HETATM   14  N   UNL     1      41.887  -8.637  10.081  1.00  0.00    -0.327 N 
HETATM   15  C   UNL     1      42.898  -9.437  10.565  1.00  0.00     0.226 C 
HETATM   16  O   UNL     1      43.338 -10.453  10.043  1.00  0.00    -0.273 OA
HETATM   17  H   UNL     1      41.534  -7.920  10.700  1.00  0.00     0.169 HD
BRANCH  15  18
HETATM   18  C   UNL     1      43.483  -8.990  11.862  1.00  0.00     0.078 A 
HETATM   19  C   UNL     1      43.012  -7.799  12.665  1.00  0.00     0.015 A 
HETATM   20  C   UNL     1      42.683  -9.187  13.130  1.00  0.00     0.015 A 
ENDBRANCH  15  18
ENDBRANCH  11  14
ENDBRANCH   7   8
ENDBRANCH   3   7
BRANCH   1  21
HETATM   21  N   UNL     1      40.874 -11.962   0.666  1.00  0.00    -0.323 N 
HETATM   22  H   UNL     1      41.779 -11.782   0.247  1.00  0.00     0.169 HD
BRANCH  21  23
HETATM   23  C   UNL     1      40.014 -12.563  -0.180  1.00  0.00     0.151 A 
HETATM   24  N   UNL     1      38.714 -12.260  -0.192  1.00  0.00    -0.157 NA
HETATM   25  N   UNL     1      38.191 -13.077  -1.122  1.00  0.00    -0.281 N 
HETATM   26  C   UNL     1      39.104 -13.919  -1.689  1.00  0.00     0.027 A 
HETATM   27  H   UNL     1      37.196 -13.012  -1.310  1.00  0.00     0.189 HD
HETATM   28  C   UNL     1      38.743 -14.926  -2.709  1.00  0.00     0.070 C 
HETATM   29  C   UNL     1      40.305 -13.601  -1.094  1.00  0.00     0.078 A 
ENDBRANCH  21  23
ENDBRANCH   1  21
BRANCH   5  30
HETATM   30  N   UNL     1      41.893 -13.572   5.178  1.00  0.00    -0.264 NA
HETATM   31  C   UNL     1      43.109 -13.134   5.890  1.00  0.00     0.125 C 
HETATM   32  C   UNL     1      43.799 -14.366   6.511  1.00  0.00     0.249 C 
HETATM   33  N   UNL     1      42.837 -15.104   7.444  1.00  0.00    -0.073 N 
HETATM   34  H   UNL     1      42.588 -14.457   8.204  1.00  0.00     0.279 HD
HETATM   35  C   UNL     1      43.481 -16.309   8.059  1.00  0.00     0.269 C 
HETATM   36  C   UNL     1      41.534 -15.464   6.722  1.00  0.00     0.249 C 
HETATM   37  C   UNL     1      40.901 -14.219   6.060  1.00  0.00     0.125 C 
ENDBRANCH   5  30
BRANCH   6  38
HETATM   38  C   UNL     1      41.860 -14.143   2.328  1.00  0.00     0.300 C 
HETATM   39  O   UNL     1      42.997 -14.345   1.934  1.00  0.00    -0.259 OA
BRANCH  38  40
HETATM   40  O   UNL     1      40.824 -15.009   2.237  1.00  0.00    -0.322 OA
HETATM   41  C   UNL     1      40.958 -16.239   2.958  1.00  0.00     0.213 C 
ENDBRANCH  38  40
ENDBRANCH   6  38
TORSDOF 9
ENDMDL
MODEL 8
REMARK VINA RESULT:      -7.5      2.365      5.681
REMARK  9 active torsions:
REMARK  status: ('A' for Active; 'I' for Inactive)
REMARK    1  A    between atoms: C_6  and  N_7 
REMARK    2  A    between atoms: N_7  and  C_8 
REMARK    3  A    between atoms: C_10  and  S_11 
REMARK    4  A    between atoms: S_11  and  C_12 
REMARK    5  A    between atoms: C_15  and  N_16 
REMARK       I    between atoms: N_16  and  C_17 
REMARK    6  A    between atoms: C_17  and  C_18 
REMARK    7  A    between atoms: C_25  and  N_26 
REMARK    8  A    between atoms: C_34  and  C_35 
REMARK    9  A    between atoms: C_35  and  O_36 
ROOT
HETATM    1  C   UNL     1      41.342 -11.219   6.461  1.00  0.00     0.152 A 
HETATM    2  N   UNL     1      42.505 -10.704   6.901  1.00  0.00    -0.204 NA
HETATM    3  C   UNL     1      43.632 -11.391   6.704  1.00  0.00     0.196 A 
HETATM    4  N   UNL     1      43.693 -12.558   6.048  1.00  0.00    -0.209 NA
HETATM    5  C   UNL     1      42.548 -13.069   5.555  1.00  0.00     0.128 A 
HETATM    6  C   UNL     1      41.324 -12.426   5.764  1.00  0.00     0.125 A 
ENDROOT
BRANCH   3   7
HETATM    7  S   UNL     1      45.095 -10.677   7.406  1.00  0.00    -0.050 SA
BRANCH   7   8
HETATM    8  C   UNL     1      44.543  -9.629   8.732  1.00  0.00     0.008 A 
HETATM    9  C   UNL     1      44.023  -8.349   8.527  1.00  0.00     0.021 A 
HETATM   10  C   UNL     1      43.547  -7.589   9.602  1.00  0.00     0.031 A 
HETATM   11  C   UNL     1      43.543  -8.116  10.894  1.00  0.00     0.034 A 
HETATM   12  C   UNL     1      44.027  -9.409  11.098  1.00  0.00     0.031 A 
HETATM   13  C   UNL     1      44.534 -10.155  10.029  1.00  0.00     0.021 A 
BRANCH  11  14
HETATM   14  N   UNL     1      43.021  -7.431  12.007  1.00  0.00    -0.327 N 
HETATM   15  C   UNL     1      41.880  -7.750  12.710  1.00  0.00     0.226 C 
HETATM   16  O   UNL     1      41.050  -8.598  12.410  1.00  0.00    -0.273 OA
HETATM   17  H   UNL     1      43.525  -6.607  12.302  1.00  0.00     0.169 HD
BRANCH  15  18
HETATM   18  C   UNL     1      41.669  -6.953  13.953  1.00  0.00     0.078 A 
HETATM   19  C   UNL     1      41.195  -7.510  15.274  1.00  0.00     0.015 A 
HETATM   20  C   UNL     1      42.635  -7.126  15.104  1.00  0.00     0.015 A 
ENDBRANCH  15  18
ENDBRANCH  11  14
ENDBRANCH   7   8
ENDBRANCH   3   7
BRANCH   1  21
HETATM   21  N   UNL     1      40.167 -10.477   6.678  1.00  0.00    -0.323 N 
HETATM   22  H   UNL     1      39.377 -10.779   6.120  1.00  0.00     0.169 HD
BRANCH  21  23
HETATM   23  C   UNL     1      39.812  -9.674   7.701  1.00  0.00     0.151 A 
HETATM   24  N   UNL     1      38.931 -10.062   8.625  1.00  0.00    -0.157 NA
HETATM   25  N   UNL     1      38.811  -8.999   9.437  1.00  0.00    -0.281 N 
HETATM   26  C   UNL     1      39.561  -7.925   9.051  1.00  0.00     0.027 A 
HETATM   27  H   UNL     1      38.187  -9.073  10.234  1.00  0.00     0.189 HD
HETATM   28  C   UNL     1      39.556  -6.639   9.777  1.00  0.00     0.070 C 
HETATM   29  C   UNL     1      40.229  -8.341   7.920  1.00  0.00     0.078 A 
ENDBRANCH  21  23
ENDBRANCH   1  21
BRANCH   5  30
HETATM   30  N   UNL     1      42.659 -14.273   4.840  1.00  0.00    -0.264 NA
HETATM   31  C   UNL     1      43.160 -14.145   3.459  1.00  0.00     0.125 C 
HETATM   32  C   UNL     1      42.827 -15.436   2.682  1.00  0.00     0.249 C 
HETATM   33  N   UNL     1      43.428 -16.654   3.387  1.00  0.00    -0.073 N 
HETATM   34  H   UNL     1      44.450 -16.534   3.391  1.00  0.00     0.279 HD
HETATM   35  C   UNL     1      43.117 -17.923   2.655  1.00  0.00     0.269 C 
HETATM   36  C   UNL     1      42.982 -16.720   4.852  1.00  0.00     0.249 C 
HETATM   37  C   UNL     1      43.274 -15.391   5.584  1.00  0.00     0.125 C 
ENDBRANCH   5  30
BRANCH   6  38
HETATM   38  C   UNL     1      40.063 -13.059   5.332  1.00  0.00     0.300 C 
HETATM   39  O   UNL     1      39.264 -13.594   6.083  1.00  0.00    -0.259 OA
BRANCH  38  40
HETATM   40  O   UNL     1      39.990 -13.041   3.980  1.00  0.00    -0.322 OA
HETATM   41  C   UNL     1      39.282 -11.941   3.396  1.00  0.00     0.213 C 
ENDBRANCH  38  40
ENDBRANCH   6  38
TORSDOF 9
ENDMDL
MODEL 9
REMARK VINA RESULT:      -7.5      2.476      5.986
REMARK  9 active torsions:
REMARK  status: ('A' for Active; 'I' for Inactive)
REMARK    1  A    between atoms: C_6  and  N_7 
REMARK    2  A    between atoms: N_7  and  C_8 
REMARK    3  A    between atoms: C_10  and  S_11 
REMARK    4  A    between atoms: S_11  and  C_12 
REMARK    5  A    between atoms: C_15  and  N_16 
REMARK       I    between atoms: N_16  and  C_17 
REMARK    6  A    between atoms: C_17  and  C_18 
REMARK    7  A    between atoms: C_25  and  N_26 
REMARK    8  A    between atoms: C_34  and  C_35 
REMARK    9  A    between atoms: C_35  and  O_36 
ROOT
HETATM    1  C   UNL     1      40.905 -10.580   6.624  1.00  0.00     0.152 A 
HETATM    2  N   UNL     1      41.996 -10.045   7.201  1.00  0.00    -0.204 NA
HETATM    3  C   UNL     1      43.148 -10.719   7.153  1.00  0.00     0.196 A 
HETATM    4  N   UNL     1      43.305 -11.890   6.522  1.00  0.00    -0.209 NA
HETATM    5  C   UNL     1      42.238 -12.421   5.895  1.00  0.00     0.128 A 
HETATM    6  C   UNL     1      40.989 -11.793   5.944  1.00  0.00     0.125 A 
ENDROOT
BRANCH   3   7
HETATM    7  S   UNL     1      44.503  -9.978   8.025  1.00  0.00    -0.050 SA
BRANCH   7   8
HETATM    8  C   UNL     1      43.890  -9.594   9.649  1.00  0.00     0.008 A 
HETATM    9  C   UNL     1      43.785 -10.544  10.669  1.00  0.00     0.021 A 
HETATM   10  C   UNL     1      43.351 -10.175  11.948  1.00  0.00     0.031 A 
HETATM   11  C   UNL     1      43.058  -8.842  12.239  1.00  0.00     0.034 A 
HETATM   12  C   UNL     1      43.197  -7.884  11.233  1.00  0.00     0.031 A 
HETATM   13  C   UNL     1      43.598  -8.258   9.946  1.00  0.00     0.021 A 
BRANCH  11  14
HETATM   14  N   UNL     1      42.680  -8.395  13.518  1.00  0.00    -0.327 N 
HETATM   15  C   UNL     1      41.482  -8.633  14.154  1.00  0.00     0.226 C 
HETATM   16  O   UNL     1      40.488  -9.158  13.668  1.00  0.00    -0.273 OA
HETATM   17  H   UNL     1      43.351  -7.818  14.007  1.00  0.00     0.169 HD
BRANCH  15  18
HETATM   18  C   UNL     1      41.429  -8.185  15.576  1.00  0.00     0.078 A 
HETATM   19  C   UNL     1      42.109  -6.954  16.127  1.00  0.00     0.015 A 
HETATM   20  C   UNL     1      40.623  -6.954  15.924  1.00  0.00     0.015 A 
ENDBRANCH  15  18
ENDBRANCH  11  14
ENDBRANCH   7   8
ENDBRANCH   3   7
BRANCH   1  21
HETATM   21  N   UNL     1      39.702  -9.853   6.686  1.00  0.00    -0.323 N 
HETATM   22  H   UNL     1      39.147 -10.038   7.513  1.00  0.00     0.169 HD
BRANCH  21  23
HETATM   23  C   UNL     1      39.314  -8.740   6.031  1.00  0.00     0.151 A 
HETATM   24  N   UNL     1      38.330  -7.964   6.489  1.00  0.00    -0.157 NA
HETATM   25  N   UNL     1      38.213  -6.996   5.564  1.00  0.00    -0.281 N 
HETATM   26  C   UNL     1      39.067  -7.139   4.509  1.00  0.00     0.027 A 
HETATM   27  H   UNL     1      37.516  -6.273   5.714  1.00  0.00     0.189 HD
HETATM   28  C   UNL     1      39.087  -6.209   3.360  1.00  0.00     0.070 C 
HETATM   29  C   UNL     1      39.802  -8.269   4.791  1.00  0.00     0.078 A 
ENDBRANCH  21  23
ENDBRANCH   1  21
BRANCH   5  30
HETATM   30  N   UNL     1      42.452 -13.629   5.212  1.00  0.00    -0.264 NA
HETATM   31  C   UNL     1      42.887 -13.495   3.809  1.00  0.00     0.125 C 
HETATM   32  C   UNL     1      42.668 -14.839   3.084  1.00  0.00     0.249 C 
HETATM   33  N   UNL     1      43.421 -15.961   3.800  1.00  0.00    -0.073 N 
HETATM   34  H   UNL     1      44.423 -15.734   3.761  1.00  0.00     0.279 HD
HETATM   35  C   UNL     1      43.223 -17.280   3.118  1.00  0.00     0.269 C 
HETATM   36  C   UNL     1      43.037 -16.026   5.282  1.00  0.00     0.249 C 
HETATM   37  C   UNL     1      43.210 -14.650   5.964  1.00  0.00     0.125 C 
ENDBRANCH   5  30
BRANCH   6  38
HETATM   38  C   UNL     1      39.800 -12.448   5.364  1.00  0.00     0.300 C 
HETATM   39  O   UNL     1      39.205 -13.382   5.875  1.00  0.00    -0.259 OA
BRANCH  38  40
HETATM   40  O   UNL     1      39.544 -11.918   4.144  1.00  0.00    -0.322 OA
HETATM   41  C   UNL     1      39.228 -12.848   3.100  1.00  0.00     0.213 C 
ENDBRANCH  38  40
ENDBRANCH   6  38
TORSDOF 9
ENDMDL
MODEL 10
REMARK VINA RESULT:      -7.4      3.853      6.412
REMARK  9 active torsions:
REMARK  status: ('A' for Active; 'I' for Inactive)
REMARK    1  A    between atoms: C_6  and  N_7 
REMARK    2  A    between atoms: N_7  and  C_8 
REMARK    3  A    between atoms: C_10  and  S_11 
REMARK    4  A    between atoms: S_11  and  C_12 
REMARK    5  A    between atoms: C_15  and  N_16 
REMARK       I    between atoms: N_16  and  C_17 
REMARK    6  A    between atoms: C_17  and  C_18 
REMARK    7  A    between atoms: C_25  and  N_26 
REMARK    8  A    between atoms: C_34  and  C_35 
REMARK    9  A    between atoms: C_35  and  O_36 
ROOT
HETATM    1  C   UNL     1      42.765  -9.770   8.320  1.00  0.00     0.152 A 
HETATM    2  N   UNL     1      41.816  -8.820   8.402  1.00  0.00    -0.204 NA
HETATM    3  C   UNL     1      40.987  -8.645   7.371  1.00  0.00     0.196 A 
HETATM    4  N   UNL     1      41.006  -9.391   6.258  1.00  0.00    -0.209 NA
HETATM    5  C   UNL     1      41.916 -10.381   6.175  1.00  0.00     0.128 A 
HETATM    6  C   UNL     1      42.846 -10.591   7.197  1.00  0.00     0.125 A 
ENDROOT
BRANCH   3   7
HETATM    7  S   UNL     1      39.836  -7.305   7.535  1.00  0.00    -0.050 SA
BRANCH   7   8
HETATM    8  C   UNL     1      39.587  -7.083   9.281  1.00  0.00     0.008 A 
HETATM    9  C   UNL     1      38.908  -8.007  10.079  1.00  0.00     0.021 A 
HETATM   10  C   UNL     1      38.792  -7.812  11.461  1.00  0.00     0.031 A 
HETATM   11  C   UNL     1      39.392  -6.711  12.072  1.00  0.00     0.034 A 
HETATM   12  C   UNL     1      40.104  -5.804  11.285  1.00  0.00     0.031 A 
HETATM   13  C   UNL     1      40.190  -5.982   9.900  1.00  0.00     0.021 A 
BRANCH  11  14
HETATM   14  N   UNL     1      39.368  -6.489  13.462  1.00  0.00    -0.327 N 
HETATM   15  C   UNL     1      38.319  -5.985  14.198  1.00  0.00     0.226 C 
HETATM   16  O   UNL     1      37.277  -5.516  13.760  1.00  0.00    -0.273 OA
HETATM   17  H   UNL     1      40.220  -6.700  13.963  1.00  0.00     0.169 HD
BRANCH  15  18
HETATM   18  C   UNL     1      38.517  -6.028  15.676  1.00  0.00     0.078 A 
HETATM   19  C   UNL     1      39.850  -6.167  16.373  1.00  0.00     0.015 A 
HETATM   20  C   UNL     1      39.153  -4.839  16.362  1.00  0.00     0.015 A 
ENDBRANCH  15  18
ENDBRANCH  11  14
ENDBRANCH   7   8
ENDBRANCH   3   7
BRANCH   1  21
HETATM   21  N   UNL     1      43.627  -9.938   9.419  1.00  0.00    -0.323 N 
HETATM   22  H   UNL     1      44.592  -9.691   9.231  1.00  0.00     0.169 HD
BRANCH  21  23
HETATM   23  C   UNL     1      43.361 -10.050  10.736  1.00  0.00     0.151 A 
HETATM   24  N   UNL     1      43.617 -11.173  11.411  1.00  0.00    -0.157 NA
HETATM   25  N   UNL     1      43.189 -10.915  12.658  1.00  0.00    -0.281 N 
HETATM   26  C   UNL     1      42.636  -9.676  12.804  1.00  0.00     0.027 A 
HETATM   27  H   UNL     1      43.295 -11.641  13.360  1.00  0.00     0.189 HD
HETATM   28  C   UNL     1      42.068  -9.195  14.080  1.00  0.00     0.070 C 
HETATM   29  C   UNL     1      42.739  -9.088  11.562  1.00  0.00     0.078 A 
ENDBRANCH  21  23
ENDBRANCH   1  21
BRANCH   5  30
HETATM   30  N   UNL     1      41.879 -11.166   5.011  1.00  0.00    -0.264 NA
HETATM   31  C   UNL     1      40.692 -12.029   4.866  1.00  0.00     0.125 C 
HETATM   32  C   UNL     1      40.983 -13.112   3.807  1.00  0.00     0.249 C 
HETATM   33  N   UNL     1      41.373 -12.466   2.476  1.00  0.00    -0.073 N 
HETATM   34  H   UNL     1      40.569 -11.911   2.156  1.00  0.00     0.279 HD
HETATM   35  C   UNL     1      41.665 -13.497   1.429  1.00  0.00     0.269 C 
HETATM   36  C   UNL     1      42.544 -11.493   2.656  1.00  0.00     0.249 C 
HETATM   37  C   UNL     1      42.244 -10.460   3.765  1.00  0.00     0.125 C 
ENDBRANCH   5  30
BRANCH   6  38
HETATM   38  C   UNL     1      43.919 -11.593   7.038  1.00  0.00     0.300 C 
HETATM   39  O   UNL     1      43.911 -12.702   7.546  1.00  0.00    -0.259 OA
BRANCH  38  40
HETATM   40  O   UNL     1      44.940 -11.052   6.333  1.00  0.00    -0.322 OA
HETATM   41  C   UNL     1      46.178 -10.882   7.035  1.00  0.00     0.213 C 
ENDBRANCH  38  40
ENDBRANCH   6  38
TORSDOF 9
ENDMDL
