MODEL 1
REMARK VINA RESULT:     -10.0      0.000      0.000
REMARK  7 active torsions:
REMARK  status: ('A' for Active; 'I' for Inactive)
REMARK    1  A    between atoms: C_2  and  C_3 
REMARK    2  A    between atoms: C_6  and  C_7 
REMARK    3  A    between atoms: C_10  and  C_11 
REMARK       I    between atoms: C_11  and  N_12 
REMARK    4  A    between atoms: N_12  and  C_13 
REMARK    5  A    between atoms: C_25  and  C_26 
REMARK       I    between atoms: C_26  and  N_27 
REMARK    6  A    between atoms: N_27  and  C_28 
REMARK    7  A    between atoms: C_31  and  O_32 
ROOT
HETATM    1  C   UNL     1      42.846 -12.905   5.147  1.00  0.00     0.185 C 
HETATM    2  N   UNL     1      43.494 -12.121   6.214  1.00  0.00    -0.239 N 
HETATM    3  C   UNL     1      42.839 -11.203   7.001  1.00  0.00     0.142 C 
HETATM    4  C   UNL     1      43.791 -10.689   7.860  1.00  0.00     0.097 C 
HETATM    5  C   UNL     1      45.005 -11.260   7.397  1.00  0.00     0.160 C 
HETATM    6  N   UNL     1      44.835 -12.105   6.374  1.00  0.00    -0.181 NA
HETATM    7  N   UNL     1      41.522 -10.963   6.781  1.00  0.00    -0.343 N 
HETATM    8  C   UNL     1      40.824 -11.524   5.709  1.00  0.00     0.021 C 
HETATM    9  C   UNL     1      39.412 -11.025   5.510  1.00  0.00     0.069 C 
HETATM   10  C   UNL     1      41.422 -12.436   4.904  1.00  0.00     0.061 C 
HETATM   11  H   UNL     1      41.063 -10.155   7.205  1.00  0.00     0.167 HD
ENDROOT
BRANCH  10  12
HETATM   12  C   UNL     1      40.671 -13.082   3.791  1.00  0.00     0.256 C 
HETATM   13  N   UNL     1      40.851 -12.449   2.578  1.00  0.00    -0.323 N 
HETATM   14  H   UNL     1      41.425 -11.618   2.558  1.00  0.00     0.169 HD
HETATM   15  O   UNL     1      39.973 -14.061   4.023  1.00  0.00    -0.267 OA
BRANCH  13  16
HETATM   16  C   UNL     1      40.280 -12.805   1.337  1.00  0.00     0.035 A 
HETATM   17  C   UNL     1      40.597 -13.965   0.632  1.00  0.00     0.032 A 
HETATM   18  C   UNL     1      39.956 -14.253  -0.580  1.00  0.00     0.039 A 
HETATM   19  C   UNL     1      38.992 -13.391  -1.102  1.00  0.00     0.068 A 
HETATM   20  C   UNL     1      38.692 -12.216  -0.417  1.00  0.00     0.039 A 
HETATM   21  C   UNL     1      39.330 -11.929   0.797  1.00  0.00     0.032 A 
BRANCH  19  22
HETATM   22  O   UNL     1      38.428 -13.797  -2.279  1.00  0.00    -0.356 OA
HETATM   23  C   UNL     1      38.811 -15.082  -2.756  1.00  0.00     0.210 C 
ENDBRANCH  19  22
ENDBRANCH  13  16
ENDBRANCH  10  12
BRANCH   1  24
HETATM   24  C   UNL     1      42.980 -14.396   5.437  1.00  0.00    -0.029 A 
HETATM   25  C   UNL     1      43.331 -15.325   4.445  1.00  0.00     0.010 A 
HETATM   26  C   UNL     1      43.446 -16.684   4.749  1.00  0.00     0.007 A 
HETATM   27  C   UNL     1      43.193 -17.150   6.044  1.00  0.00    -0.059 A 
HETATM   28  C   UNL     1      42.828 -16.231   7.034  1.00  0.00     0.007 A 
HETATM   29  C   UNL     1      42.718 -14.872   6.733  1.00  0.00     0.010 A 
BRANCH  27  30
HETATM   30  C   UNL     1      43.336 -18.613   6.376  1.00  0.00     0.034 C 
HETATM   31  C   UNL     1      43.993 -19.386   5.244  1.00  0.00     0.010 C 
ENDBRANCH  27  30
ENDBRANCH   1  24
BRANCH   4  32
HETATM   32  C   UNL     1      43.650  -9.737   8.946  1.00  0.00     0.261 C 
HETATM   33  N   UNL     1      43.179 -10.304  10.117  1.00  0.00    -0.323 N 
HETATM   34  H   UNL     1      43.110 -11.315  10.118  1.00  0.00     0.169 HD
HETATM   35  O   UNL     1      43.977  -8.566   8.791  1.00  0.00    -0.267 OA
BRANCH  33  36
HETATM   36  C   UNL     1      42.911  -9.657  11.340  1.00  0.00     0.035 A 
HETATM   37  C   UNL     1      43.686  -8.621  11.862  1.00  0.00     0.029 A 
HETATM   38  C   UNL     1      43.353  -8.031  13.086  1.00  0.00     0.002 A 
HETATM   39  C   UNL     1      42.238  -8.470  13.796  1.00  0.00     0.000 A 
HETATM   40  C   UNL     1      41.453  -9.498  13.281  1.00  0.00     0.002 A 
HETATM   41  C   UNL     1      41.787 -10.087  12.059  1.00  0.00     0.029 A 
ENDBRANCH  33  36
ENDBRANCH   4  32
TORSDOF 7
ENDMDL
MODEL 2
REMARK VINA RESULT:      -9.9      1.422      2.129
REMARK  7 active torsions:
REMARK  status: ('A' for Active; 'I' for Inactive)
REMARK    1  A    between atoms: C_2  and  C_3 
REMARK    2  A    between atoms: C_6  and  C_7 
REMARK    3  A    between atoms: C_10  and  C_11 
REMARK       I    between atoms: C_11  and  N_12 
REMARK    4  A    between atoms: N_12  and  C_13 
REMARK    5  A    between atoms: C_25  and  C_26 
REMARK       I    between atoms: C_26  and  N_27 
REMARK    6  A    between atoms: N_27  and  C_28 
REMARK    7  A    between atoms: C_31  and  O_32 
ROOT
HETATM    1  C   UNL     1      42.532 -12.353   4.198  1.00  0.00     0.185 C 
HETATM    2  N   UNL     1      43.466 -11.920   5.253  1.00  0.00    -0.239 N 
HETATM    3  C   UNL     1      43.074 -11.480   6.496  1.00  0.00     0.142 C 
HETATM    4  C   UNL     1      44.236 -11.165   7.173  1.00  0.00     0.097 C 
HETATM    5  C   UNL     1      45.249 -11.312   6.190  1.00  0.00     0.160 C 
HETATM    6  N   UNL     1      44.783 -11.737   5.011  1.00  0.00    -0.181 NA
HETATM    7  N   UNL     1      41.750 -11.402   6.783  1.00  0.00    -0.343 N 
HETATM    8  C   UNL     1      40.759 -11.639   5.828  1.00  0.00     0.021 C 
HETATM    9  C   UNL     1      39.342 -11.347   6.265  1.00  0.00     0.069 C 
HETATM   10  C   UNL     1      41.091 -12.076   4.588  1.00  0.00     0.061 C 
HETATM   11  H   UNL     1      41.427 -10.897   7.609  1.00  0.00     0.167 HD
ENDROOT
BRANCH  10  12
HETATM   12  C   UNL     1      40.039 -12.383   3.579  1.00  0.00     0.256 C 
HETATM   13  N   UNL     1      40.216 -11.708   2.390  1.00  0.00    -0.323 N 
HETATM   14  H   UNL     1      40.993 -11.065   2.321  1.00  0.00     0.169 HD
HETATM   15  O   UNL     1      39.134 -13.155   3.869  1.00  0.00    -0.267 OA
BRANCH  13  16
HETATM   16  C   UNL     1      39.399 -11.774   1.241  1.00  0.00     0.035 A 
HETATM   17  C   UNL     1      38.246 -11.013   1.054  1.00  0.00     0.032 A 
HETATM   18  C   UNL     1      37.512 -11.121  -0.135  1.00  0.00     0.039 A 
HETATM   19  C   UNL     1      37.919 -11.986  -1.150  1.00  0.00     0.068 A 
HETATM   20  C   UNL     1      39.053 -12.770  -0.958  1.00  0.00     0.039 A 
HETATM   21  C   UNL     1      39.789 -12.660   0.229  1.00  0.00     0.032 A 
BRANCH  19  22
HETATM   22  O   UNL     1      37.128 -11.982  -2.265  1.00  0.00    -0.356 OA
HETATM   23  C   UNL     1      36.998 -13.219  -2.955  1.00  0.00     0.210 C 
ENDBRANCH  19  22
ENDBRANCH  13  16
ENDBRANCH  10  12
BRANCH   1  24
HETATM   24  C   UNL     1      42.815 -13.802   3.812  1.00  0.00    -0.029 A 
HETATM   25  C   UNL     1      42.860 -14.836   4.760  1.00  0.00     0.010 A 
HETATM   26  C   UNL     1      43.119 -16.151   4.368  1.00  0.00     0.007 A 
HETATM   27  C   UNL     1      43.360 -16.462   3.025  1.00  0.00    -0.059 A 
HETATM   28  C   UNL     1      43.332 -15.434   2.078  1.00  0.00     0.007 A 
HETATM   29  C   UNL     1      43.067 -14.119   2.466  1.00  0.00     0.010 A 
BRANCH  27  30
HETATM   30  C   UNL     1      43.621 -17.884   2.601  1.00  0.00     0.034 C 
HETATM   31  C   UNL     1      44.265 -18.696   3.714  1.00  0.00     0.010 C 
ENDBRANCH  27  30
ENDBRANCH   1  24
BRANCH   4  32
HETATM   32  C   UNL     1      44.426 -10.718   8.541  1.00  0.00     0.261 C 
HETATM   33  N   UNL     1      43.284 -10.184   9.109  1.00  0.00    -0.323 N 
HETATM   34  H   UNL     1      42.436 -10.281   8.563  1.00  0.00     0.169 HD
HETATM   35  O   UNL     1      45.507 -10.868   9.098  1.00  0.00    -0.267 OA
BRANCH  33  36
HETATM   36  C   UNL     1      43.137  -9.643  10.402  1.00  0.00     0.035 A 
HETATM   37  C   UNL     1      42.988 -10.411  11.558  1.00  0.00     0.029 A 
HETATM   38  C   UNL     1      42.845  -9.795  12.806  1.00  0.00     0.002 A 
HETATM   39  C   UNL     1      42.856  -8.406  12.909  1.00  0.00     0.000 A 
HETATM   40  C   UNL     1      43.012  -7.631  11.763  1.00  0.00     0.002 A 
HETATM   41  C   UNL     1      43.153  -8.246  10.517  1.00  0.00     0.029 A 
ENDBRANCH  33  36
ENDBRANCH   4  32
TORSDOF 7
ENDMDL
MODEL 3
REMARK VINA RESULT:      -9.9      1.652      2.168
REMARK  7 active torsions:
REMARK  status: ('A' for Active; 'I' for Inactive)
REMARK    1  A    between atoms: C_2  and  C_3 
REMARK    2  A    between atoms: C_6  and  C_7 
REMARK    3  A    between atoms: C_10  and  C_11 
REMARK       I    between atoms: C_11  and  N_12 
REMARK    4  A    between atoms: N_12  and  C_13 
REMARK    5  A    between atoms: C_25  and  C_26 
REMARK       I    between atoms: C_26  and  N_27 
REMARK    6  A    between atoms: N_27  and  C_28 
REMARK    7  A    between atoms: C_31  and  O_32 
ROOT
HETATM    1  C   UNL     1      42.935 -11.485   3.976  1.00  0.00     0.185 C 
HETATM    2  N   UNL     1      43.230 -11.063   5.357  1.00  0.00    -0.239 N 
HETATM    3  C   UNL     1      42.409 -10.255   6.108  1.00  0.00     0.142 C 
HETATM    4  C   UNL     1      43.042 -10.093   7.324  1.00  0.00     0.097 C 
HETATM    5  C   UNL     1      44.301 -10.721   7.135  1.00  0.00     0.160 C 
HETATM    6  N   UNL     1      44.434 -11.283   5.929  1.00  0.00    -0.181 NA
HETATM    7  N   UNL     1      41.265  -9.779   5.556  1.00  0.00    -0.343 N 
HETATM    8  C   UNL     1      40.939  -9.978   4.212  1.00  0.00     0.021 C 
HETATM    9  C   UNL     1      39.716  -9.242   3.715  1.00  0.00     0.069 C 
HETATM   10  C   UNL     1      41.714 -10.767   3.428  1.00  0.00     0.061 C 
HETATM   11  H   UNL     1      40.743  -9.027   6.008  1.00  0.00     0.167 HD
ENDROOT
BRANCH  10  12
HETATM   12  C   UNL     1      41.347 -11.030   2.009  1.00  0.00     0.256 C 
HETATM   13  N   UNL     1      40.318 -11.939   1.874  1.00  0.00    -0.323 N 
HETATM   14  H   UNL     1      39.941 -12.355   2.714  1.00  0.00     0.169 HD
HETATM   15  O   UNL     1      41.963 -10.466   1.112  1.00  0.00    -0.267 OA
BRANCH  13  16
HETATM   16  C   UNL     1      39.742 -12.405   0.673  1.00  0.00     0.035 A 
HETATM   17  C   UNL     1      40.136 -13.567   0.012  1.00  0.00     0.032 A 
HETATM   18  C   UNL     1      39.484 -13.970  -1.161  1.00  0.00     0.039 A 
HETATM   19  C   UNL     1      38.432 -13.221  -1.688  1.00  0.00     0.068 A 
HETATM   20  C   UNL     1      38.053 -12.043  -1.049  1.00  0.00     0.039 A 
HETATM   21  C   UNL     1      38.702 -11.642   0.126  1.00  0.00     0.032 A 
BRANCH  19  22
HETATM   22  O   UNL     1      37.870 -13.733  -2.823  1.00  0.00    -0.356 OA
HETATM   23  C   UNL     1      38.359 -14.995  -3.260  1.00  0.00     0.210 C 
ENDBRANCH  19  22
ENDBRANCH  13  16
ENDBRANCH  10  12
BRANCH   1  24
HETATM   24  C   UNL     1      42.862 -13.006   3.897  1.00  0.00    -0.029 A 
HETATM   25  C   UNL     1      42.382 -13.790   4.958  1.00  0.00     0.010 A 
HETATM   26  C   UNL     1      42.327 -15.182   4.848  1.00  0.00     0.007 A 
HETATM   27  C   UNL     1      42.771 -15.825   3.687  1.00  0.00    -0.059 A 
HETATM   28  C   UNL     1      43.265 -15.050   2.632  1.00  0.00     0.007 A 
HETATM   29  C   UNL     1      43.314 -13.658   2.737  1.00  0.00     0.010 A 
BRANCH  27  30
HETATM   30  C   UNL     1      42.695 -17.324   3.563  1.00  0.00     0.034 C 
HETATM   31  C   UNL     1      43.324 -17.815   2.269  1.00  0.00     0.010 C 
ENDBRANCH  27  30
ENDBRANCH   1  24
BRANCH   4  32
HETATM   32  C   UNL     1      42.602  -9.395   8.519  1.00  0.00     0.261 C 
HETATM   33  N   UNL     1      43.054  -9.974   9.691  1.00  0.00    -0.323 N 
HETATM   34  H   UNL     1      43.727 -10.724   9.580  1.00  0.00     0.169 HD
HETATM   35  O   UNL     1      41.935  -8.372   8.429  1.00  0.00    -0.267 OA
BRANCH  33  36
HETATM   36  C   UNL     1      42.790  -9.562  11.013  1.00  0.00     0.035 A 
HETATM   37  C   UNL     1      41.750 -10.065  11.795  1.00  0.00     0.029 A 
HETATM   38  C   UNL     1      41.553  -9.600  13.100  1.00  0.00     0.002 A 
HETATM   39  C   UNL     1      42.399  -8.632  13.635  1.00  0.00     0.000 A 
HETATM   40  C   UNL     1      43.445  -8.129  12.866  1.00  0.00     0.002 A 
HETATM   41  C   UNL     1      43.640  -8.592  11.563  1.00  0.00     0.029 A 
ENDBRANCH  33  36
ENDBRANCH   4  32
TORSDOF 7
ENDMDL
MODEL 4
REMARK VINA RESULT:      -9.2      2.317      5.545
REMARK  7 active torsions:
REMARK  status: ('A' for Active; 'I' for Inactive)
REMARK    1  A    between atoms: C_2  and  C_3 
REMARK    2  A    between atoms: C_6  and  C_7 
REMARK    3  A    between atoms: C_10  and  C_11 
REMARK       I    between atoms: C_11  and  N_12 
REMARK    4  A    between atoms: N_12  and  C_13 
REMARK    5  A    between atoms: C_25  and  C_26 
REMARK       I    between atoms: C_26  and  N_27 
REMARK    6  A    between atoms: N_27  and  C_28 
REMARK    7  A    between atoms: C_31  and  O_32 
ROOT
HETATM    1  C   UNL     1      40.693 -12.366   5.282  1.00  0.00     0.185 C 
HETATM    2  N   UNL     1      40.307 -11.403   6.328  1.00  0.00    -0.239 N 
HETATM    3  C   UNL     1      41.200 -10.779   7.169  1.00  0.00     0.142 C 
HETATM    4  C   UNL     1      40.444  -9.973   7.997  1.00  0.00     0.097 C 
HETATM    5  C   UNL     1      39.105 -10.306   7.662  1.00  0.00     0.160 C 
HETATM    6  N   UNL     1      39.016 -11.201   6.673  1.00  0.00    -0.181 NA
HETATM    7  N   UNL     1      42.520 -11.076   7.070  1.00  0.00    -0.343 N 
HETATM    8  C   UNL     1      43.004 -12.078   6.226  1.00  0.00     0.021 C 
HETATM    9  C   UNL     1      44.475 -12.395   6.358  1.00  0.00     0.069 C 
HETATM   10  C   UNL     1      42.167 -12.722   5.376  1.00  0.00     0.061 C 
HETATM   11  H   UNL     1      43.173 -10.789   7.800  1.00  0.00     0.167 HD
ENDROOT
BRANCH  10  12
HETATM   12  C   UNL     1      42.681 -13.754   4.433  1.00  0.00     0.256 C 
HETATM   13  N   UNL     1      42.536 -15.042   4.908  1.00  0.00    -0.323 N 
HETATM   14  H   UNL     1      42.140 -15.165   5.829  1.00  0.00     0.169 HD
HETATM   15  O   UNL     1      43.185 -13.405   3.373  1.00  0.00    -0.267 OA
BRANCH  13  16
HETATM   16  C   UNL     1      42.922 -16.237   4.265  1.00  0.00     0.035 A 
HETATM   17  C   UNL     1      43.879 -17.121   4.762  1.00  0.00     0.032 A 
HETATM   18  C   UNL     1      44.176 -18.303   4.070  1.00  0.00     0.039 A 
HETATM   19  C   UNL     1      43.525 -18.618   2.878  1.00  0.00     0.068 A 
HETATM   20  C   UNL     1      42.590 -17.725   2.361  1.00  0.00     0.039 A 
HETATM   21  C   UNL     1      42.289 -16.545   3.054  1.00  0.00     0.032 A 
BRANCH  19  22
HETATM   22  O   UNL     1      43.892 -19.808   2.314  1.00  0.00    -0.356 OA
HETATM   23  C   UNL     1      43.888 -20.944   3.170  1.00  0.00     0.210 C 
ENDBRANCH  19  22
ENDBRANCH  13  16
ENDBRANCH  10  12
BRANCH   1  24
HETATM   24  C   UNL     1      40.252 -11.858   3.913  1.00  0.00    -0.029 A 
HETATM   25  C   UNL     1      40.702 -10.638   3.385  1.00  0.00     0.010 A 
HETATM   26  C   UNL     1      40.278 -10.206   2.126  1.00  0.00     0.007 A 
HETATM   27  C   UNL     1      39.378 -10.970   1.375  1.00  0.00    -0.059 A 
HETATM   28  C   UNL     1      38.914 -12.180   1.902  1.00  0.00     0.007 A 
HETATM   29  C   UNL     1      39.342 -12.616   3.158  1.00  0.00     0.010 A 
BRANCH  27  30
HETATM   30  C   UNL     1      38.935 -10.513   0.009  1.00  0.00     0.034 C 
HETATM   31  C   UNL     1      39.405 -11.461  -1.083  1.00  0.00     0.010 C 
ENDBRANCH  27  30
ENDBRANCH   1  24
BRANCH   4  32
HETATM   32  C   UNL     1      40.864  -9.041   9.028  1.00  0.00     0.261 C 
HETATM   33  N   UNL     1      41.305  -9.661  10.183  1.00  0.00    -0.323 N 
HETATM   34  H   UNL     1      41.402 -10.668  10.131  1.00  0.00     0.169 HD
HETATM   35  O   UNL     1      40.847  -7.834   8.817  1.00  0.00    -0.267 OA
BRANCH  33  36
HETATM   36  C   UNL     1      41.756  -9.050  11.370  1.00  0.00     0.035 A 
HETATM   37  C   UNL     1      43.048  -8.555  11.552  1.00  0.00     0.029 A 
HETATM   38  C   UNL     1      43.418  -7.963  12.765  1.00  0.00     0.002 A 
HETATM   39  C   UNL     1      42.496  -7.855  13.803  1.00  0.00     0.000 A 
HETATM   40  C   UNL     1      41.203  -8.338  13.630  1.00  0.00     0.002 A 
HETATM   41  C   UNL     1      40.834  -8.931  12.419  1.00  0.00     0.029 A 
ENDBRANCH  33  36
ENDBRANCH   4  32
TORSDOF 7
ENDMDL
MODEL 5
REMARK VINA RESULT:      -9.0      2.332      2.700
REMARK  7 active torsions:
REMARK  status: ('A' for Active; 'I' for Inactive)
REMARK    1  A    between atoms: C_2  and  C_3 
REMARK    2  A    between atoms: C_6  and  C_7 
REMARK    3  A    between atoms: C_10  and  C_11 
REMARK       I    between atoms: C_11  and  N_12 
REMARK    4  A    between atoms: N_12  and  C_13 
REMARK    5  A    between atoms: C_25  and  C_26 
REMARK       I    between atoms: C_26  and  N_27 
REMARK    6  A    between atoms: N_27  and  C_28 
REMARK    7  A    between atoms: C_31  and  O_32 
ROOT
HETATM    1  C   UNL     1      43.274 -11.338   4.372  1.00  0.00     0.185 C 
HETATM    2  N   UNL     1      44.031 -11.243   5.634  1.00  0.00    -0.239 N 
HETATM    3  C   UNL     1      43.527 -10.706   6.796  1.00  0.00     0.142 C 
HETATM    4  C   UNL     1      44.542 -10.796   7.729  1.00  0.00     0.097 C 
HETATM    5  C   UNL     1      45.651 -11.264   6.976  1.00  0.00     0.160 C 
HETATM    6  N   UNL     1      45.355 -11.504   5.694  1.00  0.00    -0.181 NA
HETATM    7  N   UNL     1      42.269 -10.197   6.799  1.00  0.00    -0.343 N 
HETATM    8  C   UNL     1      41.500 -10.088   5.638  1.00  0.00     0.021 C 
HETATM    9  C   UNL     1      40.191  -9.347   5.784  1.00  0.00     0.069 C 
HETATM   10  C   UNL     1      41.948 -10.603   4.467  1.00  0.00     0.061 C 
HETATM   11  H   UNL     1      41.944  -9.618   7.574  1.00  0.00     0.167 HD
ENDROOT
BRANCH  10  12
HETATM   12  C   UNL     1      41.114 -10.540   3.235  1.00  0.00     0.256 C 
HETATM   13  N   UNL     1      41.703  -9.819   2.217  1.00  0.00    -0.323 N 
HETATM   14  H   UNL     1      42.598  -9.387   2.400  1.00  0.00     0.169 HD
HETATM   15  O   UNL     1      40.017 -11.086   3.221  1.00  0.00    -0.267 OA
BRANCH  13  16
HETATM   16  C   UNL     1      41.176  -9.569   0.932  1.00  0.00     0.035 A 
HETATM   17  C   UNL     1      41.191 -10.489  -0.115  1.00  0.00     0.032 A 
HETATM   18  C   UNL     1      40.615 -10.165  -1.350  1.00  0.00     0.039 A 
HETATM   19  C   UNL     1      40.016  -8.922  -1.556  1.00  0.00     0.068 A 
HETATM   20  C   UNL     1      40.023  -7.988  -0.524  1.00  0.00     0.039 A 
HETATM   21  C   UNL     1      40.597  -8.313   0.713  1.00  0.00     0.032 A 
BRANCH  19  22
HETATM   22  O   UNL     1      39.474  -8.740  -2.798  1.00  0.00    -0.356 OA
HETATM   23  C   UNL     1      39.137  -9.916  -3.522  1.00  0.00     0.210 C 
ENDBRANCH  19  22
ENDBRANCH  13  16
ENDBRANCH  10  12
BRANCH   1  24
HETATM   24  C   UNL     1      43.159 -12.796   3.939  1.00  0.00    -0.029 A 
HETATM   25  C   UNL     1      43.417 -13.210   2.623  1.00  0.00     0.010 A 
HETATM   26  C   UNL     1      43.304 -14.555   2.264  1.00  0.00     0.007 A 
HETATM   27  C   UNL     1      42.909 -15.515   3.203  1.00  0.00    -0.059 A 
HETATM   28  C   UNL     1      42.634 -15.106   4.512  1.00  0.00     0.007 A 
HETATM   29  C   UNL     1      42.754 -13.763   4.875  1.00  0.00     0.010 A 
BRANCH  27  30
HETATM   30  C   UNL     1      42.804 -16.968   2.819  1.00  0.00     0.034 C 
HETATM   31  C   UNL     1      43.698 -17.845   3.682  1.00  0.00     0.010 C 
ENDBRANCH  27  30
ENDBRANCH   1  24
BRANCH   4  32
HETATM   32  C   UNL     1      44.547 -10.444   9.137  1.00  0.00     0.261 C 
HETATM   33  N   UNL     1      43.406  -9.775   9.541  1.00  0.00    -0.323 N 
HETATM   34  H   UNL     1      42.663  -9.722   8.855  1.00  0.00     0.169 HD
HETATM   35  O   UNL     1      45.483 -10.777   9.855  1.00  0.00    -0.267 OA
BRANCH  33  36
HETATM   36  C   UNL     1      43.110  -9.278  10.826  1.00  0.00     0.035 A 
HETATM   37  C   UNL     1      43.178  -7.929  11.177  1.00  0.00     0.029 A 
HETATM   38  C   UNL     1      42.869  -7.516  12.477  1.00  0.00     0.002 A 
HETATM   39  C   UNL     1      42.483  -8.449  13.437  1.00  0.00     0.000 A 
HETATM   40  C   UNL     1      42.404  -9.796  13.095  1.00  0.00     0.002 A 
HETATM   41  C   UNL     1      42.714 -10.208  11.797  1.00  0.00     0.029 A 
ENDBRANCH  33  36
ENDBRANCH   4  32
TORSDOF 7
ENDMDL
MODEL 6
REMARK VINA RESULT:      -8.9      3.056     10.009
REMARK  7 active torsions:
REMARK  status: ('A' for Active; 'I' for Inactive)
REMARK    1  A    between atoms: C_2  and  C_3 
REMARK    2  A    between atoms: C_6  and  C_7 
REMARK    3  A    between atoms: C_10  and  C_11 
REMARK       I    between atoms: C_11  and  N_12 
REMARK    4  A    between atoms: N_12  and  C_13 
REMARK    5  A    between atoms: C_25  and  C_26 
REMARK       I    between atoms: C_26  and  N_27 
REMARK    6  A    between atoms: N_27  and  C_28 
REMARK    7  A    between atoms: C_31  and  O_32 
ROOT
HETATM    1  C   UNL     1      40.512 -13.901   1.927  1.00  0.00     0.185 C 
HETATM    2  N   UNL     1      40.220 -13.793   0.487  1.00  0.00    -0.239 N 
HETATM    3  C   UNL     1      40.478 -12.674  -0.270  1.00  0.00     0.142 C 
HETATM    4  C   UNL     1      40.055 -12.974  -1.550  1.00  0.00     0.097 C 
HETATM    5  C   UNL     1      39.426 -14.238  -1.410  1.00  0.00     0.160 C 
HETATM    6  N   UNL     1      39.492 -14.726  -0.167  1.00  0.00    -0.181 NA
HETATM    7  N   UNL     1      41.006 -11.577   0.329  1.00  0.00    -0.343 N 
HETATM    8  C   UNL     1      41.192 -11.493   1.711  1.00  0.00     0.021 C 
HETATM    9  C   UNL     1      41.631 -10.145   2.234  1.00  0.00     0.069 C 
HETATM   10  C   UNL     1      40.954 -12.567   2.503  1.00  0.00     0.061 C 
HETATM   11  H   UNL     1      41.021 -10.678  -0.153  1.00  0.00     0.167 HD
ENDROOT
BRANCH  10  12
HETATM   12  C   UNL     1      41.200 -12.505   3.970  1.00  0.00     0.256 C 
HETATM   13  N   UNL     1      42.413 -11.931   4.292  1.00  0.00    -0.323 N 
HETATM   14  H   UNL     1      43.018 -11.645   3.535  1.00  0.00     0.169 HD
HETATM   15  O   UNL     1      40.364 -12.960   4.742  1.00  0.00    -0.267 OA
BRANCH  13  16
HETATM   16  C   UNL     1      42.945 -11.728   5.584  1.00  0.00     0.035 A 
HETATM   17  C   UNL     1      43.841 -12.596   6.208  1.00  0.00     0.032 A 
HETATM   18  C   UNL     1      44.343 -12.297   7.481  1.00  0.00     0.039 A 
HETATM   19  C   UNL     1      43.960 -11.133   8.147  1.00  0.00     0.068 A 
HETATM   20  C   UNL     1      43.044 -10.277   7.542  1.00  0.00     0.039 A 
HETATM   21  C   UNL     1      42.544 -10.573   6.266  1.00  0.00     0.032 A 
BRANCH  19  22
HETATM   22  O   UNL     1      44.537 -10.950   9.372  1.00  0.00    -0.356 OA
HETATM   23  C   UNL     1      45.378  -9.812   9.515  1.00  0.00     0.210 C 
ENDBRANCH  19  22
ENDBRANCH  13  16
ENDBRANCH  10  12
BRANCH   1  24
HETATM   24  C   UNL     1      41.481 -15.052   2.180  1.00  0.00    -0.029 A 
HETATM   25  C   UNL     1      42.744 -15.116   1.571  1.00  0.00     0.010 A 
HETATM   26  C   UNL     1      43.607 -16.183   1.829  1.00  0.00     0.007 A 
HETATM   27  C   UNL     1      43.221 -17.223   2.683  1.00  0.00    -0.059 A 
HETATM   28  C   UNL     1      41.958 -17.172   3.282  1.00  0.00     0.007 A 
HETATM   29  C   UNL     1      41.097 -16.102   3.030  1.00  0.00     0.010 A 
BRANCH  27  30
HETATM   30  C   UNL     1      44.159 -18.365   2.975  1.00  0.00     0.034 C 
HETATM   31  C   UNL     1      43.620 -19.686   2.450  1.00  0.00     0.010 C 
ENDBRANCH  27  30
ENDBRANCH   1  24
BRANCH   4  32
HETATM   32  C   UNL     1      40.145 -12.190  -2.769  1.00  0.00     0.261 C 
HETATM   33  N   UNL     1      39.569 -10.937  -2.660  1.00  0.00    -0.323 N 
HETATM   34  H   UNL     1      39.273 -10.669  -1.729  1.00  0.00     0.169 HD
HETATM   35  O   UNL     1      40.726 -12.635  -3.751  1.00  0.00    -0.267 OA
BRANCH  33  36
HETATM   36  C   UNL     1      39.467  -9.947  -3.658  1.00  0.00     0.035 A 
HETATM   37  C   UNL     1      38.268  -9.573  -4.267  1.00  0.00     0.029 A 
HETATM   38  C   UNL     1      38.251  -8.581  -5.254  1.00  0.00     0.002 A 
HETATM   39  C   UNL     1      39.433  -7.950  -5.635  1.00  0.00     0.000 A 
HETATM   40  C   UNL     1      40.633  -8.311  -5.029  1.00  0.00     0.002 A 
HETATM   41  C   UNL     1      40.650  -9.303  -4.045  1.00  0.00     0.029 A 
ENDBRANCH  33  36
ENDBRANCH   4  32
TORSDOF 7
ENDMDL
MODEL 7
REMARK VINA RESULT:      -8.5      4.006      9.988
REMARK  7 active torsions:
REMARK  status: ('A' for Active; 'I' for Inactive)
REMARK    1  A    between atoms: C_2  and  C_3 
REMARK    2  A    between atoms: C_6  and  C_7 
REMARK    3  A    between atoms: C_10  and  C_11 
REMARK       I    between atoms: C_11  and  N_12 
REMARK    4  A    between atoms: N_12  and  C_13 
REMARK    5  A    between atoms: C_25  and  C_26 
REMARK       I    between atoms: C_26  and  N_27 
REMARK    6  A    between atoms: N_27  and  C_28 
REMARK    7  A    between atoms: C_31  and  O_32 
ROOT
HETATM    1  C   UNL     1      41.512 -12.341   1.859  1.00  0.00     0.185 C 
HETATM    2  N   UNL     1      41.336 -11.243   0.892  1.00  0.00    -0.239 N 
HETATM    3  C   UNL     1      40.630 -11.356  -0.283  1.00  0.00     0.142 C 
HETATM    4  C   UNL     1      40.712 -10.123  -0.898  1.00  0.00     0.097 C 
HETATM    5  C   UNL     1      41.614  -9.396  -0.078  1.00  0.00     0.160 C 
HETATM    6  N   UNL     1      42.024 -10.084   0.993  1.00  0.00    -0.181 NA
HETATM    7  N   UNL     1      40.077 -12.552  -0.610  1.00  0.00    -0.343 N 
HETATM    8  C   UNL     1      40.292 -13.710   0.142  1.00  0.00     0.021 C 
HETATM    9  C   UNL     1      39.743 -14.988  -0.449  1.00  0.00     0.069 C 
HETATM   10  C   UNL     1      40.979 -13.652   1.309  1.00  0.00     0.061 C 
HETATM   11  H   UNL     1      39.725 -12.722  -1.553  1.00  0.00     0.167 HD
ENDROOT
BRANCH  10  12
HETATM   12  C   UNL     1      41.168 -14.870   2.145  1.00  0.00     0.256 C 
HETATM   13  N   UNL     1      42.464 -15.344   2.127  1.00  0.00    -0.323 N 
HETATM   14  H   UNL     1      43.136 -14.863   1.546  1.00  0.00     0.169 HD
HETATM   15  O   UNL     1      40.210 -15.348   2.739  1.00  0.00    -0.267 OA
BRANCH  13  16
HETATM   16  C   UNL     1      42.969 -16.474   2.805  1.00  0.00     0.035 A 
HETATM   17  C   UNL     1      43.068 -17.746   2.243  1.00  0.00     0.032 A 
HETATM   18  C   UNL     1      43.613 -18.805   2.982  1.00  0.00     0.039 A 
HETATM   19  C   UNL     1      44.067 -18.608   4.286  1.00  0.00     0.068 A 
HETATM   20  C   UNL     1      43.944 -17.348   4.863  1.00  0.00     0.039 A 
HETATM   21  C   UNL     1      43.402 -16.288   4.124  1.00  0.00     0.032 A 
BRANCH  19  22
HETATM   22  O   UNL     1      44.594 -19.717   4.888  1.00  0.00    -0.356 OA
HETATM   23  C   UNL     1      43.969 -20.959   4.589  1.00  0.00     0.210 C 
ENDBRANCH  19  22
ENDBRANCH  13  16
ENDBRANCH  10  12
BRANCH   1  24
HETATM   24  C   UNL     1      40.934 -11.943   3.214  1.00  0.00    -0.029 A 
HETATM   25  C   UNL     1      41.648 -12.106   4.411  1.00  0.00     0.010 A 
HETATM   26  C   UNL     1      41.088 -11.727   5.633  1.00  0.00     0.007 A 
HETATM   27  C   UNL     1      39.794 -11.198   5.691  1.00  0.00    -0.059 A 
HETATM   28  C   UNL     1      39.071 -11.047   4.503  1.00  0.00     0.007 A 
HETATM   29  C   UNL     1      39.632 -11.419   3.280  1.00  0.00     0.010 A 
BRANCH  27  30
HETATM   30  C   UNL     1      39.196 -10.773   7.008  1.00  0.00     0.034 C 
HETATM   31  C   UNL     1      39.946  -9.597   7.614  1.00  0.00     0.010 C 
ENDBRANCH  27  30
ENDBRANCH   1  24
BRANCH   4  32
HETATM   32  C   UNL     1      40.100  -9.651  -2.127  1.00  0.00     0.261 C 
HETATM   33  N   UNL     1      40.653  -8.475  -2.601  1.00  0.00    -0.323 N 
HETATM   34  H   UNL     1      41.484  -8.155  -2.117  1.00  0.00     0.169 HD
HETATM   35  O   UNL     1      39.214 -10.301  -2.668  1.00  0.00    -0.267 OA
BRANCH  33  36
HETATM   36  C   UNL     1      40.276  -7.747  -3.747  1.00  0.00     0.035 A 
HETATM   37  C   UNL     1      40.746  -8.017  -5.033  1.00  0.00     0.029 A 
HETATM   38  C   UNL     1      40.324  -7.244  -6.121  1.00  0.00     0.002 A 
HETATM   39  C   UNL     1      39.425  -6.197  -5.931  1.00  0.00     0.000 A 
HETATM   40  C   UNL     1      38.945  -5.924  -4.653  1.00  0.00     0.002 A 
HETATM   41  C   UNL     1      39.367  -6.695  -3.568  1.00  0.00     0.029 A 
ENDBRANCH  33  36
ENDBRANCH   4  32
TORSDOF 7
ENDMDL
MODEL 8
REMARK VINA RESULT:      -8.4      3.007      6.259
REMARK  7 active torsions:
REMARK  status: ('A' for Active; 'I' for Inactive)
REMARK    1  A    between atoms: C_2  and  C_3 
REMARK    2  A    between atoms: C_6  and  C_7 
REMARK    3  A    between atoms: C_10  and  C_11 
REMARK       I    between atoms: C_11  and  N_12 
REMARK    4  A    between atoms: N_12  and  C_13 
REMARK    5  A    between atoms: C_25  and  C_26 
REMARK       I    between atoms: C_26  and  N_27 
REMARK    6  A    between atoms: N_27  and  C_28 
REMARK    7  A    between atoms: C_31  and  O_32 
ROOT
HETATM    1  C   UNL     1      40.586 -12.082   3.747  1.00  0.00     0.185 C 
HETATM    2  N   UNL     1      39.970 -11.015   4.556  1.00  0.00    -0.239 N 
HETATM    3  C   UNL     1      40.566 -10.436   5.652  1.00  0.00     0.142 C 
HETATM    4  C   UNL     1      39.668  -9.500   6.125  1.00  0.00     0.097 C 
HETATM    5  C   UNL     1      38.511  -9.710   5.329  1.00  0.00     0.160 C 
HETATM    6  N   UNL     1      38.677 -10.654   4.396  1.00  0.00    -0.181 NA
HETATM    7  N   UNL     1      41.785 -10.878   6.052  1.00  0.00    -0.343 N 
HETATM    8  C   UNL     1      42.413 -11.980   5.468  1.00  0.00     0.021 C 
HETATM    9  C   UNL     1      43.686 -12.444   6.139  1.00  0.00     0.069 C 
HETATM   10  C   UNL     1      41.869 -12.586   4.385  1.00  0.00     0.061 C 
HETATM   11  H   UNL     1      42.159 -10.615   6.965  1.00  0.00     0.167 HD
ENDROOT
BRANCH  10  12
HETATM   12  C   UNL     1      42.558 -13.728   3.721  1.00  0.00     0.256 C 
HETATM   13  N   UNL     1      42.136 -14.957   4.183  1.00  0.00    -0.323 N 
HETATM   14  H   UNL     1      41.450 -14.975   4.924  1.00  0.00     0.169 HD
HETATM   15  O   UNL     1      43.414 -13.505   2.874  1.00  0.00    -0.267 OA
BRANCH  13  16
HETATM   16  C   UNL     1      42.591 -16.227   3.767  1.00  0.00     0.035 A 
HETATM   17  C   UNL     1      42.205 -16.848   2.579  1.00  0.00     0.032 A 
HETATM   18  C   UNL     1      42.733 -18.098   2.231  1.00  0.00     0.039 A 
HETATM   19  C   UNL     1      43.650 -18.744   3.060  1.00  0.00     0.068 A 
HETATM   20  C   UNL     1      44.016 -18.143   4.262  1.00  0.00     0.039 A 
HETATM   21  C   UNL     1      43.492 -16.891   4.609  1.00  0.00     0.032 A 
BRANCH  19  22
HETATM   22  O   UNL     1      44.102 -19.947   2.596  1.00  0.00    -0.356 OA
HETATM   23  C   UNL     1      43.962 -21.059   3.472  1.00  0.00     0.210 C 
ENDBRANCH  19  22
ENDBRANCH  13  16
ENDBRANCH  10  12
BRANCH   1  24
HETATM   24  C   UNL     1      40.738 -11.621   2.301  1.00  0.00    -0.029 A 
HETATM   25  C   UNL     1      40.158 -12.317   1.228  1.00  0.00     0.010 A 
HETATM   26  C   UNL     1      40.315 -11.863  -0.084  1.00  0.00     0.007 A 
HETATM   27  C   UNL     1      41.073 -10.719  -0.358  1.00  0.00    -0.059 A 
HETATM   28  C   UNL     1      41.667 -10.031   0.705  1.00  0.00     0.007 A 
HETATM   29  C   UNL     1      41.504 -10.479   2.018  1.00  0.00     0.010 A 
BRANCH  27  30
HETATM   30  C   UNL     1      41.228 -10.221  -1.771  1.00  0.00     0.034 C 
HETATM   31  C   UNL     1      40.899 -11.301  -2.790  1.00  0.00     0.010 C 
ENDBRANCH  27  30
ENDBRANCH   1  24
BRANCH   4  32
HETATM   32  C   UNL     1      39.797  -8.552   7.217  1.00  0.00     0.261 C 
HETATM   33  N   UNL     1      40.957  -7.800   7.158  1.00  0.00    -0.323 N 
HETATM   34  H   UNL     1      41.505  -7.905   6.313  1.00  0.00     0.169 HD
HETATM   35  O   UNL     1      38.908  -8.444   8.053  1.00  0.00    -0.267 OA
BRANCH  33  36
HETATM   36  C   UNL     1      41.392  -6.817   8.068  1.00  0.00     0.035 A 
HETATM   37  C   UNL     1      40.892  -5.514   8.110  1.00  0.00     0.029 A 
HETATM   38  C   UNL     1      41.381  -4.596   9.046  1.00  0.00     0.002 A 
HETATM   39  C   UNL     1      42.370  -4.973   9.951  1.00  0.00     0.000 A 
HETATM   40  C   UNL     1      42.870  -6.272   9.922  1.00  0.00     0.002 A 
HETATM   41  C   UNL     1      42.383  -7.189   8.988  1.00  0.00     0.029 A 
ENDBRANCH  33  36
ENDBRANCH   4  32
TORSDOF 7
ENDMDL
MODEL 9
REMARK VINA RESULT:      -8.3      3.015      5.661
REMARK  7 active torsions:
REMARK  status: ('A' for Active; 'I' for Inactive)
REMARK    1  A    between atoms: C_2  and  C_3 
REMARK    2  A    between atoms: C_6  and  C_7 
REMARK    3  A    between atoms: C_10  and  C_11 
REMARK       I    between atoms: C_11  and  N_12 
REMARK    4  A    between atoms: N_12  and  C_13 
REMARK    5  A    between atoms: C_25  and  C_26 
REMARK       I    between atoms: C_26  and  N_27 
REMARK    6  A    between atoms: N_27  and  C_28 
REMARK    7  A    between atoms: C_31  and  O_32 
ROOT
HETATM    1  C   UNL     1      40.669 -11.926   5.760  1.00  0.00     0.185 C 
HETATM    2  N   UNL     1      40.627 -10.531   6.231  1.00  0.00    -0.239 N 
HETATM    3  C   UNL     1      41.699  -9.873   6.788  1.00  0.00     0.142 C 
HETATM    4  C   UNL     1      41.249  -8.605   7.100  1.00  0.00     0.097 C 
HETATM    5  C   UNL     1      39.857  -8.665   6.825  1.00  0.00     0.160 C 
HETATM    6  N   UNL     1      39.467  -9.844   6.330  1.00  0.00    -0.181 NA
HETATM    7  N   UNL     1      42.870 -10.538   6.953  1.00  0.00    -0.343 N 
HETATM    8  C   UNL     1      43.003 -11.903   6.688  1.00  0.00     0.021 C 
HETATM    9  C   UNL     1      44.324 -12.523   7.082  1.00  0.00     0.069 C 
HETATM   10  C   UNL     1      41.978 -12.598   6.137  1.00  0.00     0.061 C 
HETATM   11  H   UNL     1      43.611 -10.148   7.537  1.00  0.00     0.167 HD
ENDROOT
BRANCH  10  12
HETATM   12  C   UNL     1      42.127 -14.041   5.801  1.00  0.00     0.256 C 
HETATM   13  N   UNL     1      42.791 -14.254   4.611  1.00  0.00    -0.323 N 
HETATM   14  H   UNL     1      43.078 -13.446   4.077  1.00  0.00     0.169 HD
HETATM   15  O   UNL     1      41.657 -14.887   6.553  1.00  0.00    -0.267 OA
BRANCH  13  16
HETATM   16  C   UNL     1      43.090 -15.497   4.011  1.00  0.00     0.035 A 
HETATM   17  C   UNL     1      42.828 -15.806   2.676  1.00  0.00     0.032 A 
HETATM   18  C   UNL     1      43.188 -17.056   2.157  1.00  0.00     0.039 A 
HETATM   19  C   UNL     1      43.813 -18.011   2.959  1.00  0.00     0.068 A 
HETATM   20  C   UNL     1      44.050 -17.720   4.299  1.00  0.00     0.039 A 
HETATM   21  C   UNL     1      43.693 -16.468   4.819  1.00  0.00     0.032 A 
BRANCH  19  22
HETATM   22  O   UNL     1      44.129 -19.180   2.325  1.00  0.00    -0.356 OA
HETATM   23  C   UNL     1      43.098 -20.156   2.241  1.00  0.00     0.210 C 
ENDBRANCH  19  22
ENDBRANCH  13  16
ENDBRANCH  10  12
BRANCH   1  24
HETATM   24  C   UNL     1      40.332 -11.988   4.274  1.00  0.00    -0.029 A 
HETATM   25  C   UNL     1      39.314 -12.811   3.769  1.00  0.00     0.010 A 
HETATM   26  C   UNL     1      39.032 -12.839   2.401  1.00  0.00     0.007 A 
HETATM   27  C   UNL     1      39.774 -12.064   1.503  1.00  0.00    -0.059 A 
HETATM   28  C   UNL     1      40.801 -11.253   1.998  1.00  0.00     0.007 A 
HETATM   29  C   UNL     1      41.079 -11.219   3.366  1.00  0.00     0.010 A 
BRANCH  27  30
HETATM   30  C   UNL     1      39.458 -12.081   0.030  1.00  0.00     0.034 C 
HETATM   31  C   UNL     1      40.343 -13.060  -0.726  1.00  0.00     0.010 C 
ENDBRANCH  27  30
ENDBRANCH   1  24
BRANCH   4  32
HETATM   32  C   UNL     1      41.967  -7.468   7.646  1.00  0.00     0.261 C 
HETATM   33  N   UNL     1      41.164  -6.607   8.371  1.00  0.00    -0.323 N 
HETATM   34  H   UNL     1      40.218  -6.927   8.541  1.00  0.00     0.169 HD
HETATM   35  O   UNL     1      43.177  -7.362   7.482  1.00  0.00    -0.267 OA
BRANCH  33  36
HETATM   36  C   UNL     1      41.542  -5.407   9.007  1.00  0.00     0.035 A 
HETATM   37  C   UNL     1      41.249  -4.135   8.514  1.00  0.00     0.029 A 
HETATM   38  C   UNL     1      41.663  -2.992   9.206  1.00  0.00     0.002 A 
HETATM   39  C   UNL     1      42.369  -3.111  10.401  1.00  0.00     0.000 A 
HETATM   40  C   UNL     1      42.659  -4.376  10.906  1.00  0.00     0.002 A 
HETATM   41  C   UNL     1      42.247  -5.517  10.214  1.00  0.00     0.029 A 
ENDBRANCH  33  36
ENDBRANCH   4  32
TORSDOF 7
ENDMDL
MODEL 10
REMARK VINA RESULT:      -8.2      3.313     10.629
REMARK  7 active torsions:
REMARK  status: ('A' for Active; 'I' for Inactive)
REMARK    1  A    between atoms: C_2  and  C_3 
REMARK    2  A    between atoms: C_6  and  C_7 
REMARK    3  A    between atoms: C_10  and  C_11 
REMARK       I    between atoms: C_11  and  N_12 
REMARK    4  A    between atoms: N_12  and  C_13 
REMARK    5  A    between atoms: C_25  and  C_26 
REMARK       I    between atoms: C_26  and  N_27 
REMARK    6  A    between atoms: N_27  and  C_28 
REMARK    7  A    between atoms: C_31  and  O_32 
ROOT
HETATM    1  C   UNL     1      42.779  -9.036   6.573  1.00  0.00     0.185 C 
HETATM    2  N   UNL     1      42.660 -10.310   5.843  1.00  0.00    -0.239 N 
HETATM    3  C   UNL     1      42.905 -11.544   6.400  1.00  0.00     0.142 C 
HETATM    4  C   UNL     1      42.693 -12.466   5.394  1.00  0.00     0.097 C 
HETATM    5  C   UNL     1      42.472 -11.664   4.244  1.00  0.00     0.160 C 
HETATM    6  N   UNL     1      42.485 -10.353   4.504  1.00  0.00    -0.181 NA
HETATM    7  N   UNL     1      43.313 -11.617   7.692  1.00  0.00    -0.343 N 
HETATM    8  C   UNL     1      43.609 -10.482   8.452  1.00  0.00     0.021 C 
HETATM    9  C   UNL     1      44.209 -10.742   9.814  1.00  0.00     0.069 C 
HETATM   10  C   UNL     1      43.384  -9.243   7.951  1.00  0.00     0.061 C 
HETATM   11  H   UNL     1      43.692 -12.486   8.069  1.00  0.00     0.167 HD
ENDROOT
BRANCH  10  12
HETATM   12  C   UNL     1      43.644  -8.028   8.772  1.00  0.00     0.256 C 
HETATM   13  N   UNL     1      42.599  -7.709   9.614  1.00  0.00    -0.323 N 
HETATM   14  H   UNL     1      41.769  -8.283   9.578  1.00  0.00     0.169 HD
HETATM   15  O   UNL     1      44.701  -7.423   8.635  1.00  0.00    -0.267 OA
BRANCH  13  16
HETATM   16  C   UNL     1      42.528  -6.622  10.513  1.00  0.00     0.035 A 
HETATM   17  C   UNL     1      42.407  -6.755  11.895  1.00  0.00     0.032 A 
HETATM   18  C   UNL     1      42.376  -5.618  12.714  1.00  0.00     0.039 A 
HETATM   19  C   UNL     1      42.467  -4.339  12.166  1.00  0.00     0.068 A 
HETATM   20  C   UNL     1      42.558  -4.199  10.784  1.00  0.00     0.039 A 
HETATM   21  C   UNL     1      42.593  -5.335   9.965  1.00  0.00     0.032 A 
BRANCH  19  22
HETATM   22  O   UNL     1      42.445  -3.318  13.075  1.00  0.00    -0.356 OA
HETATM   23  C   UNL     1      43.296  -2.210  12.806  1.00  0.00     0.210 C 
ENDBRANCH  19  22
ENDBRANCH  13  16
ENDBRANCH  10  12
BRANCH   1  24
HETATM   24  C   UNL     1      41.439  -8.306   6.575  1.00  0.00    -0.029 A 
HETATM   25  C   UNL     1      41.300  -6.993   6.099  1.00  0.00     0.010 A 
HETATM   26  C   UNL     1      40.057  -6.357   6.113  1.00  0.00     0.007 A 
HETATM   27  C   UNL     1      38.928  -7.008   6.623  1.00  0.00    -0.059 A 
HETATM   28  C   UNL     1      39.063  -8.311   7.113  1.00  0.00     0.007 A 
HETATM   29  C   UNL     1      40.304  -8.951   7.093  1.00  0.00     0.010 A 
BRANCH  27  30
HETATM   30  C   UNL     1      37.583  -6.328   6.622  1.00  0.00     0.034 C 
HETATM   31  C   UNL     1      37.653  -4.938   7.234  1.00  0.00     0.010 C 
ENDBRANCH  27  30
ENDBRANCH   1  24
BRANCH   4  32
HETATM   32  C   UNL     1      42.741 -13.916   5.433  1.00  0.00     0.261 C 
HETATM   33  N   UNL     1      43.183 -14.483   4.251  1.00  0.00    -0.323 N 
HETATM   34  H   UNL     1      43.535 -13.834   3.557  1.00  0.00     0.169 HD
HETATM   35  O   UNL     1      42.448 -14.519   6.458  1.00  0.00    -0.267 OA
BRANCH  33  36
HETATM   36  C   UNL     1      43.323 -15.853   3.953  1.00  0.00     0.035 A 
HETATM   37  C   UNL     1      43.922 -16.781   4.807  1.00  0.00     0.029 A 
HETATM   38  C   UNL     1      44.023 -18.126   4.436  1.00  0.00     0.002 A 
HETATM   39  C   UNL     1      43.522 -18.556   3.209  1.00  0.00     0.000 A 
HETATM   40  C   UNL     1      42.916 -17.640   2.353  1.00  0.00     0.002 A 
HETATM   41  C   UNL     1      42.816 -16.297   2.724  1.00  0.00     0.029 A 
ENDBRANCH  33  36
ENDBRANCH   4  32
TORSDOF 7
ENDMDL
