MODEL 1
REMARK VINA RESULT:      -8.8      0.000      0.000
REMARK  7 active torsions:
REMARK  status: ('A' for Active; 'I' for Inactive)
REMARK    1  A    between atoms: C_7  and  C_8 
REMARK    2  A    between atoms: C_8  and  C_9 
REMARK    3  A    between atoms: C_9  and  C_10 
REMARK    4  A    between atoms: C_10  and  O_11 
REMARK    5  A    between atoms: C_13  and  C_14 
REMARK    6  A    between atoms: C_22  and  C_23 
REMARK       I    between atoms: C_23  and  N_24 
REMARK    7  A    between atoms: N_24  and  C_25 
ROOT
HETATM    1  C   UNL     1      40.590  -9.526   3.389  1.00  0.00     0.070 C 
HETATM    2  C   UNL     1      40.707 -10.870   2.711  1.00  0.00     0.037 C 
HETATM    3  N   UNL     1      39.659 -11.212   1.860  1.00  0.00    -0.192 N 
HETATM    4  C   UNL     1      39.701 -12.274   1.034  1.00  0.00     0.726 A 
HETATM    5  N   UNL     1      40.714 -13.179   1.167  1.00  0.00    -0.083 N 
HETATM    6  N   UNL     1      40.696 -14.091   0.174  1.00  0.00    -0.140 NA
HETATM    7  C   UNL     1      39.604 -13.702  -0.501  1.00  0.00     0.166 A 
HETATM    8  N   UNL     1      38.957 -12.601   0.011  1.00  0.00    -0.046 NA
HETATM    9  C   UNL     1      41.811 -13.051   2.136  1.00  0.00     0.204 C 
HETATM   10  C   UNL     1      41.769 -11.706   2.853  1.00  0.00     0.062 C 
HETATM   11  H   UNL     1      38.941 -10.508   1.699  1.00  0.00     0.184 HD
ENDROOT
BRANCH  10  12
HETATM   12  C   UNL     1      42.903 -11.344   3.753  1.00  0.00     0.256 C 
HETATM   13  N   UNL     1      42.542 -11.150   5.070  1.00  0.00    -0.323 N 
HETATM   14  H   UNL     1      41.563 -11.161   5.320  1.00  0.00     0.169 HD
HETATM   15  O   UNL     1      44.033 -11.232   3.289  1.00  0.00    -0.267 OA
BRANCH  13  16
HETATM   16  C   UNL     1      43.409 -10.957   6.169  1.00  0.00     0.035 A 
HETATM   17  C   UNL     1      44.678 -11.536   6.272  1.00  0.00     0.032 A 
HETATM   18  C   UNL     1      45.451 -11.341   7.420  1.00  0.00     0.044 A 
HETATM   19  C   UNL     1      44.961 -10.558   8.458  1.00  0.00     0.116 A 
HETATM   20  F   UNL     1      45.703 -10.376   9.557  1.00  0.00    -0.206 F 
HETATM   21  C   UNL     1      43.709  -9.967   8.370  1.00  0.00     0.044 A 
HETATM   22  C   UNL     1      42.930 -10.172   7.229  1.00  0.00     0.032 A 
ENDBRANCH  13  16
ENDBRANCH  10  12
BRANCH   9  23
HETATM   23  C   UNL     1      41.795 -14.243   3.091  1.00  0.00    -0.005 A 
HETATM   24  C   UNL     1      42.604 -15.383   2.897  1.00  0.00     0.064 A 
HETATM   25 CL   UNL     1      43.714 -15.454   1.562  1.00  0.00    -0.082 Cl
HETATM   26  C   UNL     1      42.523 -16.463   3.794  1.00  0.00     0.056 A 
HETATM   27 CL   UNL     1      43.477 -17.897   3.614  1.00  0.00    -0.083 Cl
HETATM   28  C   UNL     1      41.653 -16.414   4.886  1.00  0.00     0.026 A 
HETATM   29  C   UNL     1      40.859 -15.290   5.094  1.00  0.00     0.002 A 
HETATM   30  C   UNL     1      40.929 -14.217   4.207  1.00  0.00     0.011 A 
ENDBRANCH   9  23
BRANCH   7  31
HETATM   31  C   UNL     1      39.190 -14.340  -1.776  1.00  0.00     0.085 C 
BRANCH  31  32
HETATM   32  C   UNL     1      39.279 -13.388  -2.969  1.00  0.00     0.034 C 
BRANCH  32  33
HETATM   33  C   UNL     1      40.623 -12.673  -3.067  1.00  0.00     0.164 C 
BRANCH  33  34
HETATM   34  O   UNL     1      41.636 -13.604  -3.434  1.00  0.00    -0.401 OA
HETATM   35  H   UNL     1      41.416 -13.943  -4.318  1.00  0.00     0.209 HD
ENDBRANCH  33  34
ENDBRANCH  32  33
ENDBRANCH  31  32
ENDBRANCH   7  31
TORSDOF 7
ENDMDL
MODEL 2
REMARK VINA RESULT:      -8.7      3.565      6.232
REMARK  7 active torsions:
REMARK  status: ('A' for Active; 'I' for Inactive)
REMARK    1  A    between atoms: C_7  and  C_8 
REMARK    2  A    between atoms: C_8  and  C_9 
REMARK    3  A    between atoms: C_9  and  C_10 
REMARK    4  A    between atoms: C_10  and  O_11 
REMARK    5  A    between atoms: C_13  and  C_14 
REMARK    6  A    between atoms: C_22  and  C_23 
REMARK       I    between atoms: C_23  and  N_24 
REMARK    7  A    between atoms: N_24  and  C_25 
ROOT
HETATM    1  C   UNL     1      39.916 -14.948  -0.102  1.00  0.00     0.070 C 
HETATM    2  C   UNL     1      39.883 -13.868   0.952  1.00  0.00     0.037 C 
HETATM    3  N   UNL     1      39.439 -12.619   0.525  1.00  0.00    -0.192 N 
HETATM    4  C   UNL     1      39.162 -11.610   1.372  1.00  0.00     0.726 A 
HETATM    5  N   UNL     1      39.519 -11.727   2.684  1.00  0.00    -0.083 N 
HETATM    6  N   UNL     1      39.039 -10.704   3.421  1.00  0.00    -0.140 NA
HETATM    7  C   UNL     1      38.439  -9.973   2.469  1.00  0.00     0.166 A 
HETATM    8  N   UNL     1      38.513 -10.490   1.196  1.00  0.00    -0.046 NA
HETATM    9  C   UNL     1      40.153 -12.920   3.262  1.00  0.00     0.204 C 
HETATM   10  C   UNL     1      40.210 -14.065   2.257  1.00  0.00     0.062 C 
HETATM   11  H   UNL     1      39.100 -12.548  -0.432  1.00  0.00     0.184 HD
ENDROOT
BRANCH  10  12
HETATM   12  C   UNL     1      40.675 -15.402   2.728  1.00  0.00     0.256 C 
HETATM   13  N   UNL     1      42.026 -15.624   2.559  1.00  0.00    -0.323 N 
HETATM   14  H   UNL     1      42.578 -14.945   2.055  1.00  0.00     0.169 HD
HETATM   15  O   UNL     1      39.866 -16.193   3.203  1.00  0.00    -0.267 OA
BRANCH  13  16
HETATM   16  C   UNL     1      42.774 -16.719   3.046  1.00  0.00     0.035 A 
HETATM   17  C   UNL     1      42.906 -17.936   2.370  1.00  0.00     0.032 A 
HETATM   18  C   UNL     1      43.617 -18.992   2.950  1.00  0.00     0.044 A 
HETATM   19  C   UNL     1      44.204 -18.825   4.198  1.00  0.00     0.116 A 
HETATM   20  F   UNL     1      44.881 -19.839   4.751  1.00  0.00    -0.206 F 
HETATM   21  C   UNL     1      44.093 -17.622   4.880  1.00  0.00     0.044 A 
HETATM   22  C   UNL     1      43.372 -16.572   4.308  1.00  0.00     0.032 A 
ENDBRANCH  13  16
ENDBRANCH  10  12
BRANCH   9  23
HETATM   23  C   UNL     1      41.522 -12.549   3.829  1.00  0.00    -0.005 A 
HETATM   24  C   UNL     1      41.942 -12.944   5.118  1.00  0.00     0.064 A 
HETATM   25 CL   UNL     1      40.915 -13.933   6.111  1.00  0.00    -0.082 Cl
HETATM   26  C   UNL     1      43.204 -12.548   5.598  1.00  0.00     0.056 A 
HETATM   27 CL   UNL     1      43.781 -12.985   7.171  1.00  0.00    -0.083 Cl
HETATM   28  C   UNL     1      44.052 -11.772   4.805  1.00  0.00     0.026 A 
HETATM   29  C   UNL     1      43.654 -11.387   3.529  1.00  0.00     0.002 A 
HETATM   30  C   UNL     1      42.404 -11.771   3.046  1.00  0.00     0.011 A 
ENDBRANCH   9  23
BRANCH   7  31
HETATM   31  C   UNL     1      37.651  -8.755   2.784  1.00  0.00     0.085 C 
BRANCH  31  32
HETATM   32  C   UNL     1      38.390  -7.800   3.722  1.00  0.00     0.034 C 
BRANCH  32  33
HETATM   33  C   UNL     1      37.790  -7.752   5.123  1.00  0.00     0.164 C 
BRANCH  33  34
HETATM   34  O   UNL     1      37.231  -9.020   5.450  1.00  0.00    -0.401 OA
HETATM   35  H   UNL     1      37.298  -9.582   4.660  1.00  0.00     0.209 HD
ENDBRANCH  33  34
ENDBRANCH  32  33
ENDBRANCH  31  32
ENDBRANCH   7  31
TORSDOF 7
ENDMDL
MODEL 3
REMARK VINA RESULT:      -8.4      3.548      7.878
REMARK  7 active torsions:
REMARK  status: ('A' for Active; 'I' for Inactive)
REMARK    1  A    between atoms: C_7  and  C_8 
REMARK    2  A    between atoms: C_8  and  C_9 
REMARK    3  A    between atoms: C_9  and  C_10 
REMARK    4  A    between atoms: C_10  and  O_11 
REMARK    5  A    between atoms: C_13  and  C_14 
REMARK    6  A    between atoms: C_22  and  C_23 
REMARK       I    between atoms: C_23  and  N_24 
REMARK    7  A    between atoms: N_24  and  C_25 
ROOT
HETATM    1  C   UNL     1      41.340 -10.080   1.322  1.00  0.00     0.070 C 
HETATM    2  C   UNL     1      41.791 -11.024   2.410  1.00  0.00     0.037 C 
HETATM    3  N   UNL     1      42.818 -10.560   3.227  1.00  0.00    -0.192 N 
HETATM    4  C   UNL     1      43.199 -11.187   4.356  1.00  0.00     0.726 A 
HETATM    5  N   UNL     1      42.712 -12.434   4.619  1.00  0.00    -0.083 N 
HETATM    6  N   UNL     1      43.068 -12.856   5.849  1.00  0.00    -0.140 NA
HETATM    7  C   UNL     1      43.820 -11.822   6.258  1.00  0.00     0.166 A 
HETATM    8  N   UNL     1      43.938 -10.788   5.357  1.00  0.00    -0.046 NA
HETATM    9  C   UNL     1      41.746 -13.138   3.765  1.00  0.00     0.204 C 
HETATM   10  C   UNL     1      41.230 -12.240   2.647  1.00  0.00     0.062 C 
HETATM   11  H   UNL     1      43.131  -9.602   3.083  1.00  0.00     0.184 HD
ENDROOT
BRANCH  10  12
HETATM   12  C   UNL     1      40.120 -12.742   1.785  1.00  0.00     0.256 C 
HETATM   13  N   UNL     1      40.352 -12.615   0.430  1.00  0.00    -0.323 N 
HETATM   14  H   UNL     1      41.173 -12.117   0.116  1.00  0.00     0.169 HD
HETATM   15  O   UNL     1      39.111 -13.205   2.305  1.00  0.00    -0.267 OA
BRANCH  13  16
HETATM   16  C   UNL     1      39.564 -13.139  -0.619  1.00  0.00     0.035 A 
HETATM   17  C   UNL     1      39.804 -14.372  -1.233  1.00  0.00     0.032 A 
HETATM   18  C   UNL     1      39.012 -14.792  -2.305  1.00  0.00     0.044 A 
HETATM   19  C   UNL     1      37.973 -13.986  -2.753  1.00  0.00     0.116 A 
HETATM   20  F   UNL     1      37.218 -14.390  -3.782  1.00  0.00    -0.206 F 
HETATM   21  C   UNL     1      37.713 -12.764  -2.150  1.00  0.00     0.044 A 
HETATM   22  C   UNL     1      38.512 -12.337  -1.088  1.00  0.00     0.032 A 
ENDBRANCH  13  16
ENDBRANCH  10  12
BRANCH   9  23
HETATM   23  C   UNL     1      42.363 -14.439   3.255  1.00  0.00    -0.005 A 
HETATM   24  C   UNL     1      42.362 -15.629   4.015  1.00  0.00     0.064 A 
HETATM   25 CL   UNL     1      41.596 -15.674   5.574  1.00  0.00    -0.082 Cl
HETATM   26  C   UNL     1      42.972 -16.789   3.505  1.00  0.00     0.056 A 
HETATM   27 CL   UNL     1      43.019 -18.281   4.383  1.00  0.00    -0.083 Cl
HETATM   28  C   UNL     1      43.573 -16.777   2.243  1.00  0.00     0.026 A 
HETATM   29  C   UNL     1      43.569 -15.614   1.480  1.00  0.00     0.002 A 
HETATM   30  C   UNL     1      42.972 -14.458   1.980  1.00  0.00     0.011 A 
ENDBRANCH   9  23
BRANCH   7  31
HETATM   31  C   UNL     1      44.386 -11.745   7.628  1.00  0.00     0.085 C 
BRANCH  31  32
HETATM   32  C   UNL     1      45.625 -10.852   7.705  1.00  0.00     0.034 C 
BRANCH  32  33
HETATM   33  C   UNL     1      45.388  -9.561   8.482  1.00  0.00     0.164 C 
BRANCH  33  34
HETATM   34  O   UNL     1      46.129  -8.500   7.887  1.00  0.00    -0.401 OA
HETATM   35  H   UNL     1      46.140  -8.652   6.927  1.00  0.00     0.209 HD
ENDBRANCH  33  34
ENDBRANCH  32  33
ENDBRANCH  31  32
ENDBRANCH   7  31
TORSDOF 7
ENDMDL
MODEL 4
REMARK VINA RESULT:      -8.4      3.746      7.453
REMARK  7 active torsions:
REMARK  status: ('A' for Active; 'I' for Inactive)
REMARK    1  A    between atoms: C_7  and  C_8 
REMARK    2  A    between atoms: C_8  and  C_9 
REMARK    3  A    between atoms: C_9  and  C_10 
REMARK    4  A    between atoms: C_10  and  O_11 
REMARK    5  A    between atoms: C_13  and  C_14 
REMARK    6  A    between atoms: C_22  and  C_23 
REMARK       I    between atoms: C_23  and  N_24 
REMARK    7  A    between atoms: N_24  and  C_25 
ROOT
HETATM    1  C   UNL     1      40.112 -15.628   6.771  1.00  0.00     0.070 C 
HETATM    2  C   UNL     1      40.463 -14.378   6.003  1.00  0.00     0.037 C 
HETATM    3  N   UNL     1      40.250 -13.176   6.673  1.00  0.00    -0.192 N 
HETATM    4  C   UNL     1      40.691 -11.990   6.212  1.00  0.00     0.726 A 
HETATM    5  N   UNL     1      41.188 -11.915   4.943  1.00  0.00    -0.083 N 
HETATM    6  N   UNL     1      41.723 -10.702   4.692  1.00  0.00    -0.140 NA
HETATM    7  C   UNL     1      41.466 -10.073   5.849  1.00  0.00     0.166 A 
HETATM    8  N   UNL     1      40.815 -10.829   6.798  1.00  0.00    -0.046 NA
HETATM    9  C   UNL     1      41.323 -13.066   4.041  1.00  0.00     0.204 C 
HETATM   10  C   UNL     1      40.999 -14.375   4.753  1.00  0.00     0.062 C 
HETATM   11  H   UNL     1      39.953 -13.231   7.645  1.00  0.00     0.184 HD
ENDROOT
BRANCH  10  12
HETATM   12  C   UNL     1      41.242 -15.658   4.030  1.00  0.00     0.256 C 
HETATM   13  N   UNL     1      42.519 -16.157   4.176  1.00  0.00    -0.323 N 
HETATM   14  H   UNL     1      43.215 -15.601   4.653  1.00  0.00     0.169 HD
HETATM   15  O   UNL     1      40.339 -16.162   3.372  1.00  0.00    -0.267 OA
BRANCH  13  16
HETATM   16  C   UNL     1      42.992 -17.418   3.746  1.00  0.00     0.035 A 
HETATM   17  C   UNL     1      42.808 -17.920   2.455  1.00  0.00     0.032 A 
HETATM   18  C   UNL     1      43.257 -19.203   2.126  1.00  0.00     0.044 A 
HETATM   19  C   UNL     1      43.899 -19.976   3.085  1.00  0.00     0.116 A 
HETATM   20  F   UNL     1      44.324 -21.205   2.768  1.00  0.00    -0.206 F 
HETATM   21  C   UNL     1      44.100 -19.491   4.370  1.00  0.00     0.044 A 
HETATM   22  C   UNL     1      43.640 -18.216   4.702  1.00  0.00     0.032 A 
ENDBRANCH  13  16
ENDBRANCH  10  12
BRANCH   9  23
HETATM   23  C   UNL     1      40.480 -12.839   2.788  1.00  0.00    -0.005 A 
HETATM   24  C   UNL     1      40.913 -13.226   1.501  1.00  0.00     0.064 A 
HETATM   25 CL   UNL     1      42.433 -14.042   1.295  1.00  0.00    -0.082 Cl
HETATM   26  C   UNL     1      40.106 -12.963   0.379  1.00  0.00     0.056 A 
HETATM   27 CL   UNL     1      40.575 -13.400  -1.229  1.00  0.00    -0.083 Cl
HETATM   28  C   UNL     1      38.870 -12.329   0.529  1.00  0.00     0.026 A 
HETATM   29  C   UNL     1      38.428 -11.954   1.793  1.00  0.00     0.002 A 
HETATM   30  C   UNL     1      39.223 -12.205   2.910  1.00  0.00     0.011 A 
ENDBRANCH   9  23
BRANCH   7  31
HETATM   31  C   UNL     1      41.952  -8.699   6.131  1.00  0.00     0.085 C 
BRANCH  31  32
HETATM   32  C   UNL     1      42.478  -8.541   7.558  1.00  0.00     0.034 C 
BRANCH  32  33
HETATM   33  C   UNL     1      43.616  -9.501   7.888  1.00  0.00     0.164 C 
BRANCH  33  34
HETATM   34  O   UNL     1      43.177 -10.454   8.849  1.00  0.00    -0.401 OA
HETATM   35  H   UNL     1      42.558 -11.057   8.403  1.00  0.00     0.209 HD
ENDBRANCH  33  34
ENDBRANCH  32  33
ENDBRANCH  31  32
ENDBRANCH   7  31
TORSDOF 7
ENDMDL
MODEL 5
REMARK VINA RESULT:      -8.4      4.045      8.510
REMARK  7 active torsions:
REMARK  status: ('A' for Active; 'I' for Inactive)
REMARK    1  A    between atoms: C_7  and  C_8 
REMARK    2  A    between atoms: C_8  and  C_9 
REMARK    3  A    between atoms: C_9  and  C_10 
REMARK    4  A    between atoms: C_10  and  O_11 
REMARK    5  A    between atoms: C_13  and  C_14 
REMARK    6  A    between atoms: C_22  and  C_23 
REMARK       I    between atoms: C_23  and  N_24 
REMARK    7  A    between atoms: N_24  and  C_25 
ROOT
HETATM    1  C   UNL     1      41.211 -15.935   3.743  1.00  0.00     0.070 C 
HETATM    2  C   UNL     1      41.643 -14.562   4.198  1.00  0.00     0.037 C 
HETATM    3  N   UNL     1      42.508 -14.530   5.289  1.00  0.00    -0.192 N 
HETATM    4  C   UNL     1      43.139 -13.411   5.692  1.00  0.00     0.726 A 
HETATM    5  N   UNL     1      42.773 -12.212   5.154  1.00  0.00    -0.083 N 
HETATM    6  N   UNL     1      43.597 -11.220   5.549  1.00  0.00    -0.140 NA
HETATM    7  C   UNL     1      44.416 -11.891   6.374  1.00  0.00     0.166 A 
HETATM    8  N   UNL     1      44.150 -13.235   6.501  1.00  0.00    -0.046 NA
HETATM    9  C   UNL     1      41.752 -12.055   4.109  1.00  0.00     0.204 C 
HETATM   10  C   UNL     1      41.276 -13.405   3.586  1.00  0.00     0.062 C 
HETATM   11  H   UNL     1      42.843 -15.423   5.644  1.00  0.00     0.184 HD
ENDROOT
BRANCH  10  12
HETATM   12  C   UNL     1      40.359 -13.429   2.409  1.00  0.00     0.256 C 
HETATM   13  N   UNL     1      40.999 -13.342   1.190  1.00  0.00    -0.323 N 
HETATM   14  H   UNL     1      41.993 -13.169   1.166  1.00  0.00     0.169 HD
HETATM   15  O   UNL     1      39.148 -13.509   2.586  1.00  0.00    -0.267 OA
BRANCH  13  16
HETATM   16  C   UNL     1      40.415 -13.498  -0.088  1.00  0.00     0.035 A 
HETATM   17  C   UNL     1      40.310 -12.468  -1.028  1.00  0.00     0.032 A 
HETATM   18  C   UNL     1      39.666 -12.689  -2.248  1.00  0.00     0.044 A 
HETATM   19  C   UNL     1      39.139 -13.943  -2.533  1.00  0.00     0.116 A 
HETATM   20  F   UNL     1      38.520 -14.151  -3.701  1.00  0.00    -0.206 F 
HETATM   21  C   UNL     1      39.242 -14.980  -1.617  1.00  0.00     0.044 A 
HETATM   22  C   UNL     1      39.874 -14.756  -0.393  1.00  0.00     0.032 A 
ENDBRANCH  13  16
ENDBRANCH  10  12
BRANCH   9  23
HETATM   23  C   UNL     1      40.615 -11.177   4.630  1.00  0.00    -0.005 A 
HETATM   24  C   UNL     1      40.189 -10.010   3.959  1.00  0.00     0.064 A 
HETATM   25 CL   UNL     1      40.923  -9.545   2.454  1.00  0.00    -0.082 Cl
HETATM   26  C   UNL     1      39.156  -9.224   4.502  1.00  0.00     0.056 A 
HETATM   27 CL   UNL     1      38.589  -7.776   3.742  1.00  0.00    -0.083 Cl
HETATM   28  C   UNL     1      38.539  -9.595   5.699  1.00  0.00     0.026 A 
HETATM   29  C   UNL     1      38.943 -10.749   6.363  1.00  0.00     0.002 A 
HETATM   30  C   UNL     1      39.969 -11.531   5.835  1.00  0.00     0.011 A 
ENDBRANCH   9  23
BRANCH   7  31
HETATM   31  C   UNL     1      45.595 -11.254   7.012  1.00  0.00     0.085 C 
BRANCH  31  32
HETATM   32  C   UNL     1      45.236 -10.491   8.288  1.00  0.00     0.034 C 
BRANCH  32  33
HETATM   33  C   UNL     1      45.772  -9.064   8.304  1.00  0.00     0.164 C 
BRANCH  33  34
HETATM   34  O   UNL     1      46.943  -8.982   7.499  1.00  0.00    -0.401 OA
HETATM   35  H   UNL     1      46.676  -9.135   6.577  1.00  0.00     0.209 HD
ENDBRANCH  33  34
ENDBRANCH  32  33
ENDBRANCH  31  32
ENDBRANCH   7  31
TORSDOF 7
ENDMDL
MODEL 6
REMARK VINA RESULT:      -8.2      4.234      6.431
REMARK  7 active torsions:
REMARK  status: ('A' for Active; 'I' for Inactive)
REMARK    1  A    between atoms: C_7  and  C_8 
REMARK    2  A    between atoms: C_8  and  C_9 
REMARK    3  A    between atoms: C_9  and  C_10 
REMARK    4  A    between atoms: C_10  and  O_11 
REMARK    5  A    between atoms: C_13  and  C_14 
REMARK    6  A    between atoms: C_22  and  C_23 
REMARK       I    between atoms: C_23  and  N_24 
REMARK    7  A    between atoms: N_24  and  C_25 
ROOT
HETATM    1  C   UNL     1      41.733 -10.799   3.097  1.00  0.00     0.070 C 
HETATM    2  C   UNL     1      41.528 -10.700   1.605  1.00  0.00     0.037 C 
HETATM    3  N   UNL     1      41.561  -9.413   1.073  1.00  0.00    -0.192 N 
HETATM    4  C   UNL     1      41.594  -9.166  -0.249  1.00  0.00     0.726 A 
HETATM    5  N   UNL     1      41.381 -10.193  -1.122  1.00  0.00    -0.083 N 
HETATM    6  N   UNL     1      41.596  -9.811  -2.398  1.00  0.00    -0.140 NA
HETATM    7  C   UNL     1      41.890  -8.514  -2.223  1.00  0.00     0.166 A 
HETATM    8  N   UNL     1      41.878  -8.079  -0.917  1.00  0.00    -0.046 NA
HETATM    9  C   UNL     1      41.161 -11.587  -0.715  1.00  0.00     0.204 C 
HETATM   10  C   UNL     1      41.366 -11.771   0.784  1.00  0.00     0.062 C 
HETATM   11  H   UNL     1      41.795  -8.653   1.709  1.00  0.00     0.184 HD
ENDROOT
BRANCH  10  12
HETATM   12  C   UNL     1      41.341 -13.155   1.342  1.00  0.00     0.256 C 
HETATM   13  N   UNL     1      42.587 -13.729   1.490  1.00  0.00    -0.323 N 
HETATM   14  H   UNL     1      43.398 -13.245   1.133  1.00  0.00     0.169 HD
HETATM   15  O   UNL     1      40.266 -13.681   1.611  1.00  0.00    -0.267 OA
BRANCH  13  16
HETATM   16  C   UNL     1      42.887 -14.951   2.132  1.00  0.00     0.035 A 
HETATM   17  C   UNL     1      43.040 -16.168   1.460  1.00  0.00     0.032 A 
HETATM   18  C   UNL     1      43.280 -17.344   2.176  1.00  0.00     0.044 A 
HETATM   19  C   UNL     1      43.378 -17.301   3.561  1.00  0.00     0.116 A 
HETATM   20  F   UNL     1      43.605 -18.430   4.244  1.00  0.00    -0.206 F 
HETATM   21  C   UNL     1      43.240 -16.102   4.245  1.00  0.00     0.044 A 
HETATM   22  C   UNL     1      42.987 -14.929   3.532  1.00  0.00     0.032 A 
ENDBRANCH  13  16
ENDBRANCH  10  12
BRANCH   9  23
HETATM   23  C   UNL     1      39.787 -12.052  -1.196  1.00  0.00    -0.005 A 
HETATM   24  C   UNL     1      39.624 -13.061  -2.169  1.00  0.00     0.064 A 
HETATM   25 CL   UNL     1      41.011 -13.870  -2.834  1.00  0.00    -0.082 Cl
HETATM   26  C   UNL     1      38.333 -13.427  -2.594  1.00  0.00     0.056 A 
HETATM   27 CL   UNL     1      38.057 -14.649  -3.789  1.00  0.00    -0.083 Cl
HETATM   28  C   UNL     1      37.207 -12.803  -2.052  1.00  0.00     0.026 A 
HETATM   29  C   UNL     1      37.354 -11.815  -1.084  1.00  0.00     0.002 A 
HETATM   30  C   UNL     1      38.629 -11.443  -0.661  1.00  0.00     0.011 A 
ENDBRANCH   9  23
BRANCH   7  31
HETATM   31  C   UNL     1      42.313  -7.638  -3.343  1.00  0.00     0.085 C 
BRANCH  31  32
HETATM   32  C   UNL     1      43.178  -6.464  -2.881  1.00  0.00     0.034 C 
BRANCH  32  33
HETATM   33  C   UNL     1      42.450  -5.126  -2.932  1.00  0.00     0.164 C 
BRANCH  33  34
HETATM   34  O   UNL     1      43.235  -4.127  -2.290  1.00  0.00    -0.401 OA
HETATM   35  H   UNL     1      43.153  -3.309  -2.810  1.00  0.00     0.209 HD
ENDBRANCH  33  34
ENDBRANCH  32  33
ENDBRANCH  31  32
ENDBRANCH   7  31
TORSDOF 7
ENDMDL
MODEL 7
REMARK VINA RESULT:      -7.9      4.326      7.074
REMARK  7 active torsions:
REMARK  status: ('A' for Active; 'I' for Inactive)
REMARK    1  A    between atoms: C_7  and  C_8 
REMARK    2  A    between atoms: C_8  and  C_9 
REMARK    3  A    between atoms: C_9  and  C_10 
REMARK    4  A    between atoms: C_10  and  O_11 
REMARK    5  A    between atoms: C_13  and  C_14 
REMARK    6  A    between atoms: C_22  and  C_23 
REMARK       I    between atoms: C_23  and  N_24 
REMARK    7  A    between atoms: N_24  and  C_25 
ROOT
HETATM    1  C   UNL     1      38.931 -13.461  -1.108  1.00  0.00     0.070 C 
HETATM    2  C   UNL     1      39.833 -13.707   0.076  1.00  0.00     0.037 C 
HETATM    3  N   UNL     1      39.863 -15.016   0.552  1.00  0.00    -0.192 N 
HETATM    4  C   UNL     1      40.754 -15.445   1.465  1.00  0.00     0.726 A 
HETATM    5  N   UNL     1      41.534 -14.530   2.113  1.00  0.00    -0.083 N 
HETATM    6  N   UNL     1      42.470 -15.129   2.876  1.00  0.00    -0.140 NA
HETATM    7  C   UNL     1      42.162 -16.421   2.679  1.00  0.00     0.166 A 
HETATM    8  N   UNL     1      41.100 -16.649   1.834  1.00  0.00    -0.046 NA
HETATM    9  C   UNL     1      41.503 -13.086   1.846  1.00  0.00     0.204 C 
HETATM   10  C   UNL     1      40.620 -12.757   0.647  1.00  0.00     0.062 C 
HETATM   11  H   UNL     1      39.344 -15.715   0.025  1.00  0.00     0.184 HD
ENDROOT
BRANCH  10  12
HETATM   12  C   UNL     1      40.605 -11.355   0.137  1.00  0.00     0.256 C 
HETATM   13  N   UNL     1      41.532 -11.101  -0.852  1.00  0.00    -0.323 N 
HETATM   14  H   UNL     1      42.207 -11.814  -1.090  1.00  0.00     0.169 HD
HETATM   15  O   UNL     1      39.815 -10.546   0.613  1.00  0.00    -0.267 OA
BRANCH  13  16
HETATM   16  C   UNL     1      41.645  -9.926  -1.629  1.00  0.00     0.035 A 
HETATM   17  C   UNL     1      42.436  -8.829  -1.272  1.00  0.00     0.032 A 
HETATM   18  C   UNL     1      42.447  -7.679  -2.067  1.00  0.00     0.044 A 
HETATM   19  C   UNL     1      41.677  -7.632  -3.223  1.00  0.00     0.116 A 
HETATM   20  F   UNL     1      41.688  -6.528  -3.980  1.00  0.00    -0.206 F 
HETATM   21  C   UNL     1      40.894  -8.714  -3.599  1.00  0.00     0.044 A 
HETATM   22  C   UNL     1      40.872  -9.857  -2.798  1.00  0.00     0.032 A 
ENDBRANCH  13  16
ENDBRANCH  10  12
BRANCH   9  23
HETATM   23  C   UNL     1      41.097 -12.337   3.114  1.00  0.00    -0.005 A 
HETATM   24  C   UNL     1      42.027 -11.639   3.915  1.00  0.00     0.064 A 
HETATM   25 CL   UNL     1      43.699 -11.558   3.448  1.00  0.00    -0.082 Cl
HETATM   26  C   UNL     1      41.598 -10.993   5.089  1.00  0.00     0.056 A 
HETATM   27 CL   UNL     1      42.682 -10.126   6.124  1.00  0.00    -0.083 Cl
HETATM   28  C   UNL     1      40.254 -11.029   5.467  1.00  0.00     0.026 A 
HETATM   29  C   UNL     1      39.326 -11.704   4.680  1.00  0.00     0.002 A 
HETATM   30  C   UNL     1      39.742 -12.351   3.518  1.00  0.00     0.011 A 
ENDBRANCH   9  23
BRANCH   7  31
HETATM   31  C   UNL     1      42.979 -17.526   3.238  1.00  0.00     0.085 C 
BRANCH  31  32
HETATM   32  C   UNL     1      43.216 -18.653   2.231  1.00  0.00     0.034 C 
BRANCH  32  33
HETATM   33  C   UNL     1      43.636 -19.964   2.886  1.00  0.00     0.164 C 
BRANCH  33  34
HETATM   34  O   UNL     1      43.819 -20.962   1.887  1.00  0.00    -0.401 OA
HETATM   35  H   UNL     1      44.749 -20.929   1.606  1.00  0.00     0.209 HD
ENDBRANCH  33  34
ENDBRANCH  32  33
ENDBRANCH  31  32
ENDBRANCH   7  31
TORSDOF 7
ENDMDL
MODEL 8
REMARK VINA RESULT:      -7.9      4.107      7.516
REMARK  7 active torsions:
REMARK  status: ('A' for Active; 'I' for Inactive)
REMARK    1  A    between atoms: C_7  and  C_8 
REMARK    2  A    between atoms: C_8  and  C_9 
REMARK    3  A    between atoms: C_9  and  C_10 
REMARK    4  A    between atoms: C_10  and  O_11 
REMARK    5  A    between atoms: C_13  and  C_14 
REMARK    6  A    between atoms: C_22  and  C_23 
REMARK       I    between atoms: C_23  and  N_24 
REMARK    7  A    between atoms: N_24  and  C_25 
ROOT
HETATM    1  C   UNL     1      39.535 -14.902  -0.454  1.00  0.00     0.070 C 
HETATM    2  C   UNL     1      40.416 -14.810   0.769  1.00  0.00     0.037 C 
HETATM    3  N   UNL     1      40.683 -16.015   1.414  1.00  0.00    -0.192 N 
HETATM    4  C   UNL     1      41.601 -16.136   2.391  1.00  0.00     0.726 A 
HETATM    5  N   UNL     1      42.155 -15.009   2.925  1.00  0.00    -0.083 N 
HETATM    6  N   UNL     1      43.156 -15.306   3.778  1.00  0.00    -0.140 NA
HETATM    7  C   UNL     1      43.119 -16.647   3.748  1.00  0.00     0.166 A 
HETATM    8  N   UNL     1      42.162 -17.190   2.922  1.00  0.00    -0.046 NA
HETATM    9  C   UNL     1      41.850 -13.646   2.470  1.00  0.00     0.204 C 
HETATM   10  C   UNL     1      40.974 -13.656   1.223  1.00  0.00     0.062 C 
HETATM   11  H   UNL     1      40.336 -16.865   0.975  1.00  0.00     0.184 HD
ENDROOT
BRANCH  10  12
HETATM   12  C   UNL     1      40.703 -12.362   0.532  1.00  0.00     0.256 C 
HETATM   13  N   UNL     1      41.569 -12.080  -0.505  1.00  0.00    -0.323 N 
HETATM   14  H   UNL     1      42.362 -12.685  -0.662  1.00  0.00     0.169 HD
HETATM   15  O   UNL     1      39.779 -11.652   0.915  1.00  0.00    -0.267 OA
BRANCH  13  16
HETATM   16  C   UNL     1      41.466 -11.019  -1.433  1.00  0.00     0.035 A 
HETATM   17  C   UNL     1      41.844  -9.702  -1.155  1.00  0.00     0.032 A 
HETATM   18  C   UNL     1      41.655  -8.698  -2.110  1.00  0.00     0.044 A 
HETATM   19  C   UNL     1      41.101  -9.015  -3.344  1.00  0.00     0.116 A 
HETATM   20  F   UNL     1      40.919  -8.051  -4.255  1.00  0.00    -0.206 F 
HETATM   21  C   UNL     1      40.730 -10.318  -3.642  1.00  0.00     0.044 A 
HETATM   22  C   UNL     1      40.905 -11.319  -2.684  1.00  0.00     0.032 A 
ENDBRANCH  13  16
ENDBRANCH  10  12
BRANCH   9  23
HETATM   23  C   UNL     1      41.248 -12.842   3.621  1.00  0.00    -0.005 A 
HETATM   24  C   UNL     1      41.938 -11.781   4.247  1.00  0.00     0.064 A 
HETATM   25 CL   UNL     1      43.511 -11.303   3.685  1.00  0.00    -0.082 Cl
HETATM   26  C   UNL     1      41.344 -11.095   5.323  1.00  0.00     0.056 A 
HETATM   27 CL   UNL     1      42.133  -9.791   6.145  1.00  0.00    -0.083 Cl
HETATM   28  C   UNL     1      40.070 -11.450   5.773  1.00  0.00     0.026 A 
HETATM   29  C   UNL     1      39.377 -12.486   5.156  1.00  0.00     0.002 A 
HETATM   30  C   UNL     1      39.959 -13.175   4.093  1.00  0.00     0.011 A 
ENDBRANCH   9  23
BRANCH   7  31
HETATM   31  C   UNL     1      44.114 -17.485   4.463  1.00  0.00     0.085 C 
BRANCH  31  32
HETATM   32  C   UNL     1      44.327 -17.041   5.911  1.00  0.00     0.034 C 
BRANCH  32  33
HETATM   33  C   UNL     1      43.244 -17.546   6.858  1.00  0.00     0.164 C 
BRANCH  33  34
HETATM   34  O   UNL     1      42.724 -16.458   7.616  1.00  0.00    -0.401 OA
HETATM   35  H   UNL     1      42.165 -15.928   7.023  1.00  0.00     0.209 HD
ENDBRANCH  33  34
ENDBRANCH  32  33
ENDBRANCH  31  32
ENDBRANCH   7  31
TORSDOF 7
ENDMDL
MODEL 9
REMARK VINA RESULT:      -7.8     17.182     19.551
REMARK  7 active torsions:
REMARK  status: ('A' for Active; 'I' for Inactive)
REMARK    1  A    between atoms: C_7  and  C_8 
REMARK    2  A    between atoms: C_8  and  C_9 
REMARK    3  A    between atoms: C_9  and  C_10 
REMARK    4  A    between atoms: C_10  and  O_11 
REMARK    5  A    between atoms: C_13  and  C_14 
REMARK    6  A    between atoms: C_22  and  C_23 
REMARK       I    between atoms: C_23  and  N_24 
REMARK    7  A    between atoms: N_24  and  C_25 
ROOT
HETATM    1  C   UNL     1      46.257 -28.455   2.304  1.00  0.00     0.070 C 
HETATM    2  C   UNL     1      46.737 -29.037   0.997  1.00  0.00     0.037 C 
HETATM    3  N   UNL     1      48.082 -28.831   0.700  1.00  0.00    -0.192 N 
HETATM    4  C   UNL     1      48.712 -29.446  -0.317  1.00  0.00     0.726 A 
HETATM    5  N   UNL     1      47.975 -30.145  -1.229  1.00  0.00    -0.083 N 
HETATM    6  N   UNL     1      48.763 -30.821  -2.090  1.00  0.00    -0.140 NA
HETATM    7  C   UNL     1      49.978 -30.440  -1.665  1.00  0.00     0.166 A 
HETATM    8  N   UNL     1      49.982 -29.580  -0.591  1.00  0.00    -0.046 NA
HETATM    9  C   UNL     1      46.518 -30.316  -1.153  1.00  0.00     0.204 C 
HETATM   10  C   UNL     1      45.958 -29.764   0.153  1.00  0.00     0.062 C 
HETATM   11  H   UNL     1      48.651 -28.378   1.412  1.00  0.00     0.184 HD
ENDROOT
BRANCH  10  12
HETATM   12  C   UNL     1      44.518 -30.001   0.467  1.00  0.00     0.256 C 
HETATM   13  N   UNL     1      44.288 -31.089   1.285  1.00  0.00    -0.323 N 
HETATM   14  H   UNL     1      45.058 -31.695   1.527  1.00  0.00     0.169 HD
HETATM   15  O   UNL     1      43.664 -29.259  -0.007  1.00  0.00    -0.267 OA
BRANCH  13  16
HETATM   16  C   UNL     1      43.059 -31.462   1.874  1.00  0.00     0.035 A 
HETATM   17  C   UNL     1      42.172 -32.384   1.310  1.00  0.00     0.032 A 
HETATM   18  C   UNL     1      40.949 -32.656   1.929  1.00  0.00     0.044 A 
HETATM   19  C   UNL     1      40.619 -32.015   3.117  1.00  0.00     0.116 A 
HETATM   20  F   UNL     1      39.445 -32.275   3.705  1.00  0.00    -0.206 F 
HETATM   21  C   UNL     1      41.490 -31.104   3.697  1.00  0.00     0.044 A 
HETATM   22  C   UNL     1      42.707 -30.823   3.073  1.00  0.00     0.032 A 
ENDBRANCH  13  16
ENDBRANCH  10  12
BRANCH   9  23
HETATM   23  C   UNL     1      45.863 -29.709  -2.392  1.00  0.00    -0.005 A 
HETATM   24  C   UNL     1      45.259 -30.497  -3.395  1.00  0.00     0.064 A 
HETATM   25 CL   UNL     1      45.188 -32.225  -3.229  1.00  0.00    -0.082 Cl
HETATM   26  C   UNL     1      44.697 -29.883  -4.530  1.00  0.00     0.056 A 
HETATM   27 CL   UNL     1      43.949 -30.785  -5.804  1.00  0.00    -0.083 Cl
HETATM   28  C   UNL     1      44.725 -28.493  -4.669  1.00  0.00     0.026 A 
HETATM   29  C   UNL     1      45.307 -27.705  -3.681  1.00  0.00     0.002 A 
HETATM   30  C   UNL     1      45.870 -28.305  -2.556  1.00  0.00     0.011 A 
ENDBRANCH   9  23
BRANCH   7  31
HETATM   31  C   UNL     1      51.229 -30.998  -2.236  1.00  0.00     0.085 C 
BRANCH  31  32
HETATM   32  C   UNL     1      50.973 -32.175  -3.179  1.00  0.00     0.034 C 
BRANCH  32  33
HETATM   33  C   UNL     1      52.160 -32.490  -4.082  1.00  0.00     0.164 C 
BRANCH  33  34
HETATM   34  O   UNL     1      53.132 -31.455  -3.975  1.00  0.00    -0.401 OA
HETATM   35  H   UNL     1      53.701 -31.664  -3.215  1.00  0.00     0.209 HD
ENDBRANCH  33  34
ENDBRANCH  32  33
ENDBRANCH  31  32
ENDBRANCH   7  31
TORSDOF 7
ENDMDL
MODEL 10
REMARK VINA RESULT:      -7.7     17.539     19.474
REMARK  7 active torsions:
REMARK  status: ('A' for Active; 'I' for Inactive)
REMARK    1  A    between atoms: C_7  and  C_8 
REMARK    2  A    between atoms: C_8  and  C_9 
REMARK    3  A    between atoms: C_9  and  C_10 
REMARK    4  A    between atoms: C_10  and  O_11 
REMARK    5  A    between atoms: C_13  and  C_14 
REMARK    6  A    between atoms: C_22  and  C_23 
REMARK       I    between atoms: C_23  and  N_24 
REMARK    7  A    between atoms: N_24  and  C_25 
ROOT
HETATM    1  C   UNL     1      45.860 -29.203  -2.655  1.00  0.00     0.070 C 
HETATM    2  C   UNL     1      45.582 -29.537  -1.209  1.00  0.00     0.037 C 
HETATM    3  N   UNL     1      44.433 -28.967  -0.667  1.00  0.00    -0.192 N 
HETATM    4  C   UNL     1      43.938 -29.317   0.535  1.00  0.00     0.726 A 
HETATM    5  N   UNL     1      44.686 -30.108   1.357  1.00  0.00    -0.083 N 
HETATM    6  N   UNL     1      43.990 -30.487   2.448  1.00  0.00    -0.140 NA
HETATM    7  C   UNL     1      42.832 -29.840   2.241  1.00  0.00     0.166 A 
HETATM    8  N   UNL     1      42.774 -29.095   1.086  1.00  0.00    -0.046 NA
HETATM    9  C   UNL     1      46.001 -30.656   0.999  1.00  0.00     0.204 C 
HETATM   10  C   UNL     1      46.348 -30.372  -0.458  1.00  0.00     0.062 C 
HETATM   11  H   UNL     1      43.833 -28.440  -1.297  1.00  0.00     0.184 HD
ENDROOT
BRANCH  10  12
HETATM   12  C   UNL     1      47.574 -30.998  -1.033  1.00  0.00     0.256 C 
HETATM   13  N   UNL     1      48.741 -30.311  -0.763  1.00  0.00    -0.323 N 
HETATM   14  H   UNL     1      48.689 -29.413  -0.304  1.00  0.00     0.169 HD
HETATM   15  O   UNL     1      47.478 -32.029  -1.690  1.00  0.00    -0.267 OA
BRANCH  13  16
HETATM   16  C   UNL     1      50.059 -30.738  -1.037  1.00  0.00     0.035 A 
HETATM   17  C   UNL     1      50.746 -30.442  -2.218  1.00  0.00     0.032 A 
HETATM   18  C   UNL     1      52.029 -30.952  -2.436  1.00  0.00     0.044 A 
HETATM   19  C   UNL     1      52.628 -31.748  -1.468  1.00  0.00     0.116 A 
HETATM   20  F   UNL     1      53.856 -32.238  -1.682  1.00  0.00    -0.206 F 
HETATM   21  C   UNL     1      51.967 -32.045  -0.285  1.00  0.00     0.044 A 
HETATM   22  C   UNL     1      50.681 -31.547  -0.072  1.00  0.00     0.032 A 
ENDBRANCH  13  16
ENDBRANCH  10  12
BRANCH   9  23
HETATM   23  C   UNL     1      47.056 -30.144   1.979  1.00  0.00    -0.005 A 
HETATM   24  C   UNL     1      47.786 -31.004   2.827  1.00  0.00     0.064 A 
HETATM   25 CL   UNL     1      47.547 -32.723   2.749  1.00  0.00    -0.082 Cl
HETATM   26  C   UNL     1      48.724 -30.471   3.730  1.00  0.00     0.056 A 
HETATM   27 CL   UNL     1      49.649 -31.463   4.806  1.00  0.00    -0.083 Cl
HETATM   28  C   UNL     1      48.946 -29.093   3.790  1.00  0.00     0.026 A 
HETATM   29  C   UNL     1      48.240 -28.236   2.951  1.00  0.00     0.002 A 
HETATM   30  C   UNL     1      47.305 -28.755   2.056  1.00  0.00     0.011 A 
ENDBRANCH   9  23
BRANCH   7  31
HETATM   31  C   UNL     1      41.659 -30.009   3.134  1.00  0.00     0.085 C 
BRANCH  31  32
HETATM   32  C   UNL     1      41.645 -31.365   3.840  1.00  0.00     0.034 C 
BRANCH  32  33
HETATM   33  C   UNL     1      40.251 -31.972   3.948  1.00  0.00     0.164 C 
BRANCH  33  34
HETATM   34  O   UNL     1      39.507 -31.292   4.953  1.00  0.00    -0.401 OA
HETATM   35  H   UNL     1      39.519 -30.345   4.736  1.00  0.00     0.209 HD
ENDBRANCH  33  34
ENDBRANCH  32  33
ENDBRANCH  31  32
ENDBRANCH   7  31
TORSDOF 7
ENDMDL
