MODEL 1
REMARK VINA RESULT:     -10.1      0.000      0.000
REMARK  6 active torsions:
REMARK  status: ('A' for Active; 'I' for Inactive)
REMARK    1  A    between atoms: C_4  and  C_5 
REMARK    2  A    between atoms: C_8  and  C_9 
REMARK    3  A    between atoms: C_9  and  N_10 
REMARK       I    between atoms: N_10  and  C_11 
REMARK       I    between atoms: C_11  and  N_12 
REMARK    4  A    between atoms: N_12  and  C_13 
REMARK    5  A    between atoms: C_15  and  C_16 
REMARK    6  A    between atoms: C_30  and  C_31 
ROOT
HETATM    1  C   UNL     1      42.472 -15.522   1.892  1.00  0.00     0.068 C 
HETATM    2  C   UNL     1      41.669 -16.740   2.447  1.00  0.00     0.001 C 
HETATM    3  C   UNL     1      40.886 -16.387   3.734  1.00  0.00     0.040 C 
HETATM    4  C   UNL     1      41.819 -15.804   4.807  1.00  0.00     0.206 C 
HETATM    5  N   UNL     1      43.233 -15.851   4.231  1.00  0.00    -0.065 N 
HETATM    6  H   UNL     1      43.863 -15.447   4.959  1.00  0.00     0.280 HD
HETATM    7  C   UNL     1      43.408 -14.997   2.993  1.00  0.00     0.246 C 
HETATM    8  C   UNL     1      42.708 -17.816   2.854  1.00  0.00     0.033 C 
HETATM    9  C   UNL     1      43.640 -17.277   3.948  1.00  0.00     0.236 C 
ENDROOT
BRANCH   4  10
HETATM   10  C   UNL     1      41.395 -14.391   5.297  1.00  0.00     0.157 C 
BRANCH  10  11
HETATM   11  N   UNL     1      42.171 -13.831   6.405  1.00  0.00    -0.341 N 
HETATM   12  C   UNL     1      42.815 -12.616   6.351  1.00  0.00     0.320 C 
HETATM   13  N   UNL     1      43.348 -12.266   7.565  1.00  0.00    -0.309 N 
HETATM   14  O   UNL     1      42.907 -11.992   5.300  1.00  0.00    -0.247 OA
HETATM   15  H   UNL     1      43.305 -12.960   8.299  1.00  0.00     0.170 HD
HETATM   16  H   UNL     1      41.839 -14.087   7.327  1.00  0.00     0.164 HD
BRANCH  13  17
HETATM   17  C   UNL     1      44.046 -11.082   7.890  1.00  0.00     0.037 A 
HETATM   18  C   UNL     1      43.456  -9.970   8.494  1.00  0.00     0.045 A 
HETATM   19  C   UNL     1      44.210  -8.818   8.790  1.00  0.00     0.050 A 
HETATM   20  C   UNL     1      45.574  -8.796   8.465  1.00  0.00     0.016 A 
HETATM   21  C   UNL     1      46.172  -9.904   7.870  1.00  0.00     0.003 A 
HETATM   22  C   UNL     1      45.412 -11.041   7.587  1.00  0.00     0.029 A 
BRANCH  19  23
HETATM   23  C   UNL     1      43.558  -7.609   9.414  1.00  0.00     0.417 C 
HETATM   24  F   UNL     1      42.277  -7.412   8.992  1.00  0.00    -0.166 F 
HETATM   25  F   UNL     1      43.497  -7.680  10.771  1.00  0.00    -0.166 F 
HETATM   26  F   UNL     1      44.225  -6.457   9.123  1.00  0.00    -0.166 F 
ENDBRANCH  19  23
ENDBRANCH  13  17
ENDBRANCH  10  11
ENDBRANCH   4  10
BRANCH   1  27
HETATM   27  C   UNL     1      41.661 -14.383   1.306  1.00  0.00     0.045 A 
HETATM   28  N   UNL     1      41.947 -13.133   1.705  1.00  0.00    -0.238 NA
HETATM   29  C   UNL     1      41.241 -12.127   1.154  1.00  0.00     0.123 A 
HETATM   30  C   UNL     1      41.496 -10.735   1.640  1.00  0.00     0.093 C 
HETATM   31  N   UNL     1      40.339 -12.286   0.178  1.00  0.00    -0.233 NA
HETATM   32  C   UNL     1      40.088 -13.543  -0.240  1.00  0.00     0.077 A 
HETATM   33  C   UNL     1      40.724 -14.636   0.318  1.00  0.00     0.060 A 
BRANCH  32  34
HETATM   34  C   UNL     1      39.119 -13.620  -1.350  1.00  0.00     0.033 A 
HETATM   35  S   UNL     1      37.849 -12.473  -1.533  1.00  0.00    -0.100 SA
HETATM   36  C   UNL     1      37.232 -13.250  -2.922  1.00  0.00     0.050 A 
HETATM   37  C   UNL     1      37.967 -14.363  -3.256  1.00  0.00     0.008 A 
HETATM   38  C   UNL     1      39.050 -14.573  -2.356  1.00  0.00     0.021 A 
ENDBRANCH  32  34
ENDBRANCH   1  27
TORSDOF 6
ENDMDL
MODEL 2
REMARK VINA RESULT:      -9.9      4.618      7.440
REMARK  6 active torsions:
REMARK  status: ('A' for Active; 'I' for Inactive)
REMARK    1  A    between atoms: C_4  and  C_5 
REMARK    2  A    between atoms: C_8  and  C_9 
REMARK    3  A    between atoms: C_9  and  N_10 
REMARK       I    between atoms: N_10  and  C_11 
REMARK       I    between atoms: C_11  and  N_12 
REMARK    4  A    between atoms: N_12  and  C_13 
REMARK    5  A    between atoms: C_15  and  C_16 
REMARK    6  A    between atoms: C_30  and  C_31 
ROOT
HETATM    1  C   UNL     1      40.447 -11.109   3.930  1.00  0.00     0.068 C 
HETATM    2  C   UNL     1      41.792 -10.320   3.873  1.00  0.00     0.001 C 
HETATM    3  C   UNL     1      42.945 -11.076   4.575  1.00  0.00     0.040 C 
HETATM    4  C   UNL     1      42.571 -11.431   6.024  1.00  0.00     0.206 C 
HETATM    5  N   UNL     1      41.191 -10.829   6.280  1.00  0.00    -0.065 N 
HETATM    6  H   UNL     1      40.937 -11.079   7.262  1.00  0.00     0.280 HD
HETATM    7  C   UNL     1      40.107 -11.412   5.399  1.00  0.00     0.246 C 
HETATM    8  C   UNL     1      41.580  -9.011   4.676  1.00  0.00     0.033 C 
HETATM    9  C   UNL     1      41.235  -9.327   6.137  1.00  0.00     0.236 C 
ENDROOT
BRANCH   4  10
HETATM   10  C   UNL     1      42.653 -12.952   6.331  1.00  0.00     0.157 C 
BRANCH  10  11
HETATM   11  N   UNL     1      43.138 -13.806   5.244  1.00  0.00    -0.341 N 
HETATM   12  C   UNL     1      43.088 -15.181   5.271  1.00  0.00     0.320 C 
HETATM   13  N   UNL     1      43.474 -15.730   4.076  1.00  0.00    -0.309 N 
HETATM   14  O   UNL     1      42.773 -15.785   6.290  1.00  0.00    -0.247 OA
HETATM   15  H   UNL     1      43.841 -15.094   3.381  1.00  0.00     0.170 HD
HETATM   16  H   UNL     1      43.053 -13.403   4.319  1.00  0.00     0.164 HD
BRANCH  13  17
HETATM   17  C   UNL     1      43.518 -17.099   3.731  1.00  0.00     0.037 A 
HETATM   18  C   UNL     1      43.757 -18.126   4.646  1.00  0.00     0.045 A 
HETATM   19  C   UNL     1      43.790 -19.472   4.236  1.00  0.00     0.050 A 
HETATM   20  C   UNL     1      43.582 -19.776   2.883  1.00  0.00     0.016 A 
HETATM   21  C   UNL     1      43.335 -18.758   1.965  1.00  0.00     0.003 A 
HETATM   22  C   UNL     1      43.301 -17.428   2.388  1.00  0.00     0.029 A 
BRANCH  19  23
HETATM   23  C   UNL     1      44.080 -20.573   5.226  1.00  0.00     0.417 C 
HETATM   24  F   UNL     1      45.385 -20.971   5.220  1.00  0.00    -0.166 F 
HETATM   25  F   UNL     1      43.804 -20.219   6.509  1.00  0.00    -0.166 F 
HETATM   26  F   UNL     1      43.350 -21.695   4.976  1.00  0.00    -0.166 F 
ENDBRANCH  19  23
ENDBRANCH  13  17
ENDBRANCH  10  11
ENDBRANCH   4  10
BRANCH   1  27
HETATM   27  C   UNL     1      40.366 -12.376   3.101  1.00  0.00     0.045 A 
HETATM   28  N   UNL     1      40.224 -13.546   3.746  1.00  0.00    -0.238 NA
HETATM   29  C   UNL     1      40.122 -14.660   2.997  1.00  0.00     0.123 A 
HETATM   30  C   UNL     1      40.036 -15.979   3.700  1.00  0.00     0.093 C 
HETATM   31  N   UNL     1      40.068 -14.668   1.660  1.00  0.00    -0.233 NA
HETATM   32  C   UNL     1      40.174 -13.483   1.025  1.00  0.00     0.077 A 
HETATM   33  C   UNL     1      40.344 -12.300   1.718  1.00  0.00     0.060 A 
BRANCH  32  34
HETATM   34  C   UNL     1      40.055 -13.580  -0.441  1.00  0.00     0.033 A 
HETATM   35  S   UNL     1      40.656 -12.353  -1.489  1.00  0.00    -0.100 SA
HETATM   36  C   UNL     1      40.122 -13.168  -2.890  1.00  0.00     0.050 A 
HETATM   37  C   UNL     1      39.496 -14.354  -2.587  1.00  0.00     0.008 A 
HETATM   38  C   UNL     1      39.460 -14.590  -1.184  1.00  0.00     0.021 A 
ENDBRANCH  32  34
ENDBRANCH   1  27
TORSDOF 6
ENDMDL
MODEL 3
REMARK VINA RESULT:      -9.5      5.399      9.165
REMARK  6 active torsions:
REMARK  status: ('A' for Active; 'I' for Inactive)
REMARK    1  A    between atoms: C_4  and  C_5 
REMARK    2  A    between atoms: C_8  and  C_9 
REMARK    3  A    between atoms: C_9  and  N_10 
REMARK       I    between atoms: N_10  and  C_11 
REMARK       I    between atoms: C_11  and  N_12 
REMARK    4  A    between atoms: N_12  and  C_13 
REMARK    5  A    between atoms: C_15  and  C_16 
REMARK    6  A    between atoms: C_30  and  C_31 
ROOT
HETATM    1  C   UNL     1      39.996 -10.222   3.522  1.00  0.00     0.068 C 
HETATM    2  C   UNL     1      38.646 -10.801   2.999  1.00  0.00     0.001 C 
HETATM    3  C   UNL     1      38.849 -12.055   2.115  1.00  0.00     0.040 C 
HETATM    4  C   UNL     1      39.813 -11.761   0.954  1.00  0.00     0.206 C 
HETATM    5  N   UNL     1      40.175 -10.280   1.048  1.00  0.00    -0.065 N 
HETATM    6  H   UNL     1      40.836 -10.087   0.263  1.00  0.00     0.280 HD
HETATM    7  C   UNL     1      40.909  -9.920   2.322  1.00  0.00     0.246 C 
HETATM    8  C   UNL     1      38.017  -9.722   2.081  1.00  0.00     0.033 C 
HETATM    9  C   UNL     1      38.941  -9.425   0.891  1.00  0.00     0.236 C 
ENDROOT
BRANCH   4  10
HETATM   10  C   UNL     1      41.050 -12.702   0.921  1.00  0.00     0.157 C 
BRANCH  10  11
HETATM   11  N   UNL     1      41.062 -13.789   1.902  1.00  0.00    -0.341 N 
HETATM   12  C   UNL     1      42.025 -14.771   1.945  1.00  0.00     0.320 C 
HETATM   13  N   UNL     1      41.881 -15.580   3.042  1.00  0.00    -0.309 N 
HETATM   14  O   UNL     1      42.856 -14.884   1.052  1.00  0.00    -0.247 OA
HETATM   15  H   UNL     1      41.056 -15.438   3.608  1.00  0.00     0.170 HD
HETATM   16  H   UNL     1      40.670 -13.549   2.805  1.00  0.00     0.164 HD
BRANCH  13  17
HETATM   17  C   UNL     1      42.700 -16.666   3.425  1.00  0.00     0.037 A 
HETATM   18  C   UNL     1      42.730 -17.893   2.758  1.00  0.00     0.045 A 
HETATM   19  C   UNL     1      43.568 -18.936   3.194  1.00  0.00     0.050 A 
HETATM   20  C   UNL     1      44.381 -18.732   4.318  1.00  0.00     0.016 A 
HETATM   21  C   UNL     1      44.364 -17.509   4.983  1.00  0.00     0.003 A 
HETATM   22  C   UNL     1      43.529 -16.481   4.537  1.00  0.00     0.029 A 
BRANCH  19  23
HETATM   23  C   UNL     1      43.571 -20.269   2.487  1.00  0.00     0.417 C 
HETATM   24  F   UNL     1      44.517 -20.356   1.508  1.00  0.00    -0.166 F 
HETATM   25  F   UNL     1      43.805 -21.314   3.325  1.00  0.00    -0.166 F 
HETATM   26  F   UNL     1      42.382 -20.531   1.876  1.00  0.00    -0.166 F 
ENDBRANCH  19  23
ENDBRANCH  13  17
ENDBRANCH  10  11
ENDBRANCH   4  10
BRANCH   1  27
HETATM   27  C   UNL     1      40.740 -11.051   4.551  1.00  0.00     0.045 A 
HETATM   28  N   UNL     1      40.308 -12.302   4.786  1.00  0.00    -0.238 NA
HETATM   29  C   UNL     1      40.996 -13.038   5.680  1.00  0.00     0.123 A 
HETATM   30  C   UNL     1      40.487 -14.407   6.008  1.00  0.00     0.093 C 
HETATM   31  N   UNL     1      42.123 -12.637   6.280  1.00  0.00    -0.233 NA
HETATM   32  C   UNL     1      42.566 -11.393   6.006  1.00  0.00     0.077 A 
HETATM   33  C   UNL     1      41.884 -10.551   5.148  1.00  0.00     0.060 A 
BRANCH  32  34
HETATM   34  C   UNL     1      43.838 -11.054   6.671  1.00  0.00     0.033 A 
HETATM   35  S   UNL     1      43.916  -9.928   7.971  1.00  0.00    -0.100 SA
HETATM   36  C   UNL     1      45.609 -10.082   8.115  1.00  0.00     0.050 A 
HETATM   37  C   UNL     1      46.124 -10.970   7.201  1.00  0.00     0.008 A 
HETATM   38  C   UNL     1      45.108 -11.528   6.375  1.00  0.00     0.021 A 
ENDBRANCH  32  34
ENDBRANCH   1  27
TORSDOF 6
ENDMDL
MODEL 4
REMARK VINA RESULT:      -9.4      2.555      5.283
REMARK  6 active torsions:
REMARK  status: ('A' for Active; 'I' for Inactive)
REMARK    1  A    between atoms: C_4  and  C_5 
REMARK    2  A    between atoms: C_8  and  C_9 
REMARK    3  A    between atoms: C_9  and  N_10 
REMARK       I    between atoms: N_10  and  C_11 
REMARK       I    between atoms: C_11  and  N_12 
REMARK    4  A    between atoms: N_12  and  C_13 
REMARK    5  A    between atoms: C_15  and  C_16 
REMARK    6  A    between atoms: C_30  and  C_31 
ROOT
HETATM    1  C   UNL     1      39.937 -13.800   1.429  1.00  0.00     0.068 C 
HETATM    2  C   UNL     1      40.833 -13.043   0.400  1.00  0.00     0.001 C 
HETATM    3  C   UNL     1      41.392 -11.719   0.972  1.00  0.00     0.040 C 
HETATM    4  C   UNL     1      40.258 -10.818   1.487  1.00  0.00     0.206 C 
HETATM    5  N   UNL     1      38.948 -11.538   1.173  1.00  0.00    -0.065 N 
HETATM    6  H   UNL     1      38.181 -10.927   1.531  1.00  0.00     0.280 HD
HETATM    7  C   UNL     1      38.806 -12.865   1.888  1.00  0.00     0.246 C 
HETATM    8  C   UNL     1      39.920 -12.650  -0.790  1.00  0.00     0.033 C 
HETATM    9  C   UNL     1      38.792 -11.724  -0.317  1.00  0.00     0.236 C 
ENDROOT
BRANCH   4  10
HETATM   10  C   UNL     1      40.408 -10.425   2.983  1.00  0.00     0.157 C 
BRANCH  10  11
HETATM   11  N   UNL     1      41.501 -11.069   3.714  1.00  0.00    -0.341 N 
HETATM   12  C   UNL     1      42.208 -10.461   4.726  1.00  0.00     0.320 C 
HETATM   13  N   UNL     1      43.078 -11.328   5.335  1.00  0.00    -0.309 N 
HETATM   14  O   UNL     1      42.064  -9.269   4.974  1.00  0.00    -0.247 OA
HETATM   15  H   UNL     1      43.177 -12.242   4.916  1.00  0.00     0.170 HD
HETATM   16  H   UNL     1      41.412 -12.073   3.812  1.00  0.00     0.164 HD
BRANCH  13  17
HETATM   17  C   UNL     1      43.938 -11.063   6.424  1.00  0.00     0.037 A 
HETATM   18  C   UNL     1      43.493 -10.708   7.699  1.00  0.00     0.045 A 
HETATM   19  C   UNL     1      44.404 -10.454   8.742  1.00  0.00     0.050 A 
HETATM   20  C   UNL     1      45.778 -10.560   8.486  1.00  0.00     0.016 A 
HETATM   21  C   UNL     1      46.230 -10.923   7.220  1.00  0.00     0.003 A 
HETATM   22  C   UNL     1      45.314 -11.174   6.196  1.00  0.00     0.029 A 
BRANCH  19  23
HETATM   23  C   UNL     1      43.915 -10.040  10.109  1.00  0.00     0.417 C 
HETATM   24  F   UNL     1      43.506 -11.091  10.874  1.00  0.00    -0.166 F 
HETATM   25  F   UNL     1      44.866  -9.395  10.838  1.00  0.00    -0.166 F 
HETATM   26  F   UNL     1      42.850  -9.194  10.040  1.00  0.00    -0.166 F 
ENDBRANCH  19  23
ENDBRANCH  13  17
ENDBRANCH  10  11
ENDBRANCH   4  10
BRANCH   1  27
HETATM   27  C   UNL     1      40.640 -14.402   2.630  1.00  0.00     0.045 A 
HETATM   28  N   UNL     1      40.333 -13.923   3.848  1.00  0.00    -0.238 NA
HETATM   29  C   UNL     1      40.941 -14.488   4.908  1.00  0.00     0.123 A 
HETATM   30  C   UNL     1      40.665 -13.920   6.265  1.00  0.00     0.093 C 
HETATM   31  N   UNL     1      41.760 -15.544   4.835  1.00  0.00    -0.233 NA
HETATM   32  C   UNL     1      42.030 -16.038   3.610  1.00  0.00     0.077 A 
HETATM   33  C   UNL     1      41.496 -15.477   2.465  1.00  0.00     0.060 A 
BRANCH  32  34
HETATM   34  C   UNL     1      42.900 -17.229   3.626  1.00  0.00     0.033 A 
HETATM   35  S   UNL     1      43.760 -17.711   5.038  1.00  0.00    -0.100 SA
HETATM   36  C   UNL     1      44.481 -19.041   4.248  1.00  0.00     0.050 A 
HETATM   37  C   UNL     1      44.086 -19.134   2.934  1.00  0.00     0.008 A 
HETATM   38  C   UNL     1      43.178 -18.096   2.580  1.00  0.00     0.021 A 
ENDBRANCH  32  34
ENDBRANCH   1  27
TORSDOF 6
ENDMDL
MODEL 5
REMARK VINA RESULT:      -9.4      3.666      5.765
REMARK  6 active torsions:
REMARK  status: ('A' for Active; 'I' for Inactive)
REMARK    1  A    between atoms: C_4  and  C_5 
REMARK    2  A    between atoms: C_8  and  C_9 
REMARK    3  A    between atoms: C_9  and  N_10 
REMARK       I    between atoms: N_10  and  C_11 
REMARK       I    between atoms: C_11  and  N_12 
REMARK    4  A    between atoms: N_12  and  C_13 
REMARK    5  A    between atoms: C_15  and  C_16 
REMARK    6  A    between atoms: C_30  and  C_31 
ROOT
HETATM    1  C   UNL     1      41.965 -13.523   3.760  1.00  0.00     0.068 C 
HETATM    2  C   UNL     1      42.945 -12.672   2.895  1.00  0.00     0.001 C 
HETATM    3  C   UNL     1      44.040 -11.991   3.749  1.00  0.00     0.040 C 
HETATM    4  C   UNL     1      43.418 -11.147   4.874  1.00  0.00     0.206 C 
HETATM    5  N   UNL     1      41.903 -11.226   4.694  1.00  0.00    -0.065 N 
HETATM    6  H   UNL     1      41.485 -10.658   5.465  1.00  0.00     0.280 HD
HETATM    7  C   UNL     1      41.352 -12.627   4.848  1.00  0.00     0.246 C 
HETATM    8  C   UNL     1      42.111 -11.526   2.266  1.00  0.00     0.033 C 
HETATM    9  C   UNL     1      41.499 -10.644   3.362  1.00  0.00     0.236 C 
ENDROOT
BRANCH   4  10
HETATM   10  C   UNL     1      43.898 -11.556   6.294  1.00  0.00     0.157 C 
BRANCH  10  11
HETATM   11  N   UNL     1      43.064 -11.110   7.412  1.00  0.00    -0.341 N 
HETATM   12  C   UNL     1      43.510 -10.282   8.417  1.00  0.00     0.320 C 
HETATM   13  N   UNL     1      42.495  -9.906   9.258  1.00  0.00    -0.309 N 
HETATM   14  O   UNL     1      44.697  -9.992   8.520  1.00  0.00    -0.247 OA
HETATM   15  H   UNL     1      41.598 -10.348   9.114  1.00  0.00     0.170 HD
HETATM   16  H   UNL     1      42.081 -11.007   7.192  1.00  0.00     0.164 HD
BRANCH  13  17
HETATM   17  C   UNL     1      42.576  -9.044  10.374  1.00  0.00     0.037 A 
HETATM   18  C   UNL     1      42.381  -7.662  10.307  1.00  0.00     0.045 A 
HETATM   19  C   UNL     1      42.479  -6.859  11.459  1.00  0.00     0.050 A 
HETATM   20  C   UNL     1      42.779  -7.464  12.688  1.00  0.00     0.016 A 
HETATM   21  C   UNL     1      42.966  -8.842  12.764  1.00  0.00     0.003 A 
HETATM   22  C   UNL     1      42.863  -9.627  11.613  1.00  0.00     0.029 A 
BRANCH  19  23
HETATM   23  C   UNL     1      42.298  -5.363  11.373  1.00  0.00     0.417 C 
HETATM   24  F   UNL     1      41.041  -4.995  10.997  1.00  0.00    -0.166 F 
HETATM   25  F   UNL     1      42.534  -4.732  12.555  1.00  0.00    -0.166 F 
HETATM   26  F   UNL     1      43.138  -4.795  10.465  1.00  0.00    -0.166 F 
ENDBRANCH  19  23
ENDBRANCH  13  17
ENDBRANCH  10  11
ENDBRANCH   4  10
BRANCH   1  27
HETATM   27  C   UNL     1      42.527 -14.789   4.378  1.00  0.00     0.045 A 
HETATM   28  N   UNL     1      42.719 -14.811   5.708  1.00  0.00    -0.238 NA
HETATM   29  C   UNL     1      43.189 -15.951   6.248  1.00  0.00     0.123 A 
HETATM   30  C   UNL     1      43.477 -15.971   7.717  1.00  0.00     0.093 C 
HETATM   31  N   UNL     1      43.395 -17.082   5.563  1.00  0.00    -0.233 NA
HETATM   32  C   UNL     1      43.164 -17.057   4.235  1.00  0.00     0.077 A 
HETATM   33  C   UNL     1      42.739 -15.909   3.593  1.00  0.00     0.060 A 
BRANCH  32  34
HETATM   34  C   UNL     1      43.369 -18.357   3.569  1.00  0.00     0.033 A 
HETATM   35  S   UNL     1      44.123 -19.682   4.368  1.00  0.00    -0.100 SA
HETATM   36  C   UNL     1      44.003 -20.688   2.996  1.00  0.00     0.050 A 
HETATM   37  C   UNL     1      43.401 -20.047   1.939  1.00  0.00     0.008 A 
HETATM   38  C   UNL     1      43.036 -18.711   2.270  1.00  0.00     0.021 A 
ENDBRANCH  32  34
ENDBRANCH   1  27
TORSDOF 6
ENDMDL
MODEL 6
REMARK VINA RESULT:      -9.2      1.356      2.967
REMARK  6 active torsions:
REMARK  status: ('A' for Active; 'I' for Inactive)
REMARK    1  A    between atoms: C_4  and  C_5 
REMARK    2  A    between atoms: C_8  and  C_9 
REMARK    3  A    between atoms: C_9  and  N_10 
REMARK       I    between atoms: N_10  and  C_11 
REMARK       I    between atoms: C_11  and  N_12 
REMARK    4  A    between atoms: N_12  and  C_13 
REMARK    5  A    between atoms: C_15  and  C_16 
REMARK    6  A    between atoms: C_30  and  C_31 
ROOT
HETATM    1  C   UNL     1      42.234 -15.270   1.691  1.00  0.00     0.068 C 
HETATM    2  C   UNL     1      41.463 -16.511   2.237  1.00  0.00     0.001 C 
HETATM    3  C   UNL     1      40.736 -16.210   3.569  1.00  0.00     0.040 C 
HETATM    4  C   UNL     1      41.715 -15.660   4.620  1.00  0.00     0.206 C 
HETATM    5  N   UNL     1      43.102 -15.679   3.980  1.00  0.00    -0.065 N 
HETATM    6  H   UNL     1      43.762 -15.297   4.693  1.00  0.00     0.280 HD
HETATM    7  C   UNL     1      43.217 -14.779   2.768  1.00  0.00     0.246 C 
HETATM    8  C   UNL     1      42.524 -17.596   2.557  1.00  0.00     0.033 C 
HETATM    9  C   UNL     1      43.501 -17.091   3.627  1.00  0.00     0.236 C 
ENDROOT
BRANCH   4  10
HETATM   10  C   UNL     1      41.307 -14.269   5.180  1.00  0.00     0.157 C 
BRANCH  10  11
HETATM   11  N   UNL     1      42.115 -13.756   6.287  1.00  0.00    -0.341 N 
HETATM   12  C   UNL     1      42.757 -12.539   6.267  1.00  0.00     0.320 C 
HETATM   13  N   UNL     1      43.325 -12.239   7.478  1.00  0.00    -0.309 N 
HETATM   14  O   UNL     1      42.818 -11.870   5.241  1.00  0.00    -0.247 OA
HETATM   15  H   UNL     1      43.304 -12.964   8.182  1.00  0.00     0.170 HD
HETATM   16  H   UNL     1      41.811 -14.052   7.207  1.00  0.00     0.164 HD
BRANCH  13  17
HETATM   17  C   UNL     1      44.033 -11.069   7.832  1.00  0.00     0.037 A 
HETATM   18  C   UNL     1      43.448  -9.961   8.449  1.00  0.00     0.045 A 
HETATM   19  C   UNL     1      44.211  -8.824   8.774  1.00  0.00     0.050 A 
HETATM   20  C   UNL     1      45.578  -8.811   8.466  1.00  0.00     0.016 A 
HETATM   21  C   UNL     1      46.171  -9.915   7.859  1.00  0.00     0.003 A 
HETATM   22  C   UNL     1      45.403 -11.038   7.546  1.00  0.00     0.029 A 
BRANCH  19  23
HETATM   23  C   UNL     1      43.564  -7.618   9.411  1.00  0.00     0.417 C 
HETATM   24  F   UNL     1      43.505  -7.697  10.771  1.00  0.00    -0.166 F 
HETATM   25  F   UNL     1      44.217  -6.458   9.133  1.00  0.00    -0.166 F 
HETATM   26  F   UNL     1      42.280  -7.441   8.994  1.00  0.00    -0.166 F 
ENDBRANCH  19  23
ENDBRANCH  13  17
ENDBRANCH  10  11
ENDBRANCH   4  10
BRANCH   1  27
HETATM   27  C   UNL     1      41.393 -14.115   1.184  1.00  0.00     0.045 A 
HETATM   28  N   UNL     1      40.535 -14.352   0.177  1.00  0.00    -0.238 NA
HETATM   29  C   UNL     1      39.772 -13.326  -0.244  1.00  0.00     0.123 A 
HETATM   30  C   UNL     1      38.864 -13.553  -1.412  1.00  0.00     0.093 C 
HETATM   31  N   UNL     1      39.753 -12.116   0.328  1.00  0.00    -0.233 NA
HETATM   32  C   UNL     1      40.592 -11.902   1.362  1.00  0.00     0.077 A 
HETATM   33  C   UNL     1      41.453 -12.884   1.815  1.00  0.00     0.060 A 
BRANCH  32  34
HETATM   34  C   UNL     1      40.468 -10.561   1.962  1.00  0.00     0.033 A 
HETATM   35  S   UNL     1      39.941 -10.332   3.585  1.00  0.00    -0.100 SA
HETATM   36  C   UNL     1      40.041  -8.633   3.468  1.00  0.00     0.050 A 
HETATM   37  C   UNL     1      40.468  -8.227   2.226  1.00  0.00     0.008 A 
HETATM   38  C   UNL     1      40.714  -9.333   1.364  1.00  0.00     0.021 A 
ENDBRANCH  32  34
ENDBRANCH   1  27
TORSDOF 6
ENDMDL
MODEL 7
REMARK VINA RESULT:      -9.1      5.907     10.005
REMARK  6 active torsions:
REMARK  status: ('A' for Active; 'I' for Inactive)
REMARK    1  A    between atoms: C_4  and  C_5 
REMARK    2  A    between atoms: C_8  and  C_9 
REMARK    3  A    between atoms: C_9  and  N_10 
REMARK       I    between atoms: N_10  and  C_11 
REMARK       I    between atoms: C_11  and  N_12 
REMARK    4  A    between atoms: N_12  and  C_13 
REMARK    5  A    between atoms: C_15  and  C_16 
REMARK    6  A    between atoms: C_30  and  C_31 
ROOT
HETATM    1  C   UNL     1      40.683  -9.493   5.543  1.00  0.00     0.068 C 
HETATM    2  C   UNL     1      39.643 -10.614   5.235  1.00  0.00     0.001 C 
HETATM    3  C   UNL     1      40.262 -11.785   4.435  1.00  0.00     0.040 C 
HETATM    4  C   UNL     1      40.931 -11.280   3.146  1.00  0.00     0.206 C 
HETATM    5  N   UNL     1      40.672  -9.776   3.078  1.00  0.00    -0.065 N 
HETATM    6  H   UNL     1      41.135  -9.435   2.206  1.00  0.00     0.280 HD
HETATM    7  C   UNL     1      41.299  -9.006   4.221  1.00  0.00     0.246 C 
HETATM    8  C   UNL     1      38.562  -9.986   4.317  1.00  0.00     0.033 C 
HETATM    9  C   UNL     1      39.191  -9.498   3.005  1.00  0.00     0.236 C 
ENDROOT
BRANCH   4  10
HETATM   10  C   UNL     1      42.434 -11.658   3.038  1.00  0.00     0.157 C 
BRANCH  10  11
HETATM   11  N   UNL     1      42.728 -13.021   2.589  1.00  0.00    -0.341 N 
HETATM   12  C   UNL     1      43.044 -14.055   3.440  1.00  0.00     0.320 C 
HETATM   13  N   UNL     1      43.133 -15.252   2.779  1.00  0.00    -0.309 N 
HETATM   14  O   UNL     1      43.254 -13.855   4.631  1.00  0.00    -0.247 OA
HETATM   15  H   UNL     1      43.070 -15.221   1.770  1.00  0.00     0.170 HD
HETATM   16  H   UNL     1      42.238 -13.305   1.750  1.00  0.00     0.164 HD
BRANCH  13  17
HETATM   17  C   UNL     1      43.408 -16.523   3.331  1.00  0.00     0.037 A 
HETATM   18  C   UNL     1      43.340 -17.717   2.610  1.00  0.00     0.045 A 
HETATM   19  C   UNL     1      43.624 -18.952   3.223  1.00  0.00     0.050 A 
HETATM   20  C   UNL     1      43.978 -18.974   4.579  1.00  0.00     0.016 A 
HETATM   21  C   UNL     1      44.058 -17.787   5.302  1.00  0.00     0.003 A 
HETATM   22  C   UNL     1      43.776 -16.569   4.681  1.00  0.00     0.029 A 
BRANCH  19  23
HETATM   23  C   UNL     1      43.517 -20.241   2.445  1.00  0.00     0.417 C 
HETATM   24  F   UNL     1      44.411 -20.326   1.419  1.00  0.00    -0.166 F 
HETATM   25  F   UNL     1      43.727 -21.344   3.214  1.00  0.00    -0.166 F 
HETATM   26  F   UNL     1      42.288 -20.401   1.880  1.00  0.00    -0.166 F 
ENDBRANCH  19  23
ENDBRANCH  13  17
ENDBRANCH  10  11
ENDBRANCH   4  10
BRANCH   1  27
HETATM   27  C   UNL     1      41.777  -9.834   6.536  1.00  0.00     0.045 A 
HETATM   28  N   UNL     1      42.898 -10.409   6.069  1.00  0.00    -0.238 NA
HETATM   29  C   UNL     1      43.874 -10.678   6.957  1.00  0.00     0.123 A 
HETATM   30  C   UNL     1      45.100 -11.383   6.467  1.00  0.00     0.093 C 
HETATM   31  N   UNL     1      43.834 -10.335   8.250  1.00  0.00    -0.233 NA
HETATM   32  C   UNL     1      42.718  -9.725   8.698  1.00  0.00     0.077 A 
HETATM   33  C   UNL     1      41.645  -9.469   7.865  1.00  0.00     0.060 A 
BRANCH  32  34
HETATM   34  C   UNL     1      42.779  -9.339  10.120  1.00  0.00     0.033 A 
HETATM   35  S   UNL     1      41.400  -9.416  11.147  1.00  0.00    -0.100 SA
HETATM   36  C   UNL     1      42.261  -8.815  12.492  1.00  0.00     0.050 A 
HETATM   37  C   UNL     1      43.576  -8.555  12.185  1.00  0.00     0.008 A 
HETATM   38  C   UNL     1      43.873  -8.858  10.826  1.00  0.00     0.021 A 
ENDBRANCH  32  34
ENDBRANCH   1  27
TORSDOF 6
ENDMDL
MODEL 8
REMARK VINA RESULT:      -9.1      6.314      8.612
REMARK  6 active torsions:
REMARK  status: ('A' for Active; 'I' for Inactive)
REMARK    1  A    between atoms: C_4  and  C_5 
REMARK    2  A    between atoms: C_8  and  C_9 
REMARK    3  A    between atoms: C_9  and  N_10 
REMARK       I    between atoms: N_10  and  C_11 
REMARK       I    between atoms: C_11  and  N_12 
REMARK    4  A    between atoms: N_12  and  C_13 
REMARK    5  A    between atoms: C_15  and  C_16 
REMARK    6  A    between atoms: C_30  and  C_31 
ROOT
HETATM    1  C   UNL     1      39.422 -11.605  -2.818  1.00  0.00     0.068 C 
HETATM    2  C   UNL     1      38.284 -12.529  -2.284  1.00  0.00     0.001 C 
HETATM    3  C   UNL     1      38.493 -12.918  -0.801  1.00  0.00     0.040 C 
HETATM    4  C   UNL     1      39.874 -13.559  -0.587  1.00  0.00     0.206 C 
HETATM    5  N   UNL     1      40.531 -13.653  -1.963  1.00  0.00    -0.065 N 
HETATM    6  H   UNL     1      41.472 -14.081  -1.813  1.00  0.00     0.280 HD
HETATM    7  C   UNL     1      40.775 -12.304  -2.606  1.00  0.00     0.246 C 
HETATM    8  C   UNL     1      38.360 -13.849  -3.093  1.00  0.00     0.033 C 
HETATM    9  C   UNL     1      39.717 -14.533  -2.878  1.00  0.00     0.236 C 
ENDROOT
BRANCH   4  10
HETATM   10  C   UNL     1      40.744 -12.821   0.468  1.00  0.00     0.157 C 
BRANCH  10  11
HETATM   11  N   UNL     1      41.897 -13.560   0.986  1.00  0.00    -0.341 N 
HETATM   12  C   UNL     1      41.796 -14.677   1.782  1.00  0.00     0.320 C 
HETATM   13  N   UNL     1      43.018 -15.256   2.010  1.00  0.00    -0.309 N 
HETATM   14  O   UNL     1      40.716 -15.034   2.241  1.00  0.00    -0.247 OA
HETATM   15  H   UNL     1      43.828 -14.755   1.674  1.00  0.00     0.170 HD
HETATM   16  H   UNL     1      42.712 -13.549   0.385  1.00  0.00     0.164 HD
BRANCH  13  17
HETATM   17  C   UNL     1      43.292 -16.426   2.752  1.00  0.00     0.037 A 
HETATM   18  C   UNL     1      43.264 -17.715   2.215  1.00  0.00     0.045 A 
HETATM   19  C   UNL     1      43.545 -18.841   3.011  1.00  0.00     0.050 A 
HETATM   20  C   UNL     1      43.855 -18.655   4.366  1.00  0.00     0.016 A 
HETATM   21  C   UNL     1      43.894 -17.373   4.908  1.00  0.00     0.003 A 
HETATM   22  C   UNL     1      43.616 -16.265   4.104  1.00  0.00     0.029 A 
BRANCH  19  23
HETATM   23  C   UNL     1      43.481 -20.232   2.430  1.00  0.00     0.417 C 
HETATM   24  F   UNL     1      43.703 -21.210   3.354  1.00  0.00    -0.166 F 
HETATM   25  F   UNL     1      42.276 -20.517   1.868  1.00  0.00    -0.166 F 
HETATM   26  F   UNL     1      44.411 -20.425   1.455  1.00  0.00    -0.166 F 
ENDBRANCH  19  23
ENDBRANCH  13  17
ENDBRANCH  10  11
ENDBRANCH   4  10
BRANCH   1  27
HETATM   27  C   UNL     1      39.469 -10.194  -2.265  1.00  0.00     0.045 A 
HETATM   28  N   UNL     1      38.402  -9.747  -1.581  1.00  0.00    -0.238 NA
HETATM   29  C   UNL     1      38.469  -8.503  -1.069  1.00  0.00     0.123 A 
HETATM   30  C   UNL     1      37.262  -7.963  -0.367  1.00  0.00     0.093 C 
HETATM   31  N   UNL     1      39.554  -7.722  -1.123  1.00  0.00    -0.233 NA
HETATM   32  C   UNL     1      40.631  -8.197  -1.780  1.00  0.00     0.077 A 
HETATM   33  C   UNL     1      40.623  -9.439  -2.388  1.00  0.00     0.060 A 
BRANCH  32  34
HETATM   34  C   UNL     1      41.796  -7.293  -1.748  1.00  0.00     0.033 A 
HETATM   35  S   UNL     1      41.634  -5.608  -1.439  1.00  0.00    -0.100 SA
HETATM   36  C   UNL     1      43.309  -5.329  -1.603  1.00  0.00     0.050 A 
HETATM   37  C   UNL     1      43.997  -6.486  -1.887  1.00  0.00     0.008 A 
HETATM   38  C   UNL     1      43.128  -7.611  -1.967  1.00  0.00     0.021 A 
ENDBRANCH  32  34
ENDBRANCH   1  27
TORSDOF 6
ENDMDL
MODEL 9
REMARK VINA RESULT:      -9.1      3.048      5.526
REMARK  6 active torsions:
REMARK  status: ('A' for Active; 'I' for Inactive)
REMARK    1  A    between atoms: C_4  and  C_5 
REMARK    2  A    between atoms: C_8  and  C_9 
REMARK    3  A    between atoms: C_9  and  N_10 
REMARK       I    between atoms: N_10  and  C_11 
REMARK       I    between atoms: C_11  and  N_12 
REMARK    4  A    between atoms: N_12  and  C_13 
REMARK    5  A    between atoms: C_15  and  C_16 
REMARK    6  A    between atoms: C_30  and  C_31 
ROOT
HETATM    1  C   UNL     1      40.490 -14.077   2.968  1.00  0.00     0.068 C 
HETATM    2  C   UNL     1      40.766 -13.514   1.540  1.00  0.00     0.001 C 
HETATM    3  C   UNL     1      41.859 -12.419   1.543  1.00  0.00     0.040 C 
HETATM    4  C   UNL     1      41.506 -11.289   2.525  1.00  0.00     0.206 C 
HETATM    5  N   UNL     1      40.132 -11.625   3.104  1.00  0.00    -0.065 N 
HETATM    6  H   UNL     1      39.900 -10.861   3.776  1.00  0.00     0.280 HD
HETATM    7  C   UNL     1      40.114 -12.912   3.900  1.00  0.00     0.246 C 
HETATM    8  C   UNL     1      39.461 -12.823   1.067  1.00  0.00     0.033 C 
HETATM    9  C   UNL     1      39.094 -11.668   2.009  1.00  0.00     0.236 C 
ENDROOT
BRANCH   4  10
HETATM   10  C   UNL     1      42.594 -11.045   3.607  1.00  0.00     0.157 C 
BRANCH  10  11
HETATM   11  N   UNL     1      42.255 -10.083   4.658  1.00  0.00    -0.341 N 
HETATM   12  C   UNL     1      42.134 -10.413   5.988  1.00  0.00     0.320 C 
HETATM   13  N   UNL     1      41.951  -9.306   6.775  1.00  0.00    -0.309 N 
HETATM   14  O   UNL     1      42.150 -11.582   6.355  1.00  0.00    -0.247 OA
HETATM   15  H   UNL     1      41.820  -8.425   6.298  1.00  0.00     0.170 HD
HETATM   16  H   UNL     1      42.584  -9.139   4.490  1.00  0.00     0.164 HD
BRANCH  13  17
HETATM   17  C   UNL     1      41.819  -9.261   8.181  1.00  0.00     0.037 A 
HETATM   18  C   UNL     1      42.893  -9.367   9.068  1.00  0.00     0.045 A 
HETATM   19  C   UNL     1      42.692  -9.317  10.460  1.00  0.00     0.050 A 
HETATM   20  C   UNL     1      41.389  -9.160  10.955  1.00  0.00     0.016 A 
HETATM   21  C   UNL     1      40.315  -9.044  10.077  1.00  0.00     0.003 A 
HETATM   22  C   UNL     1      40.530  -9.092   8.698  1.00  0.00     0.029 A 
BRANCH  19  23
HETATM   23  C   UNL     1      43.853  -9.465  11.413  1.00  0.00     0.417 C 
HETATM   24  F   UNL     1      43.929  -8.456  12.327  1.00  0.00    -0.166 F 
HETATM   25  F   UNL     1      43.805 -10.618  12.133  1.00  0.00    -0.166 F 
HETATM   26  F   UNL     1      45.052  -9.470  10.766  1.00  0.00    -0.166 F 
ENDBRANCH  19  23
ENDBRANCH  13  17
ENDBRANCH  10  11
ENDBRANCH   4  10
BRANCH   1  27
HETATM   27  C   UNL     1      41.587 -14.916   3.594  1.00  0.00     0.045 A 
HETATM   28  N   UNL     1      42.176 -14.455   4.710  1.00  0.00    -0.238 NA
HETATM   29  C   UNL     1      43.128 -15.225   5.273  1.00  0.00     0.123 A 
HETATM   30  C   UNL     1      43.845 -14.694   6.475  1.00  0.00     0.093 C 
HETATM   31  N   UNL     1      43.461 -16.447   4.843  1.00  0.00    -0.233 NA
HETATM   32  C   UNL     1      42.836 -16.913   3.743  1.00  0.00     0.077 A 
HETATM   33  C   UNL     1      41.891 -16.161   3.070  1.00  0.00     0.060 A 
BRANCH  32  34
HETATM   34  C   UNL     1      43.228 -18.285   3.370  1.00  0.00     0.033 A 
HETATM   35  S   UNL     1      44.052 -19.328   4.465  1.00  0.00    -0.100 SA
HETATM   36  C   UNL     1      44.147 -20.592   3.323  1.00  0.00     0.050 A 
HETATM   37  C   UNL     1      43.566 -20.247   2.125  1.00  0.00     0.008 A 
HETATM   38  C   UNL     1      43.037 -18.926   2.155  1.00  0.00     0.021 A 
ENDBRANCH  32  34
ENDBRANCH   1  27
TORSDOF 6
ENDMDL
MODEL 10
REMARK VINA RESULT:      -9.1      5.538      7.808
REMARK  6 active torsions:
REMARK  status: ('A' for Active; 'I' for Inactive)
REMARK    1  A    between atoms: C_4  and  C_5 
REMARK    2  A    between atoms: C_8  and  C_9 
REMARK    3  A    between atoms: C_9  and  N_10 
REMARK       I    between atoms: N_10  and  C_11 
REMARK       I    between atoms: C_11  and  N_12 
REMARK    4  A    between atoms: N_12  and  C_13 
REMARK    5  A    between atoms: C_15  and  C_16 
REMARK    6  A    between atoms: C_30  and  C_31 
ROOT
HETATM    1  C   UNL     1      38.471 -10.185   2.645  1.00  0.00     0.068 C 
HETATM    2  C   UNL     1      39.578  -9.102   2.837  1.00  0.00     0.001 C 
HETATM    3  C   UNL     1      40.936  -9.540   2.239  1.00  0.00     0.040 C 
HETATM    4  C   UNL     1      41.381 -10.896   2.812  1.00  0.00     0.206 C 
HETATM    5  N   UNL     1      40.334 -11.299   3.848  1.00  0.00    -0.065 N 
HETATM    6  H   UNL     1      40.635 -12.223   4.229  1.00  0.00     0.280 HD
HETATM    7  C   UNL     1      38.955 -11.509   3.259  1.00  0.00     0.246 C 
HETATM    8  C   UNL     1      39.805  -8.956   4.364  1.00  0.00     0.033 C 
HETATM    9  C   UNL     1      40.280 -10.286   4.966  1.00  0.00     0.236 C 
ENDROOT
BRANCH   4  10
HETATM   10  C   UNL     1      41.628 -11.978   1.724  1.00  0.00     0.157 C 
BRANCH  10  11
HETATM   11  N   UNL     1      41.423 -13.368   2.138  1.00  0.00    -0.341 N 
HETATM   12  C   UNL     1      42.449 -14.249   2.395  1.00  0.00     0.320 C 
HETATM   13  N   UNL     1      41.987 -15.438   2.898  1.00  0.00    -0.309 N 
HETATM   14  O   UNL     1      43.612 -13.961   2.138  1.00  0.00    -0.247 OA
HETATM   15  H   UNL     1      40.985 -15.566   2.917  1.00  0.00     0.170 HD
HETATM   16  H   UNL     1      40.588 -13.528   2.687  1.00  0.00     0.164 HD
BRANCH  13  17
HETATM   17  C   UNL     1      42.750 -16.556   3.303  1.00  0.00     0.037 A 
HETATM   18  C   UNL     1      42.737 -17.787   2.644  1.00  0.00     0.045 A 
HETATM   19  C   UNL     1      43.521 -18.863   3.102  1.00  0.00     0.050 A 
HETATM   20  C   UNL     1      44.321 -18.688   4.239  1.00  0.00     0.016 A 
HETATM   21  C   UNL     1      44.347 -17.460   4.896  1.00  0.00     0.003 A 
HETATM   22  C   UNL     1      43.567 -16.400   4.429  1.00  0.00     0.029 A 
BRANCH  19  23
HETATM   23  C   UNL     1      43.477 -20.201   2.403  1.00  0.00     0.417 C 
HETATM   24  F   UNL     1      43.718 -21.251   3.239  1.00  0.00    -0.166 F 
HETATM   25  F   UNL     1      42.274 -20.456   1.821  1.00  0.00    -0.166 F 
HETATM   26  F   UNL     1      44.406 -20.295   1.413  1.00  0.00    -0.166 F 
ENDBRANCH  19  23
ENDBRANCH  13  17
ENDBRANCH  10  11
ENDBRANCH   4  10
BRANCH   1  27
HETATM   27  C   UNL     1      37.981 -10.412   1.228  1.00  0.00     0.045 A 
HETATM   28  N   UNL     1      37.346  -9.403   0.609  1.00  0.00    -0.238 NA
HETATM   29  C   UNL     1      36.943  -9.608  -0.659  1.00  0.00     0.123 A 
HETATM   30  C   UNL     1      36.171  -8.520  -1.339  1.00  0.00     0.093 C 
HETATM   31  N   UNL     1      37.207 -10.713  -1.366  1.00  0.00    -0.233 NA
HETATM   32  C   UNL     1      37.878 -11.704  -0.745  1.00  0.00     0.077 A 
HETATM   33  C   UNL     1      38.273 -11.598   0.576  1.00  0.00     0.060 A 
BRANCH  32  34
HETATM   34  C   UNL     1      38.169 -12.861  -1.611  1.00  0.00     0.033 A 
HETATM   35  S   UNL     1      39.584 -13.821  -1.407  1.00  0.00    -0.100 SA
HETATM   36  C   UNL     1      39.191 -14.832  -2.725  1.00  0.00     0.050 A 
HETATM   37  C   UNL     1      38.009 -14.463  -3.321  1.00  0.00     0.008 A 
HETATM   38  C   UNL     1      37.423 -13.335  -2.680  1.00  0.00     0.021 A 
ENDBRANCH  32  34
ENDBRANCH   1  27
TORSDOF 6
ENDMDL
