MODEL 1
REMARK VINA RESULT:      -8.1      0.000      0.000
REMARK  8 active torsions:
REMARK  status: ('A' for Active; 'I' for Inactive)
REMARK    1  A    between atoms: O_2  and  C_3 
REMARK    2  A    between atoms: C_7  and  C_9 
REMARK    3  A    between atoms: C_9  and  C_10 
REMARK    4  A    between atoms: C_9  and  N_13 
REMARK    5  A    between atoms: C_10  and  C_11 
REMARK    6  A    between atoms: C_11  and  O_12 
REMARK       I    between atoms: N_13  and  C_14 
REMARK    7  A    between atoms: C_14  and  C_16 
REMARK    8  A    between atoms: C_19  and  C_22 
ROOT
HETATM    1  N   UNL     1      41.411 -12.983   1.579  1.00  0.00    -0.348 N 
HETATM    2  C   UNL     1      42.543 -13.171   2.342  1.00  0.00     0.252 C 
HETATM    3  O   UNL     1      43.225 -12.248   2.771  1.00  0.00    -0.268 OA
HETATM    4  H   UNL     1      40.848 -13.772   1.298  1.00  0.00     0.163 HD
ENDROOT
BRANCH   1   5
HETATM    5  C   UNL     1      40.956 -11.659   1.174  1.00  0.00     0.120 C 
BRANCH   5   6
HETATM    6  C   UNL     1      40.846 -11.524  -0.340  1.00  0.00    -0.033 A 
HETATM    7  C   UNL     1      41.097 -10.273  -0.929  1.00  0.00     0.009 A 
HETATM    8  C   UNL     1      40.962 -10.092  -2.305  1.00  0.00     0.003 A 
HETATM    9  C   UNL     1      40.586 -11.163  -3.113  1.00  0.00     0.037 A 
HETATM   10  C   UNL     1      40.355 -12.420  -2.554  1.00  0.00     0.068 A 
HETATM   11  C   UNL     1      40.463 -12.593  -1.171  1.00  0.00     0.046 A 
BRANCH  10  12
HETATM   12  O   UNL     1      40.003 -13.393  -3.450  1.00  0.00    -0.356 OA
HETATM   13  C   UNL     1      39.055 -14.350  -2.992  1.00  0.00     0.210 C 
ENDBRANCH  10  12
ENDBRANCH   5   6
BRANCH   5  14
HETATM   14  C   UNL     1      39.605 -11.335   1.831  1.00  0.00     0.056 C 
BRANCH  14  15
HETATM   15  C   UNL     1      39.319 -12.235   3.029  1.00  0.00     0.166 C 
BRANCH  15  16
HETATM   16  O   UNL     1      38.609 -13.392   2.598  1.00  0.00    -0.401 OA
HETATM   17  H   UNL     1      37.914 -13.573   3.254  1.00  0.00     0.209 HD
ENDBRANCH  15  16
ENDBRANCH  14  15
ENDBRANCH   5  14
ENDBRANCH   1   5
BRANCH   2  18
HETATM   18  C   UNL     1      42.885 -14.579   2.696  1.00  0.00     0.032 A 
HETATM   19  C   UNL     1      43.120 -15.568   1.735  1.00  0.00     0.018 A 
HETATM   20  C   UNL     1      43.387 -16.886   2.129  1.00  0.00     0.013 A 
HETATM   21  C   UNL     1      43.438 -17.246   3.487  1.00  0.00    -0.026 A 
HETATM   22  C   UNL     1      43.235 -16.234   4.440  1.00  0.00     0.013 A 
HETATM   23  C   UNL     1      42.964 -14.918   4.051  1.00  0.00     0.018 A 
BRANCH  21  24
HETATM   24  C   UNL     1      43.683 -18.641   3.896  1.00  0.00    -0.023 A 
HETATM   25  C   UNL     1      43.690 -19.686   2.963  1.00  0.00     0.031 A 
HETATM   26  C   UNL     1      43.913 -20.982   3.402  1.00  0.00     0.117 A 
HETATM   27  N   UNL     1      44.126 -21.312   4.691  1.00  0.00    -0.273 NA
HETATM   28  C   UNL     1      44.119 -20.300   5.581  1.00  0.00     0.117 A 
HETATM   29  C   UNL     1      43.907 -18.973   5.238  1.00  0.00     0.031 A 
ENDBRANCH  21  24
ENDBRANCH   2  18
TORSDOF 8
ENDMDL
MODEL 2
REMARK VINA RESULT:      -7.9      5.848      8.694
REMARK  8 active torsions:
REMARK  status: ('A' for Active; 'I' for Inactive)
REMARK    1  A    between atoms: O_2  and  C_3 
REMARK    2  A    between atoms: C_7  and  C_9 
REMARK    3  A    between atoms: C_9  and  C_10 
REMARK    4  A    between atoms: C_9  and  N_13 
REMARK    5  A    between atoms: C_10  and  C_11 
REMARK    6  A    between atoms: C_11  and  O_12 
REMARK       I    between atoms: N_13  and  C_14 
REMARK    7  A    between atoms: C_14  and  C_16 
REMARK    8  A    between atoms: C_19  and  C_22 
ROOT
HETATM    1  N   UNL     1      43.725 -11.231   7.649  1.00  0.00    -0.348 N 
HETATM    2  C   UNL     1      42.913 -11.549   6.582  1.00  0.00     0.252 C 
HETATM    3  O   UNL     1      42.162 -10.744   6.046  1.00  0.00    -0.268 OA
HETATM    4  H   UNL     1      44.371 -11.911   8.020  1.00  0.00     0.163 HD
ENDROOT
BRANCH   1   5
HETATM    5  C   UNL     1      43.720  -9.909   8.264  1.00  0.00     0.120 C 
BRANCH   5   6
HETATM    6  C   UNL     1      43.172  -9.936   9.686  1.00  0.00    -0.033 A 
HETATM    7  C   UNL     1      43.931 -10.556  10.694  1.00  0.00     0.009 A 
HETATM    8  C   UNL     1      43.447 -10.645  11.999  1.00  0.00     0.003 A 
HETATM    9  C   UNL     1      42.203 -10.106  12.316  1.00  0.00     0.037 A 
HETATM   10  C   UNL     1      41.442  -9.465  11.339  1.00  0.00     0.068 A 
HETATM   11  C   UNL     1      41.916  -9.401  10.025  1.00  0.00     0.046 A 
BRANCH  10  12
HETATM   12  O   UNL     1      40.244  -8.966  11.775  1.00  0.00    -0.356 OA
HETATM   13  C   UNL     1      39.574  -9.734  12.768  1.00  0.00     0.210 C 
ENDBRANCH  10  12
ENDBRANCH   5   6
BRANCH   5  14
HETATM   14  C   UNL     1      45.136  -9.312   8.257  1.00  0.00     0.056 C 
BRANCH  14  15
HETATM   15  C   UNL     1      46.182 -10.322   7.799  1.00  0.00     0.166 C 
BRANCH  15  16
HETATM   16  O   UNL     1      46.176 -10.404   6.377  1.00  0.00    -0.401 OA
HETATM   17  H   UNL     1      46.232 -11.345   6.136  1.00  0.00     0.209 HD
ENDBRANCH  15  16
ENDBRANCH  14  15
ENDBRANCH   5  14
ENDBRANCH   1   5
BRANCH   2  18
HETATM   18  C   UNL     1      43.032 -12.935   6.043  1.00  0.00     0.032 A 
HETATM   19  C   UNL     1      43.530 -14.003   6.796  1.00  0.00     0.018 A 
HETATM   20  C   UNL     1      43.665 -15.272   6.217  1.00  0.00     0.013 A 
HETATM   21  C   UNL     1      43.295 -15.509   4.881  1.00  0.00    -0.026 A 
HETATM   22  C   UNL     1      42.762 -14.434   4.150  1.00  0.00     0.013 A 
HETATM   23  C   UNL     1      42.630 -13.164   4.723  1.00  0.00     0.018 A 
BRANCH  21  24
HETATM   24  C   UNL     1      43.472 -16.837   4.266  1.00  0.00    -0.023 A 
HETATM   25  C   UNL     1      42.988 -17.119   2.983  1.00  0.00     0.031 A 
HETATM   26  C   UNL     1      43.170 -18.388   2.455  1.00  0.00     0.117 A 
HETATM   27  N   UNL     1      43.794 -19.390   3.106  1.00  0.00    -0.273 NA
HETATM   28  C   UNL     1      44.259 -19.108   4.340  1.00  0.00     0.117 A 
HETATM   29  C   UNL     1      44.126 -17.870   4.950  1.00  0.00     0.031 A 
ENDBRANCH  21  24
ENDBRANCH   2  18
TORSDOF 8
ENDMDL
MODEL 3
REMARK VINA RESULT:      -7.8      1.958      3.633
REMARK  8 active torsions:
REMARK  status: ('A' for Active; 'I' for Inactive)
REMARK    1  A    between atoms: O_2  and  C_3 
REMARK    2  A    between atoms: C_7  and  C_9 
REMARK    3  A    between atoms: C_9  and  C_10 
REMARK    4  A    between atoms: C_9  and  N_13 
REMARK    5  A    between atoms: C_10  and  C_11 
REMARK    6  A    between atoms: C_11  and  O_12 
REMARK       I    between atoms: N_13  and  C_14 
REMARK    7  A    between atoms: C_14  and  C_16 
REMARK    8  A    between atoms: C_19  and  C_22 
ROOT
HETATM    1  N   UNL     1      39.754 -13.181  -0.574  1.00  0.00    -0.348 N 
HETATM    2  C   UNL     1      39.771 -13.270   0.801  1.00  0.00     0.252 C 
HETATM    3  O   UNL     1      39.094 -12.554   1.529  1.00  0.00    -0.268 OA
HETATM    4  H   UNL     1      40.284 -13.832  -1.135  1.00  0.00     0.163 HD
ENDROOT
BRANCH   1   5
HETATM    5  C   UNL     1      38.958 -12.186  -1.281  1.00  0.00     0.120 C 
BRANCH   5   6
HETATM    6  C   UNL     1      39.807 -11.035  -1.808  1.00  0.00    -0.033 A 
HETATM    7  C   UNL     1      39.475 -10.460  -3.047  1.00  0.00     0.009 A 
HETATM    8  C   UNL     1      40.252  -9.437  -3.590  1.00  0.00     0.003 A 
HETATM    9  C   UNL     1      41.364  -8.967  -2.896  1.00  0.00     0.037 A 
HETATM   10  C   UNL     1      41.699  -9.505  -1.653  1.00  0.00     0.068 A 
HETATM   11  C   UNL     1      40.936 -10.550  -1.123  1.00  0.00     0.046 A 
BRANCH  10  12
HETATM   12  O   UNL     1      42.805  -8.953  -1.066  1.00  0.00    -0.356 OA
HETATM   13  C   UNL     1      43.175  -7.659  -1.526  1.00  0.00     0.210 C 
ENDBRANCH  10  12
ENDBRANCH   5   6
BRANCH   5  14
HETATM   14  C   UNL     1      38.184 -12.842  -2.435  1.00  0.00     0.056 C 
BRANCH  14  15
HETATM   15  C   UNL     1      38.819 -14.156  -2.877  1.00  0.00     0.166 C 
BRANCH  15  16
HETATM   16  O   UNL     1      38.317 -14.521  -4.158  1.00  0.00    -0.401 OA
HETATM   17  H   UNL     1      38.809 -15.306  -4.455  1.00  0.00     0.209 HD
ENDBRANCH  15  16
ENDBRANCH  14  15
ENDBRANCH   5  14
ENDBRANCH   1   5
BRANCH   2  18
HETATM   18  C   UNL     1      40.620 -14.346   1.390  1.00  0.00     0.032 A 
HETATM   19  C   UNL     1      41.907 -14.638   0.926  1.00  0.00     0.018 A 
HETATM   20  C   UNL     1      42.636 -15.694   1.488  1.00  0.00     0.013 A 
HETATM   21  C   UNL     1      42.107 -16.475   2.531  1.00  0.00    -0.026 A 
HETATM   22  C   UNL     1      40.829 -16.145   3.009  1.00  0.00     0.013 A 
HETATM   23  C   UNL     1      40.095 -15.094   2.449  1.00  0.00     0.018 A 
BRANCH  21  24
HETATM   24  C   UNL     1      42.864 -17.608   3.093  1.00  0.00    -0.023 A 
HETATM   25  C   UNL     1      43.378 -17.570   4.395  1.00  0.00     0.031 A 
HETATM   26  C   UNL     1      44.093 -18.658   4.871  1.00  0.00     0.117 A 
HETATM   27  N   UNL     1      44.334 -19.772   4.152  1.00  0.00    -0.273 NA
HETATM   28  C   UNL     1      43.832 -19.801   2.901  1.00  0.00     0.117 A 
HETATM   29  C   UNL     1      43.104 -18.763   2.338  1.00  0.00     0.031 A 
ENDBRANCH  21  24
ENDBRANCH   2  18
TORSDOF 8
ENDMDL
MODEL 4
REMARK VINA RESULT:      -7.7      4.348      7.150
REMARK  8 active torsions:
REMARK  status: ('A' for Active; 'I' for Inactive)
REMARK    1  A    between atoms: O_2  and  C_3 
REMARK    2  A    between atoms: C_7  and  C_9 
REMARK    3  A    between atoms: C_9  and  C_10 
REMARK    4  A    between atoms: C_9  and  N_13 
REMARK    5  A    between atoms: C_10  and  C_11 
REMARK    6  A    between atoms: C_11  and  O_12 
REMARK       I    between atoms: N_13  and  C_14 
REMARK    7  A    between atoms: C_14  and  C_16 
REMARK    8  A    between atoms: C_19  and  C_22 
ROOT
HETATM    1  N   UNL     1      42.757 -12.496   5.685  1.00  0.00    -0.348 N 
HETATM    2  C   UNL     1      41.772 -13.456   5.785  1.00  0.00     0.252 C 
HETATM    3  O   UNL     1      40.643 -13.219   6.196  1.00  0.00    -0.268 OA
HETATM    4  H   UNL     1      43.654 -12.725   5.285  1.00  0.00     0.163 HD
ENDROOT
BRANCH   1   5
HETATM    5  C   UNL     1      42.547 -11.119   6.112  1.00  0.00     0.120 C 
BRANCH   5   6
HETATM    6  C   UNL     1      43.624 -10.644   7.081  1.00  0.00    -0.033 A 
HETATM    7  C   UNL     1      44.946 -11.083   6.893  1.00  0.00     0.009 A 
HETATM    8  C   UNL     1      45.954 -10.713   7.783  1.00  0.00     0.003 A 
HETATM    9  C   UNL     1      45.656  -9.888   8.865  1.00  0.00     0.037 A 
HETATM   10  C   UNL     1      44.357  -9.420   9.058  1.00  0.00     0.068 A 
HETATM   11  C   UNL     1      43.341  -9.815   8.182  1.00  0.00     0.046 A 
BRANCH  10  12
HETATM   12  O   UNL     1      44.193  -8.608  10.148  1.00  0.00    -0.356 OA
HETATM   13  C   UNL     1      43.780  -9.252  11.348  1.00  0.00     0.210 C 
ENDBRANCH  10  12
ENDBRANCH   5   6
BRANCH   5  14
HETATM   14  C   UNL     1      42.488 -10.186   4.893  1.00  0.00     0.056 C 
BRANCH  14  15
HETATM   15  C   UNL     1      42.665 -10.943   3.581  1.00  0.00     0.166 C 
BRANCH  15  16
HETATM   16  O   UNL     1      44.043 -11.244   3.386  1.00  0.00    -0.401 OA
HETATM   17  H   UNL     1      44.374 -10.665   2.678  1.00  0.00     0.209 HD
ENDBRANCH  15  16
ENDBRANCH  14  15
ENDBRANCH   5  14
ENDBRANCH   1   5
BRANCH   2  18
HETATM   18  C   UNL     1      42.120 -14.822   5.297  1.00  0.00     0.032 A 
HETATM   19  C   UNL     1      42.193 -15.935   6.142  1.00  0.00     0.018 A 
HETATM   20  C   UNL     1      42.573 -17.183   5.632  1.00  0.00     0.013 A 
HETATM   21  C   UNL     1      42.878 -17.355   4.271  1.00  0.00    -0.026 A 
HETATM   22  C   UNL     1      42.765 -16.236   3.430  1.00  0.00     0.013 A 
HETATM   23  C   UNL     1      42.389 -14.986   3.934  1.00  0.00     0.018 A 
BRANCH  21  24
HETATM   24  C   UNL     1      43.314 -18.663   3.747  1.00  0.00    -0.023 A 
HETATM   25  C   UNL     1      43.206 -18.978   2.387  1.00  0.00     0.031 A 
HETATM   26  C   UNL     1      43.618 -20.227   1.948  1.00  0.00     0.117 A 
HETATM   27  N   UNL     1      44.126 -21.178   2.757  1.00  0.00    -0.273 NA
HETATM   28  C   UNL     1      44.228 -20.864   4.064  1.00  0.00     0.117 A 
HETATM   29  C   UNL     1      43.843 -19.642   4.597  1.00  0.00     0.031 A 
ENDBRANCH  21  24
ENDBRANCH   2  18
TORSDOF 8
ENDMDL
MODEL 5
REMARK VINA RESULT:      -7.6      5.286      8.428
REMARK  8 active torsions:
REMARK  status: ('A' for Active; 'I' for Inactive)
REMARK    1  A    between atoms: O_2  and  C_3 
REMARK    2  A    between atoms: C_7  and  C_9 
REMARK    3  A    between atoms: C_9  and  C_10 
REMARK    4  A    between atoms: C_9  and  N_13 
REMARK    5  A    between atoms: C_10  and  C_11 
REMARK    6  A    between atoms: C_11  and  O_12 
REMARK       I    between atoms: N_13  and  C_14 
REMARK    7  A    between atoms: C_14  and  C_16 
REMARK    8  A    between atoms: C_19  and  C_22 
ROOT
HETATM    1  N   UNL     1      42.790 -13.106   4.114  1.00  0.00    -0.348 N 
HETATM    2  C   UNL     1      43.648 -12.043   4.294  1.00  0.00     0.252 C 
HETATM    3  O   UNL     1      44.341 -11.580   3.396  1.00  0.00    -0.268 OA
HETATM    4  H   UNL     1      42.195 -13.415   4.867  1.00  0.00     0.163 HD
ENDROOT
BRANCH   1   5
HETATM    5  C   UNL     1      42.672 -13.805   2.840  1.00  0.00     0.120 C 
BRANCH   5   6
HETATM    6  C   UNL     1      42.985 -15.291   2.966  1.00  0.00    -0.033 A 
HETATM    7  C   UNL     1      42.906 -16.100   1.819  1.00  0.00     0.009 A 
HETATM    8  C   UNL     1      43.138 -17.473   1.896  1.00  0.00     0.003 A 
HETATM    9  C   UNL     1      43.466 -18.054   3.119  1.00  0.00     0.037 A 
HETATM   10  C   UNL     1      43.574 -17.268   4.267  1.00  0.00     0.068 A 
HETATM   11  C   UNL     1      43.313 -15.896   4.193  1.00  0.00     0.046 A 
BRANCH  10  12
HETATM   12  O   UNL     1      43.912 -17.951   5.403  1.00  0.00    -0.356 OA
HETATM   13  C   UNL     1      43.199 -17.594   6.581  1.00  0.00     0.210 C 
ENDBRANCH  10  12
ENDBRANCH   5   6
BRANCH   5  14
HETATM   14  C   UNL     1      41.265 -13.611   2.253  1.00  0.00     0.056 C 
BRANCH  14  15
HETATM   15  C   UNL     1      40.172 -13.891   3.279  1.00  0.00     0.166 C 
BRANCH  15  16
HETATM   16  O   UNL     1      39.082 -14.553   2.646  1.00  0.00    -0.401 OA
HETATM   17  H   UNL     1      38.279 -14.355   3.158  1.00  0.00     0.209 HD
ENDBRANCH  15  16
ENDBRANCH  14  15
ENDBRANCH   5  14
ENDBRANCH   1   5
BRANCH   2  18
HETATM   18  C   UNL     1      43.656 -11.412   5.646  1.00  0.00     0.032 A 
HETATM   19  C   UNL     1      44.669 -11.638   6.583  1.00  0.00     0.018 A 
HETATM   20  C   UNL     1      44.595 -11.056   7.856  1.00  0.00     0.013 A 
HETATM   21  C   UNL     1      43.518 -10.228   8.219  1.00  0.00    -0.026 A 
HETATM   22  C   UNL     1      42.528  -9.983   7.254  1.00  0.00     0.013 A 
HETATM   23  C   UNL     1      42.596 -10.565   5.983  1.00  0.00     0.018 A 
BRANCH  21  24
HETATM   24  C   UNL     1      43.426  -9.649   9.572  1.00  0.00    -0.023 A 
HETATM   25  C   UNL     1      43.456 -10.455  10.716  1.00  0.00     0.031 A 
HETATM   26  C   UNL     1      43.353  -9.861  11.964  1.00  0.00     0.117 A 
HETATM   27  N   UNL     1      43.223  -8.533  12.156  1.00  0.00    -0.273 NA
HETATM   28  C   UNL     1      43.199  -7.765  11.048  1.00  0.00     0.117 A 
HETATM   29  C   UNL     1      43.296  -8.267   9.759  1.00  0.00     0.031 A 
ENDBRANCH  21  24
ENDBRANCH   2  18
TORSDOF 8
ENDMDL
MODEL 6
REMARK VINA RESULT:      -7.6      2.844      8.584
REMARK  8 active torsions:
REMARK  status: ('A' for Active; 'I' for Inactive)
REMARK    1  A    between atoms: O_2  and  C_3 
REMARK    2  A    between atoms: C_7  and  C_9 
REMARK    3  A    between atoms: C_9  and  C_10 
REMARK    4  A    between atoms: C_9  and  N_13 
REMARK    5  A    between atoms: C_10  and  C_11 
REMARK    6  A    between atoms: C_11  and  O_12 
REMARK       I    between atoms: N_13  and  C_14 
REMARK    7  A    between atoms: C_14  and  C_16 
REMARK    8  A    between atoms: C_19  and  C_22 
ROOT
HETATM    1  N   UNL     1      42.369 -15.611   4.396  1.00  0.00    -0.348 N 
HETATM    2  C   UNL     1      41.077 -15.754   3.938  1.00  0.00     0.252 C 
HETATM    3  O   UNL     1      40.220 -16.397   4.532  1.00  0.00    -0.268 OA
HETATM    4  H   UNL     1      43.023 -15.023   3.903  1.00  0.00     0.163 HD
ENDROOT
BRANCH   1   5
HETATM    5  C   UNL     1      42.839 -16.260   5.613  1.00  0.00     0.120 C 
BRANCH   5   6
HETATM    6  C   UNL     1      43.258 -17.705   5.372  1.00  0.00    -0.033 A 
HETATM    7  C   UNL     1      43.314 -18.587   6.465  1.00  0.00     0.009 A 
HETATM    8  C   UNL     1      43.738 -19.905   6.299  1.00  0.00     0.003 A 
HETATM    9  C   UNL     1      44.098 -20.364   5.034  1.00  0.00     0.037 A 
HETATM   10  C   UNL     1      44.027 -19.515   3.929  1.00  0.00     0.068 A 
HETATM   11  C   UNL     1      43.630 -18.186   4.103  1.00  0.00     0.046 A 
BRANCH  10  12
HETATM   12  O   UNL     1      44.396 -20.085   2.741  1.00  0.00    -0.356 OA
HETATM   13  C   UNL     1      43.349 -20.300   1.801  1.00  0.00     0.210 C 
ENDBRANCH  10  12
ENDBRANCH   5   6
BRANCH   5  14
HETATM   14  C   UNL     1      44.006 -15.469   6.223  1.00  0.00     0.056 C 
BRANCH  14  15
HETATM   15  C   UNL     1      43.554 -14.127   6.792  1.00  0.00     0.166 C 
BRANCH  15  16
HETATM   16  O   UNL     1      42.137 -14.116   6.920  1.00  0.00    -0.401 OA
HETATM   17  H   UNL     1      41.759 -14.287   6.039  1.00  0.00     0.209 HD
ENDBRANCH  15  16
ENDBRANCH  14  15
ENDBRANCH   5  14
ENDBRANCH   1   5
BRANCH   2  18
HETATM   18  C   UNL     1      40.727 -15.022   2.686  1.00  0.00     0.032 A 
HETATM   19  C   UNL     1      40.247 -15.663   1.539  1.00  0.00     0.018 A 
HETATM   20  C   UNL     1      39.984 -14.926   0.377  1.00  0.00     0.013 A 
HETATM   21  C   UNL     1      40.181 -13.535   0.333  1.00  0.00    -0.026 A 
HETATM   22  C   UNL     1      40.628 -12.901   1.504  1.00  0.00     0.013 A 
HETATM   23  C   UNL     1      40.896 -13.633   2.666  1.00  0.00     0.018 A 
BRANCH  21  24
HETATM   24  C   UNL     1      39.937 -12.769  -0.903  1.00  0.00    -0.023 A 
HETATM   25  C   UNL     1      40.950 -12.012  -1.505  1.00  0.00     0.031 A 
HETATM   26  C   UNL     1      40.665 -11.300  -2.660  1.00  0.00     0.117 A 
HETATM   27  N   UNL     1      39.456 -11.286  -3.255  1.00  0.00    -0.273 NA
HETATM   28  C   UNL     1      38.489 -12.021  -2.670  1.00  0.00     0.117 A 
HETATM   29  C   UNL     1      38.678 -12.766  -1.515  1.00  0.00     0.031 A 
ENDBRANCH  21  24
ENDBRANCH   2  18
TORSDOF 8
ENDMDL
MODEL 7
REMARK VINA RESULT:      -7.2      2.611      8.728
REMARK  8 active torsions:
REMARK  status: ('A' for Active; 'I' for Inactive)
REMARK    1  A    between atoms: O_2  and  C_3 
REMARK    2  A    between atoms: C_7  and  C_9 
REMARK    3  A    between atoms: C_9  and  C_10 
REMARK    4  A    between atoms: C_9  and  N_13 
REMARK    5  A    between atoms: C_10  and  C_11 
REMARK    6  A    between atoms: C_11  and  O_12 
REMARK       I    between atoms: N_13  and  C_14 
REMARK    7  A    between atoms: C_14  and  C_16 
REMARK    8  A    between atoms: C_19  and  C_22 
ROOT
HETATM    1  N   UNL     1      41.604 -14.079   3.160  1.00  0.00    -0.348 N 
HETATM    2  C   UNL     1      40.545 -13.376   2.629  1.00  0.00     0.252 C 
HETATM    3  O   UNL     1      39.394 -13.485   3.035  1.00  0.00    -0.268 OA
HETATM    4  H   UNL     1      42.544 -13.913   2.833  1.00  0.00     0.163 HD
ENDROOT
BRANCH   1   5
HETATM    5  C   UNL     1      41.433 -15.056   4.228  1.00  0.00     0.120 C 
BRANCH   5   6
HETATM    6  C   UNL     1      42.358 -16.256   4.067  1.00  0.00    -0.033 A 
HETATM    7  C   UNL     1      43.331 -16.500   5.052  1.00  0.00     0.009 A 
HETATM    8  C   UNL     1      44.230 -17.558   4.921  1.00  0.00     0.003 A 
HETATM    9  C   UNL     1      44.159 -18.396   3.810  1.00  0.00     0.037 A 
HETATM   10  C   UNL     1      43.187 -18.189   2.832  1.00  0.00     0.068 A 
HETATM   11  C   UNL     1      42.305 -17.111   2.950  1.00  0.00     0.046 A 
BRANCH  10  12
HETATM   12  O   UNL     1      43.212 -19.084   1.797  1.00  0.00    -0.356 OA
HETATM   13  C   UNL     1      43.632 -20.404   2.123  1.00  0.00     0.210 C 
ENDBRANCH  10  12
ENDBRANCH   5   6
BRANCH   5  14
HETATM   14  C   UNL     1      41.659 -14.397   5.597  1.00  0.00     0.056 C 
BRANCH  14  15
HETATM   15  C   UNL     1      40.437 -14.516   6.501  1.00  0.00     0.166 C 
BRANCH  15  16
HETATM   16  O   UNL     1      39.394 -13.684   6.005  1.00  0.00    -0.401 OA
HETATM   17  H   UNL     1      38.617 -14.248   5.846  1.00  0.00     0.209 HD
ENDBRANCH  15  16
ENDBRANCH  14  15
ENDBRANCH   5  14
ENDBRANCH   1   5
BRANCH   2  18
HETATM   18  C   UNL     1      40.867 -12.397   1.550  1.00  0.00     0.032 A 
HETATM   19  C   UNL     1      41.351 -11.111   1.811  1.00  0.00     0.018 A 
HETATM   20  C   UNL     1      41.588 -10.219   0.757  1.00  0.00     0.013 A 
HETATM   21  C   UNL     1      41.360 -10.590  -0.580  1.00  0.00    -0.026 A 
HETATM   22  C   UNL     1      40.909 -11.897  -0.827  1.00  0.00     0.013 A 
HETATM   23  C   UNL     1      40.667 -12.791   0.222  1.00  0.00     0.018 A 
BRANCH  21  24
HETATM   24  C   UNL     1      41.576  -9.636  -1.683  1.00  0.00    -0.023 A 
HETATM   25  C   UNL     1      40.930  -9.787  -2.917  1.00  0.00     0.031 A 
HETATM   26  C   UNL     1      41.178  -8.868  -3.925  1.00  0.00     0.117 A 
HETATM   27  N   UNL     1      42.015  -7.819  -3.798  1.00  0.00    -0.273 NA
HETATM   28  C   UNL     1      42.629  -7.681  -2.605  1.00  0.00     0.117 A 
HETATM   29  C   UNL     1      42.445  -8.547  -1.538  1.00  0.00     0.031 A 
ENDBRANCH  21  24
ENDBRANCH   2  18
TORSDOF 8
ENDMDL
MODEL 8
REMARK VINA RESULT:      -7.2     14.781     16.633
REMARK  8 active torsions:
REMARK  status: ('A' for Active; 'I' for Inactive)
REMARK    1  A    between atoms: O_2  and  C_3 
REMARK    2  A    between atoms: C_7  and  C_9 
REMARK    3  A    between atoms: C_9  and  C_10 
REMARK    4  A    between atoms: C_9  and  N_13 
REMARK    5  A    between atoms: C_10  and  C_11 
REMARK    6  A    between atoms: C_11  and  O_12 
REMARK       I    between atoms: N_13  and  C_14 
REMARK    7  A    between atoms: C_14  and  C_16 
REMARK    8  A    between atoms: C_19  and  C_22 
ROOT
HETATM    1  N   UNL     1      45.582 -29.819   1.156  1.00  0.00    -0.348 N 
HETATM    2  C   UNL     1      46.544 -29.036   1.757  1.00  0.00     0.252 C 
HETATM    3  O   UNL     1      46.486 -27.813   1.798  1.00  0.00    -0.268 OA
HETATM    4  H   UNL     1      45.642 -30.825   1.198  1.00  0.00     0.163 HD
ENDROOT
BRANCH   1   5
HETATM    5  C   UNL     1      44.430 -29.247   0.470  1.00  0.00     0.120 C 
BRANCH   5   6
HETATM    6  C   UNL     1      44.635 -29.171  -1.038  1.00  0.00    -0.033 A 
HETATM    7  C   UNL     1      45.166 -27.992  -1.592  1.00  0.00     0.009 A 
HETATM    8  C   UNL     1      45.326 -27.861  -2.971  1.00  0.00     0.003 A 
HETATM    9  C   UNL     1      44.970 -28.911  -3.814  1.00  0.00     0.037 A 
HETATM   10  C   UNL     1      44.464 -30.099  -3.287  1.00  0.00     0.068 A 
HETATM   11  C   UNL     1      44.277 -30.218  -1.906  1.00  0.00     0.046 A 
BRANCH  10  12
HETATM   12  O   UNL     1      44.162 -31.059  -4.214  1.00  0.00    -0.356 OA
HETATM   13  C   UNL     1      44.027 -30.608  -5.557  1.00  0.00     0.210 C 
ENDBRANCH  10  12
ENDBRANCH   5   6
BRANCH   5  14
HETATM   14  C   UNL     1      43.163 -30.055   0.789  1.00  0.00     0.056 C 
BRANCH  14  15
HETATM   15  C   UNL     1      42.419 -29.501   2.000  1.00  0.00     0.166 C 
BRANCH  15  16
HETATM   16  O   UNL     1      43.279 -29.512   3.135  1.00  0.00    -0.401 OA
HETATM   17  H   UNL     1      42.859 -30.062   3.818  1.00  0.00     0.209 HD
ENDBRANCH  15  16
ENDBRANCH  14  15
ENDBRANCH   5  14
ENDBRANCH   1   5
BRANCH   2  18
HETATM   18  C   UNL     1      47.661 -29.755   2.435  1.00  0.00     0.032 A 
HETATM   19  C   UNL     1      47.944 -31.106   2.208  1.00  0.00     0.018 A 
HETATM   20  C   UNL     1      48.976 -31.739   2.914  1.00  0.00     0.013 A 
HETATM   21  C   UNL     1      49.757 -31.039   3.851  1.00  0.00    -0.026 A 
HETATM   22  C   UNL     1      49.483 -29.675   4.040  1.00  0.00     0.013 A 
HETATM   23  C   UNL     1      48.451 -29.039   3.341  1.00  0.00     0.018 A 
BRANCH  21  24
HETATM   24  C   UNL     1      50.817 -31.719   4.618  1.00  0.00    -0.023 A 
HETATM   25  C   UNL     1      51.073 -33.086   4.457  1.00  0.00     0.031 A 
HETATM   26  C   UNL     1      52.073 -33.679   5.212  1.00  0.00     0.117 A 
HETATM   27  N   UNL     1      52.831 -33.017   6.108  1.00  0.00    -0.273 NA
HETATM   28  C   UNL     1      52.579 -31.701   6.254  1.00  0.00     0.117 A 
HETATM   29  C   UNL     1      51.601 -31.020   5.544  1.00  0.00     0.031 A 
ENDBRANCH  21  24
ENDBRANCH   2  18
TORSDOF 8
ENDMDL
MODEL 9
REMARK VINA RESULT:      -7.1     14.688     17.771
REMARK  8 active torsions:
REMARK  status: ('A' for Active; 'I' for Inactive)
REMARK    1  A    between atoms: O_2  and  C_3 
REMARK    2  A    between atoms: C_7  and  C_9 
REMARK    3  A    between atoms: C_9  and  C_10 
REMARK    4  A    between atoms: C_9  and  N_13 
REMARK    5  A    between atoms: C_10  and  C_11 
REMARK    6  A    between atoms: C_11  and  O_12 
REMARK       I    between atoms: N_13  and  C_14 
REMARK    7  A    between atoms: C_14  and  C_16 
REMARK    8  A    between atoms: C_19  and  C_22 
ROOT
HETATM    1  N   UNL     1      41.885  -7.546  17.487  1.00  0.00    -0.348 N 
HETATM    2  C   UNL     1      41.136  -7.462  16.333  1.00  0.00     0.252 C 
HETATM    3  O   UNL     1      39.968  -7.092  16.315  1.00  0.00    -0.268 OA
HETATM    4  H   UNL     1      42.861  -7.799  17.445  1.00  0.00     0.163 HD
ENDROOT
BRANCH   1   5
HETATM    5  C   UNL     1      41.329  -7.244  18.800  1.00  0.00     0.120 C 
BRANCH   5   6
HETATM    6  C   UNL     1      41.477  -8.409  19.771  1.00  0.00    -0.033 A 
HETATM    7  C   UNL     1      40.332  -9.139  20.136  1.00  0.00     0.009 A 
HETATM    8  C   UNL     1      40.413 -10.182  21.057  1.00  0.00     0.003 A 
HETATM    9  C   UNL     1      41.643 -10.519  21.617  1.00  0.00     0.037 A 
HETATM   10  C   UNL     1      42.798  -9.827  21.253  1.00  0.00     0.068 A 
HETATM   11  C   UNL     1      42.710  -8.762  20.350  1.00  0.00     0.046 A 
BRANCH  10  12
HETATM   12  O   UNL     1      43.945 -10.258  21.862  1.00  0.00    -0.356 OA
HETATM   13  C   UNL     1      43.870 -10.447  23.270  1.00  0.00     0.210 C 
ENDBRANCH  10  12
ENDBRANCH   5   6
BRANCH   5  14
HETATM   14  C   UNL     1      41.989  -5.985  19.383  1.00  0.00     0.056 C 
BRANCH  14  15
HETATM   15  C   UNL     1      41.478  -4.710  18.720  1.00  0.00     0.166 C 
BRANCH  15  16
HETATM   16  O   UNL     1      42.209  -4.469  17.523  1.00  0.00    -0.401 OA
HETATM   17  H   UNL     1      42.827  -3.738  17.696  1.00  0.00     0.209 HD
ENDBRANCH  15  16
ENDBRANCH  14  15
ENDBRANCH   5  14
ENDBRANCH   1   5
BRANCH   2  18
HETATM   18  C   UNL     1      41.837  -7.785  15.056  1.00  0.00     0.032 A 
HETATM   19  C   UNL     1      42.898  -7.022  14.558  1.00  0.00     0.018 A 
HETATM   20  C   UNL     1      43.484  -7.347  13.327  1.00  0.00     0.013 A 
HETATM   21  C   UNL     1      43.036  -8.444  12.572  1.00  0.00    -0.026 A 
HETATM   22  C   UNL     1      41.994  -9.222  13.103  1.00  0.00     0.013 A 
HETATM   23  C   UNL     1      41.403  -8.899  14.330  1.00  0.00     0.018 A 
BRANCH  21  24
HETATM   24  C   UNL     1      43.630  -8.760  11.260  1.00  0.00    -0.023 A 
HETATM   25  C   UNL     1      44.443  -9.886  11.078  1.00  0.00     0.031 A 
HETATM   26  C   UNL     1      44.988 -10.130   9.827  1.00  0.00     0.117 A 
HETATM   27  N   UNL     1      44.787  -9.341   8.752  1.00  0.00    -0.273 NA
HETATM   28  C   UNL     1      44.001  -8.261   8.937  1.00  0.00     0.117 A 
HETATM   29  C   UNL     1      43.412  -7.935  10.149  1.00  0.00     0.031 A 
ENDBRANCH  21  24
ENDBRANCH   2  18
TORSDOF 8
ENDMDL
MODEL 10
REMARK VINA RESULT:      -7.1      5.008      8.560
REMARK  8 active torsions:
REMARK  status: ('A' for Active; 'I' for Inactive)
REMARK    1  A    between atoms: O_2  and  C_3 
REMARK    2  A    between atoms: C_7  and  C_9 
REMARK    3  A    between atoms: C_9  and  C_10 
REMARK    4  A    between atoms: C_9  and  N_13 
REMARK    5  A    between atoms: C_10  and  C_11 
REMARK    6  A    between atoms: C_11  and  O_12 
REMARK       I    between atoms: N_13  and  C_14 
REMARK    7  A    between atoms: C_14  and  C_16 
REMARK    8  A    between atoms: C_19  and  C_22 
ROOT
HETATM    1  N   UNL     1      42.213 -14.097   4.183  1.00  0.00    -0.348 N 
HETATM    2  C   UNL     1      42.914 -12.918   4.053  1.00  0.00     0.252 C 
HETATM    3  O   UNL     1      43.489 -12.587   3.023  1.00  0.00    -0.268 OA
HETATM    4  H   UNL     1      41.707 -14.300   5.031  1.00  0.00     0.163 HD
ENDROOT
BRANCH   1   5
HETATM    5  C   UNL     1      42.138 -15.080   3.109  1.00  0.00     0.120 C 
BRANCH   5   6
HETATM    6  C   UNL     1      42.863 -16.374   3.460  1.00  0.00    -0.033 A 
HETATM    7  C   UNL     1      43.573 -16.447   4.671  1.00  0.00     0.009 A 
HETATM    8  C   UNL     1      44.290 -17.594   5.011  1.00  0.00     0.003 A 
HETATM    9  C   UNL     1      44.296 -18.689   4.150  1.00  0.00     0.037 A 
HETATM   10  C   UNL     1      43.580 -18.650   2.954  1.00  0.00     0.068 A 
HETATM   11  C   UNL     1      42.885 -17.489   2.601  1.00  0.00     0.046 A 
BRANCH  10  12
HETATM   12  O   UNL     1      43.654 -19.789   2.199  1.00  0.00    -0.356 OA
HETATM   13  C   UNL     1      43.949 -20.987   2.908  1.00  0.00     0.210 C 
ENDBRANCH  10  12
ENDBRANCH   5   6
BRANCH   5  14
HETATM   14  C   UNL     1      40.672 -15.376   2.758  1.00  0.00     0.056 C 
BRANCH  14  15
HETATM   15  C   UNL     1      40.050 -14.270   1.913  1.00  0.00     0.166 C 
BRANCH  15  16
HETATM   16  O   UNL     1      41.078 -13.533   1.259  1.00  0.00    -0.401 OA
HETATM   17  H   UNL     1      41.647 -14.169   0.794  1.00  0.00     0.209 HD
ENDBRANCH  15  16
ENDBRANCH  14  15
ENDBRANCH   5  14
ENDBRANCH   1   5
BRANCH   2  18
HETATM   18  C   UNL     1      42.895 -11.997   5.226  1.00  0.00     0.032 A 
HETATM   19  C   UNL     1      41.735 -11.347   5.663  1.00  0.00     0.018 A 
HETATM   20  C   UNL     1      41.791 -10.454   6.741  1.00  0.00     0.013 A 
HETATM   21  C   UNL     1      42.997 -10.197   7.416  1.00  0.00    -0.026 A 
HETATM   22  C   UNL     1      44.144 -10.885   6.989  1.00  0.00     0.013 A 
HETATM   23  C   UNL     1      44.095 -11.775   5.910  1.00  0.00     0.018 A 
BRANCH  21  24
HETATM   24  C   UNL     1      43.057  -9.229   8.526  1.00  0.00    -0.023 A 
HETATM   25  C   UNL     1      43.153  -7.852   8.291  1.00  0.00     0.031 A 
HETATM   26  C   UNL     1      43.219  -6.985   9.371  1.00  0.00     0.117 A 
HETATM   27  N   UNL     1      43.199  -7.384  10.658  1.00  0.00    -0.273 NA
HETATM   28  C   UNL     1      43.104  -8.712  10.874  1.00  0.00     0.117 A 
HETATM   29  C   UNL     1      43.032  -9.655   9.860  1.00  0.00     0.031 A 
ENDBRANCH  21  24
ENDBRANCH   2  18
TORSDOF 8
ENDMDL
