MODEL 1
REMARK VINA RESULT:      -9.5      0.000      0.000
REMARK  8 active torsions:
REMARK  status: ('A' for Active; 'I' for Inactive)
REMARK    1  A    between atoms: C_2  and  C_3 
REMARK    2  A    between atoms: C_3  and  C_4 
REMARK       I    between atoms: C_4  and  N_5 
REMARK    3  A    between atoms: N_8  and  C_9 
REMARK    4  A    between atoms: C_12  and  N_13 
REMARK    5  A    between atoms: N_13  and  C_14 
REMARK    6  A    between atoms: C_14  and  N_15 
REMARK       I    between atoms: N_15  and  C_16 
REMARK    7  A    between atoms: C_16  and  C_17 
REMARK    8  A    between atoms: C_19  and  C_20 
ROOT
HETATM    1  N   UNL     1      42.947 -10.100   8.286  1.00  0.00    -0.333 N 
HETATM    2  H   UNL     1      42.131 -10.122   7.675  1.00  0.00     0.168 HD
ENDROOT
BRANCH   1   3
HETATM    3  C   UNL     1      42.805  -9.392   9.496  1.00  0.00     0.034 A 
HETATM    4  C   UNL     1      43.007  -9.992  10.734  1.00  0.00     0.031 A 
HETATM    5  C   UNL     1      42.770  -9.282  11.912  1.00  0.00     0.026 A 
HETATM    6  C   UNL     1      42.300  -7.960  11.898  1.00  0.00     0.010 A 
HETATM    7  C   UNL     1      42.222  -7.334  10.646  1.00  0.00     0.026 A 
HETATM    8  C   UNL     1      42.486  -8.036   9.456  1.00  0.00     0.031 A 
BRANCH   6   9
HETATM    9  N   UNL     1      41.942  -7.349  13.116  1.00  0.00    -0.280 NA
HETATM   10  C   UNL     1      42.396  -8.141  14.290  1.00  0.00     0.115 C 
HETATM   11  C   UNL     1      42.233  -7.344  15.593  1.00  0.00     0.140 C 
HETATM   12  N   UNL     1      40.874  -6.819  15.759  1.00  0.00    -0.350 N 
HETATM   13  C   UNL     1      40.228  -6.640  16.970  1.00  0.00     0.219 C 
HETATM   14  C   UNL     1      40.376  -6.087  14.586  1.00  0.00     0.140 C 
HETATM   15  O   UNL     1      39.186  -5.986  17.061  1.00  0.00    -0.273 OA
HETATM   16  C   UNL     1      40.547  -6.876  13.273  1.00  0.00     0.115 C 
BRANCH  13  17
HETATM   17  C   UNL     1      40.778  -7.324  18.212  1.00  0.00     0.103 C 
BRANCH  17  18
HETATM   18  C   UNL     1      39.745  -8.229  18.882  1.00  0.00     0.005 C 
HETATM   19  C   UNL     1      39.635  -8.043  20.386  1.00  0.00     0.005 C 
ENDBRANCH  17  18
ENDBRANCH  13  17
ENDBRANCH   6   9
ENDBRANCH   1   3
BRANCH   1  20
HETATM   20  C   UNL     1      43.942 -10.987   7.948  1.00  0.00     0.179 C 
HETATM   21  S   UNL     1      45.601 -10.738   7.904  1.00  0.00    -0.040 SA
BRANCH  20  22
HETATM   22  N   UNL     1      43.532 -12.256   7.622  1.00  0.00    -0.298 N 
HETATM   23  C   UNL     1      43.499 -12.928   6.407  1.00  0.00     0.281 C 
HETATM   24  O   UNL     1      43.565 -12.365   5.317  1.00  0.00    -0.265 OA
HETATM   25  H   UNL     1      43.364 -12.841   8.433  1.00  0.00     0.171 HD
BRANCH  23  26
HETATM   26  C   UNL     1      43.328 -14.353   6.596  1.00  0.00     0.144 A 
HETATM   27  O   UNL     1      43.490 -15.158   5.500  1.00  0.00    -0.304 OA
HETATM   28  C   UNL     1      43.271 -16.449   5.878  1.00  0.00     0.086 A 
HETATM   29  C   UNL     1      42.975 -16.478   7.227  1.00  0.00     0.041 A 
HETATM   30  C   UNL     1      43.010 -15.133   7.688  1.00  0.00     0.046 A 
BRANCH  28  31
HETATM   31  C   UNL     1      43.400 -17.443   4.814  1.00  0.00    -0.002 A 
HETATM   32  C   UNL     1      42.944 -17.173   3.516  1.00  0.00     0.016 A 
HETATM   33  C   UNL     1      43.060 -18.132   2.501  1.00  0.00     0.024 A 
HETATM   34  C   UNL     1      43.637 -19.369   2.775  1.00  0.00     0.034 A 
HETATM   35 CL   UNL     1      43.776 -20.546   1.529  1.00  0.00    -0.084 Cl
HETATM   36  C   UNL     1      44.100 -19.657   4.054  1.00  0.00     0.024 A 
HETATM   37  C   UNL     1      43.982 -18.699   5.065  1.00  0.00     0.016 A 
ENDBRANCH  28  31
ENDBRANCH  23  26
ENDBRANCH  20  22
ENDBRANCH   1  20
TORSDOF 8
ENDMDL
MODEL 2
REMARK VINA RESULT:      -9.4      1.500      2.009
REMARK  8 active torsions:
REMARK  status: ('A' for Active; 'I' for Inactive)
REMARK    1  A    between atoms: C_2  and  C_3 
REMARK    2  A    between atoms: C_3  and  C_4 
REMARK       I    between atoms: C_4  and  N_5 
REMARK    3  A    between atoms: N_8  and  C_9 
REMARK    4  A    between atoms: C_12  and  N_13 
REMARK    5  A    between atoms: N_13  and  C_14 
REMARK    6  A    between atoms: C_14  and  N_15 
REMARK       I    between atoms: N_15  and  C_16 
REMARK    7  A    between atoms: C_16  and  C_17 
REMARK    8  A    between atoms: C_19  and  C_20 
ROOT
HETATM    1  N   UNL     1      43.575 -11.443   8.496  1.00  0.00    -0.333 N 
HETATM    2  H   UNL     1      43.116 -12.313   8.767  1.00  0.00     0.168 HD
ENDROOT
BRANCH   1   3
HETATM    3  C   UNL     1      43.499 -10.381   9.419  1.00  0.00     0.034 A 
HETATM    4  C   UNL     1      44.065 -10.458  10.687  1.00  0.00     0.031 A 
HETATM    5  C   UNL     1      43.893  -9.420  11.603  1.00  0.00     0.026 A 
HETATM    6  C   UNL     1      43.130  -8.283  11.299  1.00  0.00     0.010 A 
HETATM    7  C   UNL     1      42.674  -8.167   9.978  1.00  0.00     0.026 A 
HETATM    8  C   UNL     1      42.868  -9.198   9.041  1.00  0.00     0.031 A 
BRANCH   6   9
HETATM    9  N   UNL     1      42.873  -7.340  12.313  1.00  0.00    -0.280 NA
HETATM   10  C   UNL     1      42.792  -7.976  13.655  1.00  0.00     0.115 C 
HETATM   11  C   UNL     1      42.773  -6.919  14.770  1.00  0.00     0.140 C 
HETATM   12  N   UNL     1      41.732  -5.908  14.562  1.00  0.00    -0.350 N 
HETATM   13  C   UNL     1      41.041  -5.253  15.567  1.00  0.00     0.219 C 
HETATM   14  C   UNL     1      41.747  -5.310  13.220  1.00  0.00     0.140 C 
HETATM   15  O   UNL     1      40.347  -4.258  15.338  1.00  0.00    -0.273 OA
HETATM   16  C   UNL     1      41.779  -6.365  12.097  1.00  0.00     0.115 C 
BRANCH  13  17
HETATM   17  C   UNL     1      41.080  -5.812  16.980  1.00  0.00     0.103 C 
BRANCH  17  18
HETATM   18  C   UNL     1      39.886  -6.718  17.280  1.00  0.00     0.005 C 
HETATM   19  C   UNL     1      40.195  -7.864  18.229  1.00  0.00     0.005 C 
ENDBRANCH  17  18
ENDBRANCH  13  17
ENDBRANCH   6   9
ENDBRANCH   1   3
BRANCH   1  20
HETATM   20  C   UNL     1      44.412 -11.550   7.410  1.00  0.00     0.179 C 
HETATM   21  S   UNL     1      45.910 -10.836   7.165  1.00  0.00    -0.040 SA
BRANCH  20  22
HETATM   22  N   UNL     1      43.979 -12.366   6.394  1.00  0.00    -0.298 N 
HETATM   23  C   UNL     1      42.800 -12.372   5.659  1.00  0.00     0.281 C 
HETATM   24  O   UNL     1      41.775 -11.797   6.014  1.00  0.00    -0.265 OA
HETATM   25  H   UNL     1      44.708 -12.968   6.029  1.00  0.00     0.171 HD
BRANCH  23  26
HETATM   26  C   UNL     1      42.929 -13.179   4.463  1.00  0.00     0.144 A 
HETATM   27  O   UNL     1      43.078 -14.530   4.629  1.00  0.00    -0.304 OA
HETATM   28  C   UNL     1      43.200 -15.104   3.399  1.00  0.00     0.086 A 
HETATM   29  C   UNL     1      43.119 -14.118   2.434  1.00  0.00     0.041 A 
HETATM   30  C   UNL     1      42.947 -12.883   3.117  1.00  0.00     0.046 A 
BRANCH  28  31
HETATM   31  C   UNL     1      43.374 -16.556   3.399  1.00  0.00    -0.002 A 
HETATM   32  C   UNL     1      43.024 -17.324   2.281  1.00  0.00     0.016 A 
HETATM   33  C   UNL     1      43.183 -18.716   2.288  1.00  0.00     0.024 A 
HETATM   34  C   UNL     1      43.699 -19.351   3.415  1.00  0.00     0.034 A 
HETATM   35 CL   UNL     1      43.891 -21.060   3.424  1.00  0.00    -0.084 Cl
HETATM   36  C   UNL     1      44.057 -18.609   4.535  1.00  0.00     0.024 A 
HETATM   37  C   UNL     1      43.896 -17.220   4.524  1.00  0.00     0.016 A 
ENDBRANCH  28  31
ENDBRANCH  23  26
ENDBRANCH  20  22
ENDBRANCH   1  20
TORSDOF 8
ENDMDL
MODEL 3
REMARK VINA RESULT:      -8.9      2.158      2.323
REMARK  8 active torsions:
REMARK  status: ('A' for Active; 'I' for Inactive)
REMARK    1  A    between atoms: C_2  and  C_3 
REMARK    2  A    between atoms: C_3  and  C_4 
REMARK       I    between atoms: C_4  and  N_5 
REMARK    3  A    between atoms: N_8  and  C_9 
REMARK    4  A    between atoms: C_12  and  N_13 
REMARK    5  A    between atoms: N_13  and  C_14 
REMARK    6  A    between atoms: C_14  and  N_15 
REMARK       I    between atoms: N_15  and  C_16 
REMARK    7  A    between atoms: C_16  and  C_17 
REMARK    8  A    between atoms: C_19  and  C_20 
ROOT
HETATM    1  N   UNL     1      39.525 -10.208   7.565  1.00  0.00    -0.333 N 
HETATM    2  H   UNL     1      38.618 -10.675   7.537  1.00  0.00     0.168 HD
ENDROOT
BRANCH   1   3
HETATM    3  C   UNL     1      39.874  -9.590   8.782  1.00  0.00     0.034 A 
HETATM    4  C   UNL     1      40.755  -8.516   8.842  1.00  0.00     0.031 A 
HETATM    5  C   UNL     1      41.144  -7.988  10.074  1.00  0.00     0.026 A 
HETATM    6  C   UNL     1      40.691  -8.526  11.287  1.00  0.00     0.010 A 
HETATM    7  C   UNL     1      39.709  -9.524  11.203  1.00  0.00     0.026 A 
HETATM    8  C   UNL     1      39.292 -10.042   9.965  1.00  0.00     0.031 A 
BRANCH   6   9
HETATM    9  N   UNL     1      41.232  -8.044  12.494  1.00  0.00    -0.280 NA
HETATM   10  C   UNL     1      40.924  -8.941  13.639  1.00  0.00     0.115 C 
HETATM   11  C   UNL     1      41.731  -8.547  14.886  1.00  0.00     0.140 C 
HETATM   12  N   UNL     1      41.576  -7.129  15.224  1.00  0.00    -0.350 N 
HETATM   13  C   UNL     1      41.605  -6.605  16.505  1.00  0.00     0.219 C 
HETATM   14  C   UNL     1      41.811  -6.222  14.093  1.00  0.00     0.140 C 
HETATM   15  O   UNL     1      41.699  -5.392  16.710  1.00  0.00    -0.273 OA
HETATM   16  C   UNL     1      41.014  -6.618  12.835  1.00  0.00     0.115 C 
BRANCH  13  17
HETATM   17  C   UNL     1      41.445  -7.541  17.693  1.00  0.00     0.103 C 
BRANCH  17  18
HETATM   18  C   UNL     1      40.282  -7.138  18.599  1.00  0.00     0.005 C 
HETATM   19  C   UNL     1      39.527  -8.310  19.204  1.00  0.00     0.005 C 
ENDBRANCH  17  18
ENDBRANCH  13  17
ENDBRANCH   6   9
ENDBRANCH   1   3
BRANCH   1  20
HETATM   20  C   UNL     1      40.353 -10.500   6.507  1.00  0.00     0.179 C 
HETATM   21  S   UNL     1      40.643  -9.600   5.121  1.00  0.00    -0.040 SA
BRANCH  20  22
HETATM   22  N   UNL     1      41.058 -11.675   6.599  1.00  0.00    -0.298 N 
HETATM   23  C   UNL     1      40.742 -12.969   6.208  1.00  0.00     0.281 C 
HETATM   24  O   UNL     1      39.599 -13.346   5.964  1.00  0.00    -0.265 OA
HETATM   25  H   UNL     1      42.027 -11.538   6.867  1.00  0.00     0.171 HD
BRANCH  23  26
HETATM   26  C   UNL     1      41.919 -13.813   6.178  1.00  0.00     0.144 A 
HETATM   27  O   UNL     1      41.932 -14.842   5.275  1.00  0.00    -0.304 OA
HETATM   28  C   UNL     1      43.105 -15.523   5.415  1.00  0.00     0.086 A 
HETATM   29  C   UNL     1      43.857 -14.922   6.407  1.00  0.00     0.041 A 
HETATM   30  C   UNL     1      43.094 -13.827   6.898  1.00  0.00     0.046 A 
BRANCH  28  31
HETATM   31  C   UNL     1      43.277 -16.666   4.520  1.00  0.00    -0.002 A 
HETATM   32  C   UNL     1      42.684 -16.682   3.250  1.00  0.00     0.016 A 
HETATM   33  C   UNL     1      42.842 -17.784   2.399  1.00  0.00     0.024 A 
HETATM   34  C   UNL     1      43.598 -18.878   2.810  1.00  0.00     0.034 A 
HETATM   35 CL   UNL     1      43.789 -20.231   1.766  1.00  0.00    -0.084 Cl
HETATM   36  C   UNL     1      44.199 -18.882   4.064  1.00  0.00     0.024 A 
HETATM   37  C   UNL     1      44.038 -17.782   4.912  1.00  0.00     0.016 A 
ENDBRANCH  28  31
ENDBRANCH  23  26
ENDBRANCH  20  22
ENDBRANCH   1  20
TORSDOF 8
ENDMDL
MODEL 4
REMARK VINA RESULT:      -8.8      6.325     13.220
REMARK  8 active torsions:
REMARK  status: ('A' for Active; 'I' for Inactive)
REMARK    1  A    between atoms: C_2  and  C_3 
REMARK    2  A    between atoms: C_3  and  C_4 
REMARK       I    between atoms: C_4  and  N_5 
REMARK    3  A    between atoms: N_8  and  C_9 
REMARK    4  A    between atoms: C_12  and  N_13 
REMARK    5  A    between atoms: N_13  and  C_14 
REMARK    6  A    between atoms: C_14  and  N_15 
REMARK       I    between atoms: N_15  and  C_16 
REMARK    7  A    between atoms: C_16  and  C_17 
REMARK    8  A    between atoms: C_19  and  C_20 
ROOT
HETATM    1  N   UNL     1      41.561 -13.978   6.538  1.00  0.00    -0.333 N 
HETATM    2  H   UNL     1      41.002 -13.521   7.258  1.00  0.00     0.168 HD
ENDROOT
BRANCH   1   3
HETATM    3  C   UNL     1      41.077 -13.887   5.217  1.00  0.00     0.034 A 
HETATM    4  C   UNL     1      41.532 -14.723   4.202  1.00  0.00     0.031 A 
HETATM    5  C   UNL     1      41.094 -14.543   2.889  1.00  0.00     0.026 A 
HETATM    6  C   UNL     1      40.211 -13.512   2.537  1.00  0.00     0.010 A 
HETATM    7  C   UNL     1      39.669 -12.762   3.591  1.00  0.00     0.026 A 
HETATM    8  C   UNL     1      40.085 -12.956   4.920  1.00  0.00     0.031 A 
BRANCH   6   9
HETATM    9  N   UNL     1      39.922 -13.294   1.176  1.00  0.00    -0.280 NA
HETATM   10  C   UNL     1      38.799 -12.336   0.993  1.00  0.00     0.115 C 
HETATM   11  C   UNL     1      38.668 -11.910  -0.478  1.00  0.00     0.140 C 
HETATM   12  N   UNL     1      38.582 -13.059  -1.384  1.00  0.00    -0.350 N 
HETATM   13  C   UNL     1      37.870 -13.088  -2.572  1.00  0.00     0.219 C 
HETATM   14  C   UNL     1      39.643 -14.055  -1.181  1.00  0.00     0.140 C 
HETATM   15  O   UNL     1      38.020 -13.993  -3.398  1.00  0.00    -0.273 OA
HETATM   16  C   UNL     1      39.789 -14.477   0.294  1.00  0.00     0.115 C 
BRANCH  13  17
HETATM   17  C   UNL     1      36.824 -12.017  -2.836  1.00  0.00     0.103 C 
BRANCH  17  18
HETATM   18  C   UNL     1      35.649 -12.543  -3.660  1.00  0.00     0.005 C 
HETATM   19  C   UNL     1      34.578 -11.505  -3.952  1.00  0.00     0.005 C 
ENDBRANCH  17  18
ENDBRANCH  13  17
ENDBRANCH   6   9
ENDBRANCH   1   3
BRANCH   1  20
HETATM   20  C   UNL     1      42.817 -14.363   6.944  1.00  0.00     0.179 C 
HETATM   21  S   UNL     1      43.502 -15.894   6.933  1.00  0.00    -0.040 SA
BRANCH  20  22
HETATM   22  N   UNL     1      43.635 -13.360   7.403  1.00  0.00    -0.298 N 
HETATM   23  C   UNL     1      44.117 -12.213   6.787  1.00  0.00     0.281 C 
HETATM   24  O   UNL     1      44.124 -12.046   5.570  1.00  0.00    -0.265 OA
HETATM   25  H   UNL     1      43.789 -13.399   8.405  1.00  0.00     0.171 HD
BRANCH  23  26
HETATM   26  C   UNL     1      44.648 -11.277   7.757  1.00  0.00     0.144 A 
HETATM   27  O   UNL     1      43.908 -11.055   8.888  1.00  0.00    -0.304 OA
HETATM   28  C   UNL     1      44.561 -10.139   9.657  1.00  0.00     0.086 A 
HETATM   29  C   UNL     1      45.734  -9.775   9.023  1.00  0.00     0.041 A 
HETATM   30  C   UNL     1      45.788 -10.504   7.802  1.00  0.00     0.046 A 
BRANCH  28  31
HETATM   31  C   UNL     1      43.895  -9.783  10.909  1.00  0.00    -0.002 A 
HETATM   32  C   UNL     1      43.314 -10.767  11.720  1.00  0.00     0.016 A 
HETATM   33  C   UNL     1      42.668 -10.422  12.914  1.00  0.00     0.024 A 
HETATM   34  C   UNL     1      42.601  -9.089  13.310  1.00  0.00     0.034 A 
HETATM   35 CL   UNL     1      41.805  -8.665  14.774  1.00  0.00    -0.084 Cl
HETATM   36  C   UNL     1      43.175  -8.096  12.523  1.00  0.00     0.024 A 
HETATM   37  C   UNL     1      43.818  -8.444  11.330  1.00  0.00     0.016 A 
ENDBRANCH  28  31
ENDBRANCH  23  26
ENDBRANCH  20  22
ENDBRANCH   1  20
TORSDOF 8
ENDMDL
MODEL 5
REMARK VINA RESULT:      -8.7      1.995      2.715
REMARK  8 active torsions:
REMARK  status: ('A' for Active; 'I' for Inactive)
REMARK    1  A    between atoms: C_2  and  C_3 
REMARK    2  A    between atoms: C_3  and  C_4 
REMARK       I    between atoms: C_4  and  N_5 
REMARK    3  A    between atoms: N_8  and  C_9 
REMARK    4  A    between atoms: C_12  and  N_13 
REMARK    5  A    between atoms: N_13  and  C_14 
REMARK    6  A    between atoms: C_14  and  N_15 
REMARK       I    between atoms: N_15  and  C_16 
REMARK    7  A    between atoms: C_16  and  C_17 
REMARK    8  A    between atoms: C_19  and  C_20 
ROOT
HETATM    1  N   UNL     1      42.938 -10.111   9.314  1.00  0.00    -0.333 N 
HETATM    2  H   UNL     1      43.536 -10.937   9.321  1.00  0.00     0.168 HD
ENDROOT
BRANCH   1   3
HETATM    3  C   UNL     1      42.574  -9.590  10.572  1.00  0.00     0.034 A 
HETATM    4  C   UNL     1      41.268  -9.645  11.047  1.00  0.00     0.031 A 
HETATM    5  C   UNL     1      40.931  -9.040  12.258  1.00  0.00     0.026 A 
HETATM    6  C   UNL     1      41.873  -8.338  13.024  1.00  0.00     0.010 A 
HETATM    7  C   UNL     1      43.206  -8.401  12.592  1.00  0.00     0.026 A 
HETATM    8  C   UNL     1      43.557  -9.032  11.386  1.00  0.00     0.031 A 
BRANCH   6   9
HETATM    9  N   UNL     1      41.439  -7.627  14.160  1.00  0.00    -0.280 NA
HETATM   10  C   UNL     1      41.997  -6.249  14.200  1.00  0.00     0.115 C 
HETATM   11  C   UNL     1      41.317  -5.407  15.291  1.00  0.00     0.140 C 
HETATM   12  N   UNL     1      41.345  -6.065  16.601  1.00  0.00    -0.350 N 
HETATM   13  C   UNL     1      41.421  -5.414  17.820  1.00  0.00     0.219 C 
HETATM   14  C   UNL     1      40.860  -7.452  16.577  1.00  0.00     0.140 C 
HETATM   15  O   UNL     1      41.211  -6.002  18.885  1.00  0.00    -0.273 OA
HETATM   16  C   UNL     1      41.529  -8.299  15.477  1.00  0.00     0.115 C 
BRANCH  13  17
HETATM   17  C   UNL     1      41.842  -3.954  17.857  1.00  0.00     0.103 C 
BRANCH  17  18
HETATM   18  C   UNL     1      40.761  -3.051  18.450  1.00  0.00     0.005 C 
HETATM   19  C   UNL     1      39.407  -3.171  17.770  1.00  0.00     0.005 C 
ENDBRANCH  17  18
ENDBRANCH  13  17
ENDBRANCH   6   9
ENDBRANCH   1   3
BRANCH   1  20
HETATM   20  C   UNL     1      42.821  -9.498   8.088  1.00  0.00     0.179 C 
HETATM   21  S   UNL     1      42.582  -7.873   7.746  1.00  0.00    -0.040 SA
BRANCH  20  22
HETATM   22  N   UNL     1      42.934 -10.317   6.992  1.00  0.00    -0.298 N 
HETATM   23  C   UNL     1      43.414 -11.613   6.858  1.00  0.00     0.281 C 
HETATM   24  O   UNL     1      44.123 -12.165   7.695  1.00  0.00    -0.265 OA
HETATM   25  H   UNL     1      42.449  -9.959   6.176  1.00  0.00     0.171 HD
BRANCH  23  26
HETATM   26  C   UNL     1      43.013 -12.196   5.594  1.00  0.00     0.144 A 
HETATM   27  O   UNL     1      43.290 -13.523   5.398  1.00  0.00    -0.304 OA
HETATM   28  C   UNL     1      42.855 -13.873   4.154  1.00  0.00     0.086 A 
HETATM   29  C   UNL     1      42.286 -12.768   3.549  1.00  0.00     0.041 A 
HETATM   30  C   UNL     1      42.390 -11.692   4.473  1.00  0.00     0.046 A 
BRANCH  28  31
HETATM   31  C   UNL     1      43.083 -15.268   3.782  1.00  0.00    -0.002 A 
HETATM   32  C   UNL     1      42.975 -15.684   2.448  1.00  0.00     0.016 A 
HETATM   33  C   UNL     1      43.184 -17.025   2.096  1.00  0.00     0.024 A 
HETATM   34  C   UNL     1      43.506 -17.960   3.076  1.00  0.00     0.034 A 
HETATM   35 CL   UNL     1      43.759 -19.605   2.643  1.00  0.00    -0.084 Cl
HETATM   36  C   UNL     1      43.622 -17.568   4.405  1.00  0.00     0.024 A 
HETATM   37  C   UNL     1      43.412 -16.231   4.753  1.00  0.00     0.016 A 
ENDBRANCH  28  31
ENDBRANCH  23  26
ENDBRANCH  20  22
ENDBRANCH   1  20
TORSDOF 8
ENDMDL
MODEL 6
REMARK VINA RESULT:      -8.5      6.279     12.855
REMARK  8 active torsions:
REMARK  status: ('A' for Active; 'I' for Inactive)
REMARK    1  A    between atoms: C_2  and  C_3 
REMARK    2  A    between atoms: C_3  and  C_4 
REMARK       I    between atoms: C_4  and  N_5 
REMARK    3  A    between atoms: N_8  and  C_9 
REMARK    4  A    between atoms: C_12  and  N_13 
REMARK    5  A    between atoms: N_13  and  C_14 
REMARK    6  A    between atoms: C_14  and  N_15 
REMARK       I    between atoms: N_15  and  C_16 
REMARK    7  A    between atoms: C_16  and  C_17 
REMARK    8  A    between atoms: C_19  and  C_20 
ROOT
HETATM    1  N   UNL     1      41.607 -13.747   6.768  1.00  0.00    -0.333 N 
HETATM    2  H   UNL     1      41.122 -13.540   7.641  1.00  0.00     0.168 HD
ENDROOT
BRANCH   1   3
HETATM    3  C   UNL     1      40.876 -13.541   5.581  1.00  0.00     0.034 A 
HETATM    4  C   UNL     1      40.974 -14.399   4.492  1.00  0.00     0.031 A 
HETATM    5  C   UNL     1      40.302 -14.113   3.303  1.00  0.00     0.026 A 
HETATM    6  C   UNL     1      39.531 -12.951   3.149  1.00  0.00     0.010 A 
HETATM    7  C   UNL     1      39.344 -12.165   4.295  1.00  0.00     0.026 A 
HETATM    8  C   UNL     1      39.996 -12.463   5.504  1.00  0.00     0.031 A 
BRANCH   6   9
HETATM    9  N   UNL     1      38.998 -12.647   1.881  1.00  0.00    -0.280 NA
HETATM   10  C   UNL     1      39.983 -12.886   0.792  1.00  0.00     0.115 C 
HETATM   11  C   UNL     1      39.315 -12.802  -0.589  1.00  0.00     0.140 C 
HETATM   12  N   UNL     1      38.566 -11.555  -0.770  1.00  0.00    -0.350 N 
HETATM   13  C   UNL     1      38.402 -10.889  -1.973  1.00  0.00     0.219 C 
HETATM   14  C   UNL     1      37.632 -11.260   0.325  1.00  0.00     0.140 C 
HETATM   15  O   UNL     1      37.578  -9.979  -2.105  1.00  0.00    -0.273 OA
HETATM   16  C   UNL     1      38.293 -11.355   1.714  1.00  0.00     0.115 C 
BRANCH  13  17
HETATM   17  C   UNL     1      39.306 -11.238  -3.144  1.00  0.00     0.103 C 
BRANCH  17  18
HETATM   18  C   UNL     1      40.598 -10.422  -3.144  1.00  0.00     0.005 C 
HETATM   19  C   UNL     1      40.603  -9.262  -4.126  1.00  0.00     0.005 C 
ENDBRANCH  17  18
ENDBRANCH  13  17
ENDBRANCH   6   9
ENDBRANCH   1   3
BRANCH   1  20
HETATM   20  C   UNL     1      42.965 -13.925   6.894  1.00  0.00     0.179 C 
HETATM   21  S   UNL     1      43.903 -15.226   6.401  1.00  0.00    -0.040 SA
BRANCH  20  22
HETATM   22  N   UNL     1      43.656 -12.895   7.483  1.00  0.00    -0.298 N 
HETATM   23  C   UNL     1      43.673 -11.532   7.221  1.00  0.00     0.281 C 
HETATM   24  O   UNL     1      43.270 -11.036   6.172  1.00  0.00    -0.265 OA
HETATM   25  H   UNL     1      44.117 -13.166   8.345  1.00  0.00     0.171 HD
BRANCH  23  26
HETATM   26  C   UNL     1      44.270 -10.792   8.314  1.00  0.00     0.144 A 
HETATM   27  O   UNL     1      43.480 -10.530   9.402  1.00  0.00    -0.304 OA
HETATM   28  C   UNL     1      44.211  -9.816  10.303  1.00  0.00     0.086 A 
HETATM   29  C   UNL     1      45.484  -9.625   9.798  1.00  0.00     0.041 A 
HETATM   30  C   UNL     1      45.520 -10.250   8.521  1.00  0.00     0.046 A 
BRANCH  28  31
HETATM   31  C   UNL     1      43.507  -9.447  11.530  1.00  0.00    -0.002 A 
HETATM   32  C   UNL     1      42.551 -10.302  12.096  1.00  0.00     0.016 A 
HETATM   33  C   UNL     1      41.870  -9.940  13.266  1.00  0.00     0.024 A 
HETATM   34  C   UNL     1      42.142  -8.721  13.882  1.00  0.00     0.034 A 
HETATM   35 CL   UNL     1      41.304  -8.277  15.316  1.00  0.00    -0.084 Cl
HETATM   36  C   UNL     1      43.090  -7.859  13.339  1.00  0.00     0.024 A 
HETATM   37  C   UNL     1      43.766  -8.223  12.171  1.00  0.00     0.016 A 
ENDBRANCH  28  31
ENDBRANCH  23  26
ENDBRANCH  20  22
ENDBRANCH   1  20
TORSDOF 8
ENDMDL
MODEL 7
REMARK VINA RESULT:      -8.5      5.039     12.319
REMARK  8 active torsions:
REMARK  status: ('A' for Active; 'I' for Inactive)
REMARK    1  A    between atoms: C_2  and  C_3 
REMARK    2  A    between atoms: C_3  and  C_4 
REMARK       I    between atoms: C_4  and  N_5 
REMARK    3  A    between atoms: N_8  and  C_9 
REMARK    4  A    between atoms: C_12  and  N_13 
REMARK    5  A    between atoms: N_13  and  C_14 
REMARK    6  A    between atoms: C_14  and  N_15 
REMARK       I    between atoms: N_15  and  C_16 
REMARK    7  A    between atoms: C_16  and  C_17 
REMARK    8  A    between atoms: C_19  and  C_20 
ROOT
HETATM    1  N   UNL     1      41.717  -9.116   3.800  1.00  0.00    -0.333 N 
HETATM    2  H   UNL     1      42.228  -8.709   3.018  1.00  0.00     0.168 HD
ENDROOT
BRANCH   1   3
HETATM    3  C   UNL     1      41.794 -10.517   3.939  1.00  0.00     0.034 A 
HETATM    4  C   UNL     1      43.006 -11.179   4.104  1.00  0.00     0.031 A 
HETATM    5  C   UNL     1      43.050 -12.573   4.149  1.00  0.00     0.026 A 
HETATM    6  C   UNL     1      41.895 -13.355   4.006  1.00  0.00     0.010 A 
HETATM    7  C   UNL     1      40.672 -12.669   3.967  1.00  0.00     0.026 A 
HETATM    8  C   UNL     1      40.619 -11.264   3.948  1.00  0.00     0.031 A 
BRANCH   6   9
HETATM    9  N   UNL     1      42.023 -14.755   3.915  1.00  0.00    -0.280 NA
HETATM   10  C   UNL     1      43.165 -15.262   4.722  1.00  0.00     0.115 C 
HETATM   11  C   UNL     1      43.136 -16.795   4.823  1.00  0.00     0.140 C 
HETATM   12  N   UNL     1      43.046 -17.438   3.509  1.00  0.00    -0.350 N 
HETATM   13  C   UNL     1      43.601 -18.662   3.178  1.00  0.00     0.219 C 
HETATM   14  C   UNL     1      41.966 -16.909   2.664  1.00  0.00     0.140 C 
HETATM   15  O   UNL     1      43.300 -19.253   2.137  1.00  0.00    -0.273 OA
HETATM   16  C   UNL     1      41.982 -15.371   2.568  1.00  0.00     0.115 C 
BRANCH  13  17
HETATM   17  C   UNL     1      44.663 -19.264   4.085  1.00  0.00     0.103 C 
BRANCH  17  18
HETATM   18  C   UNL     1      44.160 -20.504   4.824  1.00  0.00     0.005 C 
HETATM   19  C   UNL     1      43.445 -20.203   6.132  1.00  0.00     0.005 C 
ENDBRANCH  17  18
ENDBRANCH  13  17
ENDBRANCH   6   9
ENDBRANCH   1   3
BRANCH   1  20
HETATM   20  C   UNL     1      41.273  -8.206   4.732  1.00  0.00     0.179 C 
HETATM   21  S   UNL     1      40.293  -6.864   4.503  1.00  0.00    -0.040 SA
BRANCH  20  22
HETATM   22  N   UNL     1      41.663  -8.432   6.028  1.00  0.00    -0.298 N 
HETATM   23  C   UNL     1      41.059  -9.139   7.060  1.00  0.00     0.281 C 
HETATM   24  O   UNL     1      39.872  -9.453   7.065  1.00  0.00    -0.265 OA
HETATM   25  H   UNL     1      42.621  -8.155   6.210  1.00  0.00     0.171 HD
BRANCH  23  26
HETATM   26  C   UNL     1      41.993  -9.406   8.134  1.00  0.00     0.144 A 
HETATM   27  O   UNL     1      41.613  -9.052   9.401  1.00  0.00    -0.304 OA
HETATM   28  C   UNL     1      42.626  -9.365  10.258  1.00  0.00     0.086 A 
HETATM   29  C   UNL     1      43.662  -9.932   9.540  1.00  0.00     0.041 A 
HETATM   30  C   UNL     1      43.256  -9.956   8.177  1.00  0.00     0.046 A 
BRANCH  28  31
HETATM   31  C   UNL     1      42.380  -9.043  11.662  1.00  0.00    -0.002 A 
HETATM   32  C   UNL     1      41.303  -9.612  12.354  1.00  0.00     0.016 A 
HETATM   33  C   UNL     1      41.064  -9.294  13.698  1.00  0.00     0.024 A 
HETATM   34  C   UNL     1      41.905  -8.404  14.362  1.00  0.00     0.034 A 
HETATM   35 CL   UNL     1      41.609  -8.011  16.010  1.00  0.00    -0.084 Cl
HETATM   36  C   UNL     1      42.982  -7.830  13.696  1.00  0.00     0.024 A 
HETATM   37  C   UNL     1      43.217  -8.149  12.355  1.00  0.00     0.016 A 
ENDBRANCH  28  31
ENDBRANCH  23  26
ENDBRANCH  20  22
ENDBRANCH   1  20
TORSDOF 8
ENDMDL
MODEL 8
REMARK VINA RESULT:      -8.3      2.522      3.419
REMARK  8 active torsions:
REMARK  status: ('A' for Active; 'I' for Inactive)
REMARK    1  A    between atoms: C_2  and  C_3 
REMARK    2  A    between atoms: C_3  and  C_4 
REMARK       I    between atoms: C_4  and  N_5 
REMARK    3  A    between atoms: N_8  and  C_9 
REMARK    4  A    between atoms: C_12  and  N_13 
REMARK    5  A    between atoms: N_13  and  C_14 
REMARK    6  A    between atoms: C_14  and  N_15 
REMARK       I    between atoms: N_15  and  C_16 
REMARK    7  A    between atoms: C_16  and  C_17 
REMARK    8  A    between atoms: C_19  and  C_20 
ROOT
HETATM    1  N   UNL     1      42.632 -10.061   5.669  1.00  0.00    -0.333 N 
HETATM    2  H   UNL     1      43.616 -10.313   5.583  1.00  0.00     0.168 HD
ENDROOT
BRANCH   1   3
HETATM    3  C   UNL     1      42.230  -9.511   6.903  1.00  0.00     0.034 A 
HETATM    4  C   UNL     1      43.089  -8.752   7.690  1.00  0.00     0.031 A 
HETATM    5  C   UNL     1      42.682  -8.299   8.946  1.00  0.00     0.026 A 
HETATM    6  C   UNL     1      41.419  -8.609   9.472  1.00  0.00     0.010 A 
HETATM    7  C   UNL     1      40.526  -9.267   8.614  1.00  0.00     0.026 A 
HETATM    8  C   UNL     1      40.920  -9.702   7.336  1.00  0.00     0.031 A 
BRANCH   6   9
HETATM    9  N   UNL     1      41.124  -8.247  10.801  1.00  0.00    -0.280 NA
HETATM   10  C   UNL     1      42.158  -7.344  11.373  1.00  0.00     0.115 C 
HETATM   11  C   UNL     1      41.697  -6.754  12.715  1.00  0.00     0.140 C 
HETATM   12  N   UNL     1      41.267  -7.788  13.660  1.00  0.00    -0.350 N 
HETATM   13  C   UNL     1      41.399  -7.719  15.036  1.00  0.00     0.219 C 
HETATM   14  C   UNL     1      40.293  -8.735  13.099  1.00  0.00     0.140 C 
HETATM   15  O   UNL     1      40.817  -8.507  15.787  1.00  0.00    -0.273 OA
HETATM   16  C   UNL     1      40.744  -9.322  11.746  1.00  0.00     0.115 C 
BRANCH  13  17
HETATM   17  C   UNL     1      42.341  -6.689  15.640  1.00  0.00     0.103 C 
BRANCH  17  18
HETATM   18  C   UNL     1      41.613  -5.695  16.545  1.00  0.00     0.005 C 
HETATM   19  C   UNL     1      40.346  -5.112  15.939  1.00  0.00     0.005 C 
ENDBRANCH  17  18
ENDBRANCH  13  17
ENDBRANCH   6   9
ENDBRANCH   1   3
BRANCH   1  20
HETATM   20  C   UNL     1      41.938 -10.047   4.481  1.00  0.00     0.179 C 
HETATM   21  S   UNL     1      40.963  -8.837   3.848  1.00  0.00    -0.040 SA
BRANCH  20  22
HETATM   22  N   UNL     1      42.072 -11.162   3.692  1.00  0.00    -0.298 N 
HETATM   23  C   UNL     1      43.190 -11.904   3.331  1.00  0.00     0.281 C 
HETATM   24  O   UNL     1      44.342 -11.489   3.430  1.00  0.00    -0.265 OA
HETATM   25  H   UNL     1      41.185 -11.593   3.456  1.00  0.00     0.171 HD
BRANCH  23  26
HETATM   26  C   UNL     1      42.814 -13.190   2.782  1.00  0.00     0.144 A 
HETATM   27  O   UNL     1      43.268 -14.308   3.432  1.00  0.00    -0.304 OA
HETATM   28  C   UNL     1      42.827 -15.407   2.757  1.00  0.00     0.086 A 
HETATM   29  C   UNL     1      42.077 -14.996   1.671  1.00  0.00     0.041 A 
HETATM   30  C   UNL     1      42.071 -13.574   1.687  1.00  0.00     0.046 A 
BRANCH  28  31
HETATM   31  C   UNL     1      43.233 -16.693   3.322  1.00  0.00    -0.002 A 
HETATM   32  C   UNL     1      43.489 -17.794   2.494  1.00  0.00     0.016 A 
HETATM   33  C   UNL     1      43.868 -19.028   3.039  1.00  0.00     0.024 A 
HETATM   34  C   UNL     1      43.999 -19.169   4.418  1.00  0.00     0.034 A 
HETATM   35 CL   UNL     1      44.461 -20.685   5.086  1.00  0.00    -0.084 Cl
HETATM   36  C   UNL     1      43.754 -18.089   5.258  1.00  0.00     0.024 A 
HETATM   37  C   UNL     1      43.374 -16.859   4.711  1.00  0.00     0.016 A 
ENDBRANCH  28  31
ENDBRANCH  23  26
ENDBRANCH  20  22
ENDBRANCH   1  20
TORSDOF 8
ENDMDL
MODEL 9
REMARK VINA RESULT:      -8.2      7.480     12.440
REMARK  8 active torsions:
REMARK  status: ('A' for Active; 'I' for Inactive)
REMARK    1  A    between atoms: C_2  and  C_3 
REMARK    2  A    between atoms: C_3  and  C_4 
REMARK       I    between atoms: C_4  and  N_5 
REMARK    3  A    between atoms: N_8  and  C_9 
REMARK    4  A    between atoms: C_12  and  N_13 
REMARK    5  A    between atoms: N_13  and  C_14 
REMARK    6  A    between atoms: C_14  and  N_15 
REMARK       I    between atoms: N_15  and  C_16 
REMARK    7  A    between atoms: C_16  and  C_17 
REMARK    8  A    between atoms: C_19  and  C_20 
ROOT
HETATM    1  N   UNL     1      42.476 -10.354   2.797  1.00  0.00    -0.333 N 
HETATM    2  H   UNL     1      43.485 -10.365   2.655  1.00  0.00     0.168 HD
ENDROOT
BRANCH   1   3
HETATM    3  C   UNL     1      41.679 -10.587   1.659  1.00  0.00     0.034 A 
HETATM    4  C   UNL     1      41.407  -9.591   0.728  1.00  0.00     0.031 A 
HETATM    5  C   UNL     1      40.542  -9.837  -0.339  1.00  0.00     0.026 A 
HETATM    6  C   UNL     1      39.899 -11.073  -0.502  1.00  0.00     0.010 A 
HETATM    7  C   UNL     1      40.283 -12.100   0.373  1.00  0.00     0.026 A 
HETATM    8  C   UNL     1      41.175 -11.866   1.434  1.00  0.00     0.031 A 
BRANCH   6   9
HETATM    9  N   UNL     1      38.929 -11.212  -1.513  1.00  0.00    -0.280 NA
HETATM   10  C   UNL     1      38.136  -9.967  -1.697  1.00  0.00     0.115 C 
HETATM   11  C   UNL     1      37.269 -10.043  -2.964  1.00  0.00     0.140 C 
HETATM   12  N   UNL     1      36.438 -11.250  -2.998  1.00  0.00    -0.350 N 
HETATM   13  C   UNL     1      35.183 -11.340  -3.576  1.00  0.00     0.219 C 
HETATM   14  C   UNL     1      37.186 -12.491  -2.753  1.00  0.00     0.140 C 
HETATM   15  O   UNL     1      34.636 -12.428  -3.775  1.00  0.00    -0.273 OA
HETATM   16  C   UNL     1      38.067 -12.417  -1.490  1.00  0.00     0.115 C 
BRANCH  13  17
HETATM   17  C   UNL     1      34.428 -10.065  -3.912  1.00  0.00     0.103 C 
BRANCH  17  18
HETATM   18  C   UNL     1      32.979 -10.336  -4.316  1.00  0.00     0.005 C 
HETATM   19  C   UNL     1      32.025 -10.499  -3.144  1.00  0.00     0.005 C 
ENDBRANCH  17  18
ENDBRANCH  13  17
ENDBRANCH   6   9
ENDBRANCH   1   3
BRANCH   1  20
HETATM   20  C   UNL     1      42.082 -10.385   4.115  1.00  0.00     0.179 C 
HETATM   21  S   UNL     1      41.218  -9.236   4.980  1.00  0.00    -0.040 SA
BRANCH  20  22
HETATM   22  N   UNL     1      42.420 -11.515   4.818  1.00  0.00    -0.298 N 
HETATM   23  C   UNL     1      41.641 -12.531   5.354  1.00  0.00     0.281 C 
HETATM   24  O   UNL     1      40.432 -12.431   5.547  1.00  0.00    -0.265 OA
HETATM   25  H   UNL     1      43.416 -11.703   4.814  1.00  0.00     0.171 HD
BRANCH  23  26
HETATM   26  C   UNL     1      42.444 -13.687   5.696  1.00  0.00     0.144 A 
HETATM   27  O   UNL     1      42.498 -14.707   4.783  1.00  0.00    -0.304 OA
HETATM   28  C   UNL     1      43.281 -15.700   5.294  1.00  0.00     0.086 A 
HETATM   29  C   UNL     1      43.741 -15.313   6.538  1.00  0.00     0.041 A 
HETATM   30  C   UNL     1      43.202 -14.023   6.797  1.00  0.00     0.046 A 
BRANCH  28  31
HETATM   31  C   UNL     1      43.438 -16.875   4.439  1.00  0.00    -0.002 A 
HETATM   32  C   UNL     1      42.846 -16.927   3.170  1.00  0.00     0.016 A 
HETATM   33  C   UNL     1      42.991 -18.060   2.357  1.00  0.00     0.024 A 
HETATM   34  C   UNL     1      43.734 -19.148   2.806  1.00  0.00     0.034 A 
HETATM   35 CL   UNL     1      43.908 -20.539   1.809  1.00  0.00    -0.084 Cl
HETATM   36  C   UNL     1      44.334 -19.117   4.060  1.00  0.00     0.024 A 
HETATM   37  C   UNL     1      44.186 -17.986   4.869  1.00  0.00     0.016 A 
ENDBRANCH  28  31
ENDBRANCH  23  26
ENDBRANCH  20  22
ENDBRANCH   1  20
TORSDOF 8
ENDMDL
MODEL 10
REMARK VINA RESULT:      -8.0      6.135     13.577
REMARK  8 active torsions:
REMARK  status: ('A' for Active; 'I' for Inactive)
REMARK    1  A    between atoms: C_2  and  C_3 
REMARK    2  A    between atoms: C_3  and  C_4 
REMARK       I    between atoms: C_4  and  N_5 
REMARK    3  A    between atoms: N_8  and  C_9 
REMARK    4  A    between atoms: C_12  and  N_13 
REMARK    5  A    between atoms: N_13  and  C_14 
REMARK    6  A    between atoms: C_14  and  N_15 
REMARK       I    between atoms: N_15  and  C_16 
REMARK    7  A    between atoms: C_16  and  C_17 
REMARK    8  A    between atoms: C_19  and  C_20 
ROOT
HETATM    1  N   UNL     1      43.607 -12.942   6.407  1.00  0.00    -0.333 N 
HETATM    2  H   UNL     1      43.194 -13.589   7.078  1.00  0.00     0.168 HD
ENDROOT
BRANCH   1   3
HETATM    3  C   UNL     1      43.198 -13.084   5.066  1.00  0.00     0.034 A 
HETATM    4  C   UNL     1      43.150 -12.007   4.187  1.00  0.00     0.031 A 
HETATM    5  C   UNL     1      42.655 -12.172   2.893  1.00  0.00     0.026 A 
HETATM    6  C   UNL     1      42.169 -13.406   2.437  1.00  0.00     0.010 A 
HETATM    7  C   UNL     1      42.342 -14.504   3.293  1.00  0.00     0.026 A 
HETATM    8  C   UNL     1      42.865 -14.350   4.589  1.00  0.00     0.031 A 
BRANCH   6   9
HETATM    9  N   UNL     1      41.551 -13.474   1.173  1.00  0.00    -0.280 NA
HETATM   10  C   UNL     1      41.205 -12.125   0.651  1.00  0.00     0.115 C 
HETATM   11  C   UNL     1      40.776 -12.193  -0.822  1.00  0.00     0.140 C 
HETATM   12  N   UNL     1      39.710 -13.174  -1.047  1.00  0.00    -0.350 N 
HETATM   13  C   UNL     1      38.712 -13.067  -2.000  1.00  0.00     0.219 C 
HETATM   14  C   UNL     1      39.997 -14.500  -0.483  1.00  0.00     0.140 C 
HETATM   15  O   UNL     1      37.987 -14.021  -2.294  1.00  0.00    -0.273 OA
HETATM   16  C   UNL     1      40.441 -14.438   0.992  1.00  0.00     0.115 C 
BRANCH  13  17
HETATM   17  C   UNL     1      38.455 -11.719  -2.655  1.00  0.00     0.103 C 
BRANCH  17  18
HETATM   18  C   UNL     1      37.203 -11.036  -2.106  1.00  0.00     0.005 C 
HETATM   19  C   UNL     1      36.021 -11.037  -3.063  1.00  0.00     0.005 C 
ENDBRANCH  17  18
ENDBRANCH  13  17
ENDBRANCH   6   9
ENDBRANCH   1   3
BRANCH   1  20
HETATM   20  C   UNL     1      44.273 -11.878   6.970  1.00  0.00     0.179 C 
HETATM   21  S   UNL     1      45.788 -11.267   6.588  1.00  0.00    -0.040 SA
BRANCH  20  22
HETATM   22  N   UNL     1      43.606 -11.209   7.966  1.00  0.00    -0.298 N 
HETATM   23  C   UNL     1      44.046 -10.678   9.171  1.00  0.00     0.281 C 
HETATM   24  O   UNL     1      45.107 -10.991   9.705  1.00  0.00    -0.265 OA
HETATM   25  H   UNL     1      42.666 -10.935   7.701  1.00  0.00     0.171 HD
BRANCH  23  26
HETATM   26  C   UNL     1      43.076  -9.757   9.728  1.00  0.00     0.144 A 
HETATM   27  O   UNL     1      43.182  -9.462  11.061  1.00  0.00    -0.304 OA
HETATM   28  C   UNL     1      42.176  -8.603  11.392  1.00  0.00     0.086 A 
HETATM   29  C   UNL     1      41.424  -8.336  10.264  1.00  0.00     0.041 A 
HETATM   30  C   UNL     1      42.000  -9.079   9.197  1.00  0.00     0.046 A 
BRANCH  28  31
HETATM   31  C   UNL     1      42.143  -8.189  12.794  1.00  0.00    -0.002 A 
HETATM   32  C   UNL     1      42.782  -7.015  13.214  1.00  0.00     0.016 A 
HETATM   33  C   UNL     1      42.757  -6.627  14.560  1.00  0.00     0.024 A 
HETATM   34  C   UNL     1      42.087  -7.409  15.497  1.00  0.00     0.034 A 
HETATM   35 CL   UNL     1      42.059  -6.933  17.150  1.00  0.00    -0.084 Cl
HETATM   36  C   UNL     1      41.443  -8.576  15.102  1.00  0.00     0.024 A 
HETATM   37  C   UNL     1      41.471  -8.961  13.759  1.00  0.00     0.016 A 
ENDBRANCH  28  31
ENDBRANCH  23  26
ENDBRANCH  20  22
ENDBRANCH   1  20
TORSDOF 8
ENDMDL
