MODEL 1
REMARK VINA RESULT:      -8.7      0.000      0.000
REMARK  3 active torsions:
REMARK  status: ('A' for Active; 'I' for Inactive)
REMARK    1  A    between atoms: C_2  and  C_3 
REMARK    2  A    between atoms: C_10  and  C_12 
REMARK    3  A    between atoms: C_10  and  O_11 
ROOT
HETATM    1  C   UNL     1      43.700 -18.129   4.000  1.00  0.00    -0.058 A 
HETATM    2  C   UNL     1      42.625 -17.300   3.639  1.00  0.00     0.020 A 
HETATM    3  C   UNL     1      42.011 -16.542   4.625  1.00  0.00     0.018 A 
HETATM    4  C   UNL     1      42.442 -16.625   5.950  1.00  0.00     0.045 A 
HETATM    5  N   UNL     1      41.698 -15.777   6.756  1.00  0.00    -0.323 N 
HETATM    6  C   UNL     1      40.745 -15.073   6.017  1.00  0.00     0.266 A 
HETATM    7  O   UNL     1      39.961 -14.268   6.498  1.00  0.00    -0.269 OA
HETATM    8  C   UNL     1      40.846 -15.578   4.532  1.00  0.00     0.199 A 
HETATM    9  C   UNL     1      43.487 -17.434   6.340  1.00  0.00     0.031 A 
HETATM   10  C   UNL     1      44.122 -18.187   5.348  1.00  0.00     0.009 A 
HETATM   11  H   UNL     1      41.825 -15.636   7.747  1.00  0.00     0.169 HD
ENDROOT
BRANCH   8  12
HETATM   12  C   UNL     1      41.224 -14.485   3.555  1.00  0.00     0.025 A 
HETATM   13  C   UNL     1      40.838 -14.369   2.162  1.00  0.00     0.003 A 
HETATM   14  C   UNL     1      41.405 -13.197   1.661  1.00  0.00     0.043 A 
HETATM   15  C   UNL     1      40.052 -15.142   1.278  1.00  0.00     0.014 A 
HETATM   16  C   UNL     1      41.222 -12.757   0.343  1.00  0.00     0.030 A 
HETATM   17  N   UNL     1      42.126 -12.629   2.678  1.00  0.00    -0.359 N 
HETATM   18  C   UNL     1      40.432 -13.539  -0.501  1.00  0.00     0.002 A 
HETATM   19  C   UNL     1      39.856 -14.718  -0.043  1.00  0.00     0.001 A 
HETATM   20  H   UNL     1      42.657 -11.774   2.588  1.00  0.00     0.166 HD
HETATM   21  C   UNL     1      42.038 -13.382   3.819  1.00  0.00     0.016 A 
HETATM   22  C   UNL     1      42.758 -12.970   5.054  1.00  0.00     0.069 C 
ENDBRANCH   8  12
BRANCH   8  23
HETATM   23  O   UNL     1      39.685 -16.314   4.154  1.00  0.00    -0.371 OA
HETATM   24  H   UNL     1      39.504 -16.090   3.227  1.00  0.00     0.212 HD
ENDBRANCH   8  23
BRANCH   1  25
HETATM   25  C   UNL     1      44.427 -18.921   2.942  1.00  0.00     0.034 C 
HETATM   26  C   UNL     1      43.505 -19.911   2.245  1.00  0.00     0.010 C 
ENDBRANCH   1  25
TORSDOF 3
ENDMDL
MODEL 2
REMARK VINA RESULT:      -8.6      0.943      2.861
REMARK  3 active torsions:
REMARK  status: ('A' for Active; 'I' for Inactive)
REMARK    1  A    between atoms: C_2  and  C_3 
REMARK    2  A    between atoms: C_10  and  C_12 
REMARK    3  A    between atoms: C_10  and  O_11 
ROOT
HETATM    1  C   UNL     1      43.624 -18.322   3.871  1.00  0.00    -0.058 A 
HETATM    2  C   UNL     1      42.644 -17.357   3.585  1.00  0.00     0.020 A 
HETATM    3  C   UNL     1      42.011 -16.718   4.641  1.00  0.00     0.018 A 
HETATM    4  C   UNL     1      42.329 -17.051   5.959  1.00  0.00     0.045 A 
HETATM    5  N   UNL     1      41.589 -16.284   6.845  1.00  0.00    -0.323 N 
HETATM    6  C   UNL     1      40.751 -15.391   6.173  1.00  0.00     0.266 A 
HETATM    7  O   UNL     1      39.992 -14.611   6.730  1.00  0.00    -0.269 OA
HETATM    8  C   UNL     1      40.931 -15.657   4.635  1.00  0.00     0.199 A 
HETATM    9  C   UNL     1      43.279 -17.998   6.275  1.00  0.00     0.031 A 
HETATM   10  C   UNL     1      43.933 -18.632   5.216  1.00  0.00     0.009 A 
HETATM   11  H   UNL     1      41.647 -16.316   7.852  1.00  0.00     0.169 HD
ENDROOT
BRANCH   8  12
HETATM   12  C   UNL     1      41.463 -14.457   3.881  1.00  0.00     0.025 A 
HETATM   13  C   UNL     1      42.416 -13.468   4.348  1.00  0.00     0.003 A 
HETATM   14  C   UNL     1      42.622 -12.556   3.313  1.00  0.00     0.043 A 
HETATM   15  C   UNL     1      43.134 -13.265   5.549  1.00  0.00     0.014 A 
HETATM   16  C   UNL     1      43.504 -11.471   3.409  1.00  0.00     0.030 A 
HETATM   17  N   UNL     1      41.822 -12.939   2.270  1.00  0.00    -0.359 N 
HETATM   18  C   UNL     1      44.204 -11.304   4.606  1.00  0.00     0.002 A 
HETATM   19  C   UNL     1      44.021 -12.187   5.664  1.00  0.00     0.001 A 
HETATM   20  H   UNL     1      41.760 -12.444   1.391  1.00  0.00     0.166 HD
HETATM   21  C   UNL     1      41.115 -14.069   2.586  1.00  0.00     0.016 A 
HETATM   22  C   UNL     1      40.162 -14.663   1.610  1.00  0.00     0.069 C 
ENDBRANCH   8  12
BRANCH   8  23
HETATM   23  O   UNL     1      39.752 -16.221   4.064  1.00  0.00    -0.371 OA
HETATM   24  H   UNL     1      39.816 -17.182   4.192  1.00  0.00     0.212 HD
ENDBRANCH   8  23
BRANCH   1  25
HETATM   25  C   UNL     1      44.372 -18.992   2.746  1.00  0.00     0.034 C 
HETATM   26  C   UNL     1      43.547 -20.096   2.100  1.00  0.00     0.010 C 
ENDBRANCH   1  25
TORSDOF 3
ENDMDL
MODEL 3
REMARK VINA RESULT:      -8.4      2.211      5.065
REMARK  3 active torsions:
REMARK  status: ('A' for Active; 'I' for Inactive)
REMARK    1  A    between atoms: C_2  and  C_3 
REMARK    2  A    between atoms: C_10  and  C_12 
REMARK    3  A    between atoms: C_10  and  O_11 
ROOT
HETATM    1  C   UNL     1      44.206 -12.104   6.221  1.00  0.00    -0.058 A 
HETATM    2  C   UNL     1      44.001 -13.480   6.418  1.00  0.00     0.020 A 
HETATM    3  C   UNL     1      42.699 -13.954   6.482  1.00  0.00     0.018 A 
HETATM    4  C   UNL     1      41.621 -13.074   6.377  1.00  0.00     0.045 A 
HETATM    5  N   UNL     1      40.421 -13.764   6.456  1.00  0.00    -0.323 N 
HETATM    6  C   UNL     1      40.629 -15.138   6.602  1.00  0.00     0.266 A 
HETATM    7  O   UNL     1      39.731 -15.960   6.701  1.00  0.00    -0.269 OA
HETATM    8  C   UNL     1      42.182 -15.363   6.688  1.00  0.00     0.199 A 
HETATM    9  C   UNL     1      41.787 -11.718   6.192  1.00  0.00     0.031 A 
HETATM   10  C   UNL     1      43.096 -11.236   6.109  1.00  0.00     0.009 A 
HETATM   11  H   UNL     1      39.498 -13.362   6.386  1.00  0.00     0.169 HD
ENDROOT
BRANCH   8  12
HETATM   12  C   UNL     1      42.722 -16.224   5.566  1.00  0.00     0.025 A 
HETATM   13  C   UNL     1      42.783 -15.904   4.153  1.00  0.00     0.003 A 
HETATM   14  C   UNL     1      43.370 -16.986   3.497  1.00  0.00     0.043 A 
HETATM   15  C   UNL     1      42.404 -14.793   3.366  1.00  0.00     0.014 A 
HETATM   16  C   UNL     1      43.606 -17.012   2.116  1.00  0.00     0.030 A 
HETATM   17  N   UNL     1      43.635 -17.938   4.446  1.00  0.00    -0.359 N 
HETATM   18  C   UNL     1      43.228 -15.895   1.370  1.00  0.00     0.002 A 
HETATM   19  C   UNL     1      42.633 -14.799   1.984  1.00  0.00     0.001 A 
HETATM   20  H   UNL     1      44.050 -18.838   4.245  1.00  0.00     0.166 HD
HETATM   21  C   UNL     1      43.253 -17.509   5.689  1.00  0.00     0.016 A 
HETATM   22  C   UNL     1      43.427 -18.387   6.878  1.00  0.00     0.069 C 
ENDBRANCH   8  12
BRANCH   8  23
HETATM   23  O   UNL     1      42.571 -15.797   7.989  1.00  0.00    -0.371 OA
HETATM   24  H   UNL     1      43.525 -15.628   8.064  1.00  0.00     0.212 HD
ENDBRANCH   8  23
BRANCH   1  25
HETATM   25  C   UNL     1      45.609 -11.565   6.088  1.00  0.00     0.034 C 
HETATM   26  C   UNL     1      46.044 -10.811   7.336  1.00  0.00     0.010 C 
ENDBRANCH   1  25
TORSDOF 3
ENDMDL
MODEL 4
REMARK VINA RESULT:      -8.3      1.788      5.483
REMARK  3 active torsions:
REMARK  status: ('A' for Active; 'I' for Inactive)
REMARK    1  A    between atoms: C_2  and  C_3 
REMARK    2  A    between atoms: C_10  and  C_12 
REMARK    3  A    between atoms: C_10  and  O_11 
ROOT
HETATM    1  C   UNL     1      43.983 -12.000   5.097  1.00  0.00    -0.058 A 
HETATM    2  C   UNL     1      43.275 -13.134   5.530  1.00  0.00     0.020 A 
HETATM    3  C   UNL     1      42.360 -13.716   4.665  1.00  0.00     0.018 A 
HETATM    4  C   UNL     1      42.134 -13.166   3.402  1.00  0.00     0.045 A 
HETATM    5  N   UNL     1      41.194 -13.913   2.709  1.00  0.00    -0.323 N 
HETATM    6  C   UNL     1      40.754 -15.006   3.459  1.00  0.00     0.266 A 
HETATM    7  O   UNL     1      39.921 -15.812   3.072  1.00  0.00    -0.269 OA
HETATM    8  C   UNL     1      41.465 -14.922   4.858  1.00  0.00     0.199 A 
HETATM    9  C   UNL     1      42.804 -12.050   2.949  1.00  0.00     0.031 A 
HETATM   10  C   UNL     1      43.741 -11.469   3.809  1.00  0.00     0.009 A 
HETATM   11  H   UNL     1      40.872 -13.738   1.768  1.00  0.00     0.169 HD
ENDROOT
BRANCH   8  12
HETATM   12  C   UNL     1      42.350 -16.116   5.148  1.00  0.00     0.025 A 
HETATM   13  C   UNL     1      42.828 -17.114   4.211  1.00  0.00     0.003 A 
HETATM   14  C   UNL     1      43.623 -18.015   4.919  1.00  0.00     0.043 A 
HETATM   15  C   UNL     1      42.669 -17.336   2.824  1.00  0.00     0.014 A 
HETATM   16  C   UNL     1      44.269 -19.105   4.320  1.00  0.00     0.030 A 
HETATM   17  N   UNL     1      43.619 -17.615   6.229  1.00  0.00    -0.359 N 
HETATM   18  C   UNL     1      44.099 -19.289   2.947  1.00  0.00     0.002 A 
HETATM   19  C   UNL     1      43.308 -18.419   2.206  1.00  0.00     0.001 A 
HETATM   20  H   UNL     1      44.105 -18.099   6.971  1.00  0.00     0.166 HD
HETATM   21  C   UNL     1      42.862 -16.486   6.393  1.00  0.00     0.016 A 
HETATM   22  C   UNL     1      42.695 -15.876   7.740  1.00  0.00     0.069 C 
ENDBRANCH   8  12
BRANCH   8  23
HETATM   23  O   UNL     1      40.534 -14.627   5.897  1.00  0.00    -0.371 OA
HETATM   24  H   UNL     1      39.649 -14.699   5.503  1.00  0.00     0.212 HD
ENDBRANCH   8  23
BRANCH   1  25
HETATM   25  C   UNL     1      45.028 -11.379   5.990  1.00  0.00     0.034 C 
HETATM   26  C   UNL     1      44.652 -11.495   7.461  1.00  0.00     0.010 C 
ENDBRANCH   1  25
TORSDOF 3
ENDMDL
MODEL 5
REMARK VINA RESULT:      -8.3      1.689      2.293
REMARK  3 active torsions:
REMARK  status: ('A' for Active; 'I' for Inactive)
REMARK    1  A    between atoms: C_2  and  C_3 
REMARK    2  A    between atoms: C_10  and  C_12 
REMARK    3  A    between atoms: C_10  and  O_11 
ROOT
HETATM    1  C   UNL     1      43.004 -17.195   2.793  1.00  0.00    -0.058 A 
HETATM    2  C   UNL     1      41.937 -16.477   2.226  1.00  0.00     0.020 A 
HETATM    3  C   UNL     1      41.356 -15.457   2.964  1.00  0.00     0.018 A 
HETATM    4  C   UNL     1      41.810 -15.172   4.253  1.00  0.00     0.045 A 
HETATM    5  N   UNL     1      41.097 -14.114   4.795  1.00  0.00    -0.323 N 
HETATM    6  C   UNL     1      40.143 -13.626   3.899  1.00  0.00     0.266 A 
HETATM    7  O   UNL     1      39.383 -12.700   4.143  1.00  0.00    -0.269 OA
HETATM    8  C   UNL     1      40.207 -14.533   2.617  1.00  0.00     0.199 A 
HETATM    9  C   UNL     1      42.847 -15.861   4.843  1.00  0.00     0.031 A 
HETATM   10  C   UNL     1      43.450 -16.878   4.097  1.00  0.00     0.009 A 
HETATM   11  H   UNL     1      41.245 -13.700   5.704  1.00  0.00     0.169 HD
ENDROOT
BRANCH   8  12
HETATM   12  C   UNL     1      40.586 -13.771   1.366  1.00  0.00     0.025 A 
HETATM   13  C   UNL     1      40.176 -14.045   0.002  1.00  0.00     0.003 A 
HETATM   14  C   UNL     1      40.754 -13.076  -0.818  1.00  0.00     0.043 A 
HETATM   15  C   UNL     1      39.360 -15.020  -0.616  1.00  0.00     0.014 A 
HETATM   16  C   UNL     1      40.554 -13.024  -2.204  1.00  0.00     0.030 A 
HETATM   17  N   UNL     1      41.504 -12.260  -0.013  1.00  0.00    -0.359 N 
HETATM   18  C   UNL     1      39.735 -13.996  -2.781  1.00  0.00     0.002 A 
HETATM   19  C   UNL     1      39.146 -14.984  -2.000  1.00  0.00     0.001 A 
HETATM   20  H   UNL     1      42.047 -11.477  -0.349  1.00  0.00     0.166 HD
HETATM   21  C   UNL     1      41.424 -12.657   1.295  1.00  0.00     0.016 A 
HETATM   22  C   UNL     1      42.173 -11.927   2.354  1.00  0.00     0.069 C 
ENDBRANCH   8  12
BRANCH   8  23
HETATM   23  O   UNL     1      39.025 -15.320   2.480  1.00  0.00    -0.371 OA
HETATM   24  H   UNL     1      38.767 -15.590   3.376  1.00  0.00     0.212 HD
ENDBRANCH   8  23
BRANCH   1  25
HETATM   25  C   UNL     1      43.696 -18.270   1.994  1.00  0.00     0.034 C 
HETATM   26  C   UNL     1      43.137 -19.651   2.305  1.00  0.00     0.010 C 
ENDBRANCH   1  25
TORSDOF 3
ENDMDL
MODEL 6
REMARK VINA RESULT:      -8.1      2.417      5.783
REMARK  3 active torsions:
REMARK  status: ('A' for Active; 'I' for Inactive)
REMARK    1  A    between atoms: C_2  and  C_3 
REMARK    2  A    between atoms: C_10  and  C_12 
REMARK    3  A    between atoms: C_10  and  O_11 
ROOT
HETATM    1  C   UNL     1      44.223 -12.089   6.316  1.00  0.00    -0.058 A 
HETATM    2  C   UNL     1      44.019 -13.473   6.435  1.00  0.00     0.020 A 
HETATM    3  C   UNL     1      42.718 -13.954   6.457  1.00  0.00     0.018 A 
HETATM    4  C   UNL     1      41.639 -13.071   6.386  1.00  0.00     0.045 A 
HETATM    5  N   UNL     1      40.440 -13.767   6.412  1.00  0.00    -0.323 N 
HETATM    6  C   UNL     1      40.650 -15.146   6.485  1.00  0.00     0.266 A 
HETATM    7  O   UNL     1      39.753 -15.975   6.527  1.00  0.00    -0.269 OA
HETATM    8  C   UNL     1      42.203 -15.373   6.578  1.00  0.00     0.199 A 
HETATM    9  C   UNL     1      41.803 -11.707   6.278  1.00  0.00     0.031 A 
HETATM   10  C   UNL     1      43.112 -11.218   6.237  1.00  0.00     0.009 A 
HETATM   11  H   UNL     1      39.517 -13.364   6.352  1.00  0.00     0.169 HD
ENDROOT
BRANCH   8  12
HETATM   12  C   UNL     1      42.759 -16.170   5.418  1.00  0.00     0.025 A 
HETATM   13  C   UNL     1      43.225 -17.544   5.429  1.00  0.00     0.003 A 
HETATM   14  C   UNL     1      43.635 -17.863   4.135  1.00  0.00     0.043 A 
HETATM   15  C   UNL     1      43.329 -18.553   6.413  1.00  0.00     0.014 A 
HETATM   16  C   UNL     1      44.127 -19.124   3.774  1.00  0.00     0.030 A 
HETATM   17  N   UNL     1      43.460 -16.742   3.367  1.00  0.00    -0.359 N 
HETATM   18  C   UNL     1      44.209 -20.101   4.768  1.00  0.00     0.002 A 
HETATM   19  C   UNL     1      43.817 -19.821   6.072  1.00  0.00     0.001 A 
HETATM   20  H   UNL     1      43.692 -16.686   2.385  1.00  0.00     0.166 HD
HETATM   21  C   UNL     1      42.943 -15.716   4.112  1.00  0.00     0.016 A 
HETATM   22  C   UNL     1      42.684 -14.388   3.491  1.00  0.00     0.069 C 
ENDBRANCH   8  12
BRANCH   8  23
HETATM   23  O   UNL     1      42.577 -15.877   7.859  1.00  0.00    -0.371 OA
HETATM   24  H   UNL     1      43.207 -15.240   8.234  1.00  0.00     0.212 HD
ENDBRANCH   8  23
BRANCH   1  25
HETATM   25  C   UNL     1      45.625 -11.539   6.230  1.00  0.00     0.034 C 
HETATM   26  C   UNL     1      46.016 -10.791   7.497  1.00  0.00     0.010 C 
ENDBRANCH   1  25
TORSDOF 3
ENDMDL
MODEL 7
REMARK VINA RESULT:      -7.9      2.783      5.540
REMARK  3 active torsions:
REMARK  status: ('A' for Active; 'I' for Inactive)
REMARK    1  A    between atoms: C_2  and  C_3 
REMARK    2  A    between atoms: C_10  and  C_12 
REMARK    3  A    between atoms: C_10  and  O_11 
ROOT
HETATM    1  C   UNL     1      44.708 -10.896   7.238  1.00  0.00    -0.058 A 
HETATM    2  C   UNL     1      44.139 -12.055   6.687  1.00  0.00     0.020 A 
HETATM    3  C   UNL     1      42.770 -12.081   6.462  1.00  0.00     0.018 A 
HETATM    4  C   UNL     1      41.979 -10.983   6.804  1.00  0.00     0.045 A 
HETATM    5  N   UNL     1      40.652 -11.223   6.483  1.00  0.00    -0.323 N 
HETATM    6  C   UNL     1      40.486 -12.481   5.898  1.00  0.00     0.266 A 
HETATM    7  O   UNL     1      39.409 -12.931   5.533  1.00  0.00    -0.269 OA
HETATM    8  C   UNL     1      41.895 -13.178   5.893  1.00  0.00     0.199 A 
HETATM    9  C   UNL     1      42.503  -9.834   7.354  1.00  0.00     0.031 A 
HETATM   10  C   UNL     1      43.884  -9.794   7.566  1.00  0.00     0.009 A 
HETATM   11  H   UNL     1      39.883 -10.581   6.609  1.00  0.00     0.169 HD
ENDROOT
BRANCH   8  12
HETATM   12  C   UNL     1      42.396 -13.497   4.501  1.00  0.00     0.025 A 
HETATM   13  C   UNL     1      42.673 -14.804   3.936  1.00  0.00     0.003 A 
HETATM   14  C   UNL     1      43.100 -14.616   2.621  1.00  0.00     0.043 A 
HETATM   15  C   UNL     1      42.593 -16.132   4.412  1.00  0.00     0.014 A 
HETATM   16  C   UNL     1      43.436 -15.673   1.765  1.00  0.00     0.030 A 
HETATM   17  N   UNL     1      43.114 -13.267   2.389  1.00  0.00    -0.359 N 
HETATM   18  C   UNL     1      43.337 -16.973   2.264  1.00  0.00     0.002 A 
HETATM   19  C   UNL     1      42.923 -17.203   3.571  1.00  0.00     0.001 A 
HETATM   20  H   UNL     1      43.399 -12.845   1.517  1.00  0.00     0.166 HD
HETATM   21  C   UNL     1      42.702 -12.576   3.498  1.00  0.00     0.016 A 
HETATM   22  C   UNL     1      42.654 -11.088   3.487  1.00  0.00     0.069 C 
ENDBRANCH   8  12
BRANCH   8  23
HETATM   23  O   UNL     1      41.928 -14.287   6.788  1.00  0.00    -0.371 OA
HETATM   24  H   UNL     1      42.548 -14.052   7.497  1.00  0.00     0.212 HD
ENDBRANCH   8  23
BRANCH   1  25
HETATM   25  C   UNL     1      46.201 -10.813   7.439  1.00  0.00     0.034 C 
HETATM   26  C   UNL     1      46.627  -9.442   7.945  1.00  0.00     0.010 C 
ENDBRANCH   1  25
TORSDOF 3
ENDMDL
MODEL 8
REMARK VINA RESULT:      -7.6      4.132      7.217
REMARK  3 active torsions:
REMARK  status: ('A' for Active; 'I' for Inactive)
REMARK    1  A    between atoms: C_2  and  C_3 
REMARK    2  A    between atoms: C_10  and  C_12 
REMARK    3  A    between atoms: C_10  and  O_11 
ROOT
HETATM    1  C   UNL     1      44.160 -10.357   9.358  1.00  0.00    -0.058 A 
HETATM    2  C   UNL     1      43.230 -10.611   8.336  1.00  0.00     0.020 A 
HETATM    3  C   UNL     1      43.703 -10.911   7.067  1.00  0.00     0.018 A 
HETATM    4  C   UNL     1      45.075 -10.935   6.813  1.00  0.00     0.045 A 
HETATM    5  N   UNL     1      45.318 -11.267   5.489  1.00  0.00    -0.323 N 
HETATM    6  C   UNL     1      44.129 -11.499   4.793  1.00  0.00     0.266 A 
HETATM    7  O   UNL     1      44.075 -11.800   3.610  1.00  0.00    -0.269 OA
HETATM    8  C   UNL     1      42.947 -11.220   5.791  1.00  0.00     0.199 A 
HETATM    9  C   UNL     1      46.014 -10.682   7.789  1.00  0.00     0.031 A 
HETATM   10  C   UNL     1      45.544 -10.396   9.074  1.00  0.00     0.009 A 
HETATM   11  H   UNL     1      46.225 -11.372   5.059  1.00  0.00     0.169 HD
ENDROOT
BRANCH   8  12
HETATM   12  C   UNL     1      42.083 -12.436   6.045  1.00  0.00     0.025 A 
HETATM   13  C   UNL     1      42.519 -13.793   6.316  1.00  0.00     0.003 A 
HETATM   14  C   UNL     1      41.379 -14.576   6.501  1.00  0.00     0.043 A 
HETATM   15  C   UNL     1      43.774 -14.432   6.432  1.00  0.00     0.014 A 
HETATM   16  C   UNL     1      41.428 -15.944   6.802  1.00  0.00     0.030 A 
HETATM   17  N   UNL     1      40.294 -13.758   6.328  1.00  0.00    -0.359 N 
HETATM   18  C   UNL     1      42.683 -16.542   6.918  1.00  0.00     0.002 A 
HETATM   19  C   UNL     1      43.844 -15.798   6.734  1.00  0.00     0.001 A 
HETATM   20  H   UNL     1      39.335 -14.069   6.390  1.00  0.00     0.166 HD
HETATM   21  C   UNL     1      40.688 -12.476   6.050  1.00  0.00     0.016 A 
HETATM   22  C   UNL     1      39.677 -11.411   5.805  1.00  0.00     0.069 C 
ENDBRANCH   8  12
BRANCH   8  23
HETATM   23  O   UNL     1      42.213 -10.058   5.413  1.00  0.00    -0.371 OA
HETATM   24  H   UNL     1      42.867  -9.395   5.138  1.00  0.00     0.212 HD
ENDBRANCH   8  23
BRANCH   1  25
HETATM   25  C   UNL     1      43.679 -10.086  10.762  1.00  0.00     0.034 C 
HETATM   26  C   UNL     1      43.704  -8.599  11.088  1.00  0.00     0.010 C 
ENDBRANCH   1  25
TORSDOF 3
ENDMDL
MODEL 9
REMARK VINA RESULT:      -7.5     10.324     13.030
REMARK  3 active torsions:
REMARK  status: ('A' for Active; 'I' for Inactive)
REMARK    1  A    between atoms: C_2  and  C_3 
REMARK    2  A    between atoms: C_10  and  C_12 
REMARK    3  A    between atoms: C_10  and  O_11 
ROOT
HETATM    1  C   UNL     1      42.744  -7.261  10.328  1.00  0.00    -0.058 A 
HETATM    2  C   UNL     1      41.462  -7.349  10.897  1.00  0.00     0.020 A 
HETATM    3  C   UNL     1      41.128  -8.491  11.609  1.00  0.00     0.018 A 
HETATM    4  C   UNL     1      42.043  -9.537  11.733  1.00  0.00     0.045 A 
HETATM    5  N   UNL     1      41.504 -10.566  12.491  1.00  0.00    -0.323 N 
HETATM    6  C   UNL     1      40.212 -10.258  12.927  1.00  0.00     0.266 A 
HETATM    7  O   UNL     1      39.522 -11.004  13.605  1.00  0.00    -0.269 OA
HETATM    8  C   UNL     1      39.840  -8.859  12.316  1.00  0.00     0.199 A 
HETATM    9  C   UNL     1      43.304  -9.488  11.181  1.00  0.00     0.031 A 
HETATM   10  C   UNL     1      43.654  -8.332  10.478  1.00  0.00     0.009 A 
HETATM   11  H   UNL     1      41.969 -11.425  12.745  1.00  0.00     0.169 HD
ENDROOT
BRANCH   8  12
HETATM   12  C   UNL     1      39.569  -7.803  13.367  1.00  0.00     0.025 A 
HETATM   13  C   UNL     1      40.346  -7.518  14.558  1.00  0.00     0.003 A 
HETATM   14  C   UNL     1      39.731  -6.456  15.221  1.00  0.00     0.043 A 
HETATM   15  C   UNL     1      41.521  -8.052  15.133  1.00  0.00     0.014 A 
HETATM   16  C   UNL     1      40.228  -5.900  16.408  1.00  0.00     0.030 A 
HETATM   17  N   UNL     1      38.618  -6.118  14.499  1.00  0.00    -0.359 N 
HETATM   18  C   UNL     1      41.395  -6.446  16.944  1.00  0.00     0.002 A 
HETATM   19  C   UNL     1      42.035  -7.510  16.318  1.00  0.00     0.001 A 
HETATM   20  H   UNL     1      37.973  -5.385  14.761  1.00  0.00     0.166 HD
HETATM   21  C   UNL     1      38.496  -6.911  13.389  1.00  0.00     0.016 A 
HETATM   22  C   UNL     1      37.347  -6.739  12.459  1.00  0.00     0.069 C 
ENDBRANCH   8  12
BRANCH   8  23
HETATM   23  O   UNL     1      38.810  -8.978  11.337  1.00  0.00    -0.371 OA
HETATM   24  H   UNL     1      39.253  -9.044  10.476  1.00  0.00     0.212 HD
ENDBRANCH   8  23
BRANCH   1  25
HETATM   25  C   UNL     1      43.159  -6.008   9.598  1.00  0.00     0.034 C 
HETATM   26  C   UNL     1      42.706  -4.753  10.330  1.00  0.00     0.010 C 
ENDBRANCH   1  25
TORSDOF 3
ENDMDL
MODEL 10
REMARK VINA RESULT:      -7.5      1.998      4.695
REMARK  3 active torsions:
REMARK  status: ('A' for Active; 'I' for Inactive)
REMARK    1  A    between atoms: C_2  and  C_3 
REMARK    2  A    between atoms: C_10  and  C_12 
REMARK    3  A    between atoms: C_10  and  O_11 
ROOT
HETATM    1  C   UNL     1      40.954 -15.550   2.136  1.00  0.00    -0.058 A 
HETATM    2  C   UNL     1      40.585 -14.931   3.342  1.00  0.00     0.020 A 
HETATM    3  C   UNL     1      41.180 -15.360   4.519  1.00  0.00     0.018 A 
HETATM    4  C   UNL     1      42.107 -16.403   4.501  1.00  0.00     0.045 A 
HETATM    5  N   UNL     1      42.579 -16.655   5.780  1.00  0.00    -0.323 N 
HETATM    6  C   UNL     1      42.008 -15.790   6.716  1.00  0.00     0.266 A 
HETATM    7  O   UNL     1      42.254 -15.815   7.913  1.00  0.00    -0.269 OA
HETATM    8  C   UNL     1      40.977 -14.889   5.944  1.00  0.00     0.199 A 
HETATM    9  C   UNL     1      42.486 -17.038   3.338  1.00  0.00     0.031 A 
HETATM   10  C   UNL     1      41.904 -16.598   2.146  1.00  0.00     0.009 A 
HETATM   11  H   UNL     1      43.272 -17.344   6.034  1.00  0.00     0.169 HD
ENDROOT
BRANCH   8  12
HETATM   12  C   UNL     1      41.317 -13.415   5.998  1.00  0.00     0.025 A 
HETATM   13  C   UNL     1      42.615 -12.812   6.238  1.00  0.00     0.003 A 
HETATM   14  C   UNL     1      42.456 -11.427   6.184  1.00  0.00     0.043 A 
HETATM   15  C   UNL     1      43.914 -13.310   6.486  1.00  0.00     0.014 A 
HETATM   16  C   UNL     1      43.515 -10.526   6.352  1.00  0.00     0.030 A 
HETATM   17  N   UNL     1      41.129 -11.181   5.951  1.00  0.00    -0.359 N 
HETATM   18  C   UNL     1      44.787 -11.051   6.587  1.00  0.00     0.002 A 
HETATM   19  C   UNL     1      44.986 -12.425   6.655  1.00  0.00     0.001 A 
HETATM   20  H   UNL     1      40.728 -10.256   5.880  1.00  0.00     0.166 HD
HETATM   21  C   UNL     1      40.427 -12.352   5.841  1.00  0.00     0.016 A 
HETATM   22  C   UNL     1      38.957 -12.333   5.604  1.00  0.00     0.069 C 
ENDBRANCH   8  12
BRANCH   8  23
HETATM   23  O   UNL     1      39.637 -15.187   6.328  1.00  0.00    -0.371 OA
HETATM   24  H   UNL     1      39.638 -16.105   6.646  1.00  0.00     0.212 HD
ENDBRANCH   8  23
BRANCH   1  25
HETATM   25  C   UNL     1      40.370 -15.067   0.832  1.00  0.00     0.034 C 
HETATM   26  C   UNL     1      40.029 -13.585   0.882  1.00  0.00     0.010 C 
ENDBRANCH   1  25
TORSDOF 3
ENDMDL
