MODEL 1
REMARK VINA RESULT:      -9.0      0.000      0.000
REMARK  5 active torsions:
REMARK  status: ('A' for Active; 'I' for Inactive)
REMARK    1  A    between atoms: C_4  and  C_5 
REMARK    2  A    between atoms: C_5  and  C_6 
REMARK    3  A    between atoms: C_10  and  C_11 
REMARK       I    between atoms: C_11  and  N_12 
REMARK    4  A    between atoms: N_12  and  N_13 
REMARK    5  A    between atoms: N_13  and  C_14 
ROOT
HETATM    1  C   UNL     1      42.145 -15.996   3.392  1.00  0.00     0.033 A 
HETATM    2  C   UNL     1      40.772 -16.111   3.517  1.00  0.00     0.104 A 
HETATM    3  N   UNL     1      40.335 -15.158   4.398  1.00  0.00    -0.360 N 
HETATM    4  H   UNL     1      39.373 -15.001   4.676  1.00  0.00     0.165 HD
HETATM    5  C   UNL     1      41.395 -14.415   4.869  1.00  0.00     0.102 A 
HETATM    6  C   UNL     1      42.532 -14.943   4.278  1.00  0.00     0.052 A 
ENDROOT
BRANCH   5   7
HETATM    7  C   UNL     1      41.198 -13.317   5.789  1.00  0.00     0.282 C 
HETATM    8  N   UNL     1      42.216 -12.385   5.837  1.00  0.00    -0.280 N 
HETATM    9  H   UNL     1      43.162 -12.628   5.547  1.00  0.00     0.184 HD
HETATM   10  O   UNL     1      40.188 -13.215   6.488  1.00  0.00    -0.265 OA
BRANCH   8  11
HETATM   11  N   UNL     1      42.147 -11.402   6.859  1.00  0.00    -0.186 NA
HETATM   12  H   UNL     1      41.576 -11.744   7.639  1.00  0.00     0.154 HD
BRANCH  11  13
HETATM   13  C   UNL     1      43.438 -11.035   7.317  1.00  0.00     0.122 A 
HETATM   14  N   UNL     1      43.581 -10.485   8.545  1.00  0.00    -0.223 NA
HETATM   15  C   UNL     1      44.836 -10.202   8.946  1.00  0.00     0.128 A 
HETATM   16 CL   UNL     1      44.941  -9.493  10.504  1.00  0.00    -0.062 Cl
HETATM   17  C   UNL     1      45.977 -10.446   8.202  1.00  0.00     0.044 A 
HETATM   18  C   UNL     1      45.818 -11.027   6.951  1.00  0.00     0.007 A 
HETATM   19  C   UNL     1      44.534 -11.329   6.504  1.00  0.00     0.046 A 
ENDBRANCH  11  13
ENDBRANCH   8  11
ENDBRANCH   5   7
BRANCH   1  20
HETATM   20  C   UNL     1      43.049 -16.803   2.573  1.00  0.00     0.193 C 
HETATM   21  O   UNL     1      43.518 -16.371   1.522  1.00  0.00    -0.287 OA
BRANCH  20  22
HETATM   22  C   UNL     1      43.409 -18.182   2.997  1.00  0.00     0.015 A 
HETATM   23  C   UNL     1      43.187 -19.236   2.101  1.00  0.00     0.015 A 
HETATM   24  C   UNL     1      43.478 -20.549   2.476  1.00  0.00     0.001 A 
HETATM   25  C   UNL     1      43.979 -20.814   3.751  1.00  0.00     0.000 A 
HETATM   26  C   UNL     1      44.182 -19.771   4.655  1.00  0.00     0.001 A 
HETATM   27  C   UNL     1      43.891 -18.457   4.283  1.00  0.00     0.015 A 
ENDBRANCH  20  22
ENDBRANCH   1  20
TORSDOF 5
ENDMDL
MODEL 2
REMARK VINA RESULT:      -8.7      5.077      6.810
REMARK  5 active torsions:
REMARK  status: ('A' for Active; 'I' for Inactive)
REMARK    1  A    between atoms: C_4  and  C_5 
REMARK    2  A    between atoms: C_5  and  C_6 
REMARK    3  A    between atoms: C_10  and  C_11 
REMARK       I    between atoms: C_11  and  N_12 
REMARK    4  A    between atoms: N_12  and  N_13 
REMARK    5  A    between atoms: N_13  and  C_14 
ROOT
HETATM    1  C   UNL     1      42.377 -16.133   4.340  1.00  0.00     0.033 A 
HETATM    2  C   UNL     1      41.063 -16.350   4.715  1.00  0.00     0.104 A 
HETATM    3  N   UNL     1      40.285 -15.370   4.159  1.00  0.00    -0.360 N 
HETATM    4  H   UNL     1      39.280 -15.280   4.256  1.00  0.00     0.165 HD
HETATM    5  C   UNL     1      41.060 -14.498   3.427  1.00  0.00     0.102 A 
HETATM    6  C   UNL     1      42.367 -14.939   3.554  1.00  0.00     0.052 A 
ENDROOT
BRANCH   5   7
HETATM    7  C   UNL     1      40.474 -13.389   2.707  1.00  0.00     0.282 C 
HETATM    8  N   UNL     1      39.476 -13.717   1.809  1.00  0.00    -0.280 N 
HETATM    9  H   UNL     1      39.414 -14.656   1.416  1.00  0.00     0.184 HD
HETATM   10  O   UNL     1      40.838 -12.224   2.878  1.00  0.00    -0.265 OA
BRANCH   8  11
HETATM   11  N   UNL     1      39.013 -12.686   0.950  1.00  0.00    -0.186 NA
HETATM   12  H   UNL     1      39.294 -11.770   1.315  1.00  0.00     0.154 HD
BRANCH  11  13
HETATM   13  C   UNL     1      39.490 -12.857  -0.374  1.00  0.00     0.122 A 
HETATM   14  N   UNL     1      38.850 -13.704  -1.212  1.00  0.00    -0.223 NA
HETATM   15  C   UNL     1      39.319 -13.788  -2.473  1.00  0.00     0.128 A 
HETATM   16 CL   UNL     1      38.470 -14.892  -3.475  1.00  0.00    -0.062 Cl
HETATM   17  C   UNL     1      40.390 -13.065  -2.968  1.00  0.00     0.044 A 
HETATM   18  C   UNL     1      41.027 -12.186  -2.102  1.00  0.00     0.007 A 
HETATM   19  C   UNL     1      40.570 -12.077  -0.792  1.00  0.00     0.046 A 
ENDBRANCH  11  13
ENDBRANCH   8  11
ENDBRANCH   5   7
BRANCH   1  20
HETATM   20  C   UNL     1      43.560 -16.914   4.700  1.00  0.00     0.193 C 
HETATM   21  O   UNL     1      44.452 -16.440   5.399  1.00  0.00    -0.287 OA
BRANCH  20  22
HETATM   22  C   UNL     1      43.710 -18.310   4.208  1.00  0.00     0.015 A 
HETATM   23  C   UNL     1      43.503 -18.564   2.846  1.00  0.00     0.015 A 
HETATM   24  C   UNL     1      43.599 -19.867   2.353  1.00  0.00     0.001 A 
HETATM   25  C   UNL     1      43.889 -20.920   3.221  1.00  0.00     0.000 A 
HETATM   26  C   UNL     1      44.075 -20.676   4.581  1.00  0.00     0.001 A 
HETATM   27  C   UNL     1      43.979 -19.374   5.078  1.00  0.00     0.015 A 
ENDBRANCH  20  22
ENDBRANCH   1  20
TORSDOF 5
ENDMDL
MODEL 3
REMARK VINA RESULT:      -8.6      5.219      7.343
REMARK  5 active torsions:
REMARK  status: ('A' for Active; 'I' for Inactive)
REMARK    1  A    between atoms: C_4  and  C_5 
REMARK    2  A    between atoms: C_5  and  C_6 
REMARK    3  A    between atoms: C_10  and  C_11 
REMARK       I    between atoms: C_11  and  N_12 
REMARK    4  A    between atoms: N_12  and  N_13 
REMARK    5  A    between atoms: N_13  and  C_14 
ROOT
HETATM    1  C   UNL     1      42.372 -16.131   3.907  1.00  0.00     0.033 A 
HETATM    2  C   UNL     1      41.039 -16.122   4.277  1.00  0.00     0.104 A 
HETATM    3  N   UNL     1      40.368 -15.248   3.463  1.00  0.00    -0.360 N 
HETATM    4  H   UNL     1      39.376 -15.043   3.497  1.00  0.00     0.165 HD
HETATM    5  C   UNL     1      41.234 -14.670   2.562  1.00  0.00     0.102 A 
HETATM    6  C   UNL     1      42.489 -15.184   2.844  1.00  0.00     0.052 A 
ENDROOT
BRANCH   5   7
HETATM    7  C   UNL     1      40.769 -13.734   1.563  1.00  0.00     0.282 C 
HETATM    8  N   UNL     1      41.283 -13.908   0.292  1.00  0.00    -0.280 N 
HETATM    9  H   UNL     1      42.168 -14.393   0.147  1.00  0.00     0.184 HD
HETATM   10  O   UNL     1      39.967 -12.835   1.822  1.00  0.00    -0.265 OA
BRANCH   8  11
HETATM   11  N   UNL     1      41.000 -12.899  -0.666  1.00  0.00    -0.186 NA
HETATM   12  H   UNL     1      41.817 -12.742  -1.265  1.00  0.00     0.154 HD
BRANCH  11  13
HETATM   13  C   UNL     1      39.869 -13.230  -1.453  1.00  0.00     0.122 A 
HETATM   14  N   UNL     1      38.905 -12.303  -1.662  1.00  0.00    -0.223 NA
HETATM   15  C   UNL     1      37.877 -12.659  -2.459  1.00  0.00     0.128 A 
HETATM   16 CL   UNL     1      36.686 -11.442  -2.666  1.00  0.00    -0.062 Cl
HETATM   17  C   UNL     1      37.749 -13.887  -3.083  1.00  0.00     0.044 A 
HETATM   18  C   UNL     1      38.754 -14.822  -2.874  1.00  0.00     0.007 A 
HETATM   19  C   UNL     1      39.828 -14.489  -2.054  1.00  0.00     0.046 A 
ENDBRANCH  11  13
ENDBRANCH   8  11
ENDBRANCH   5   7
BRANCH   1  20
HETATM   20  C   UNL     1      43.467 -16.902   4.496  1.00  0.00     0.193 C 
HETATM   21  O   UNL     1      44.248 -16.394   5.298  1.00  0.00    -0.287 OA
BRANCH  20  22
HETATM   22  C   UNL     1      43.663 -18.327   4.120  1.00  0.00     0.015 A 
HETATM   23  C   UNL     1      43.430 -18.706   2.792  1.00  0.00     0.015 A 
HETATM   24  C   UNL     1      43.569 -20.042   2.409  1.00  0.00     0.001 A 
HETATM   25  C   UNL     1      43.927 -21.004   3.354  1.00  0.00     0.000 A 
HETATM   26  C   UNL     1      44.139 -20.636   4.682  1.00  0.00     0.001 A 
HETATM   27  C   UNL     1      44.001 -19.301   5.069  1.00  0.00     0.015 A 
ENDBRANCH  20  22
ENDBRANCH   1  20
TORSDOF 5
ENDMDL
MODEL 4
REMARK VINA RESULT:      -8.2      4.944      7.706
REMARK  5 active torsions:
REMARK  status: ('A' for Active; 'I' for Inactive)
REMARK    1  A    between atoms: C_4  and  C_5 
REMARK    2  A    between atoms: C_5  and  C_6 
REMARK    3  A    between atoms: C_10  and  C_11 
REMARK       I    between atoms: C_11  and  N_12 
REMARK    4  A    between atoms: N_12  and  N_13 
REMARK    5  A    between atoms: N_13  and  C_14 
ROOT
HETATM    1  C   UNL     1      39.885 -12.862   1.485  1.00  0.00     0.033 A 
HETATM    2  C   UNL     1      38.956 -12.992   2.503  1.00  0.00     0.104 A 
HETATM    3  N   UNL     1      39.538 -13.674   3.537  1.00  0.00    -0.360 N 
HETATM    4  H   UNL     1      39.098 -13.908   4.420  1.00  0.00     0.165 HD
HETATM    5  C   UNL     1      40.837 -14.008   3.224  1.00  0.00     0.102 A 
HETATM    6  C   UNL     1      41.060 -13.538   1.939  1.00  0.00     0.052 A 
ENDROOT
BRANCH   5   7
HETATM    7  C   UNL     1      41.686 -14.704   4.165  1.00  0.00     0.282 C 
HETATM    8  N   UNL     1      42.787 -15.339   3.623  1.00  0.00    -0.280 N 
HETATM    9  H   UNL     1      42.805 -15.611   2.641  1.00  0.00     0.184 HD
HETATM   10  O   UNL     1      41.448 -14.732   5.374  1.00  0.00    -0.265 OA
BRANCH   8  11
HETATM   11  N   UNL     1      43.534 -16.186   4.483  1.00  0.00    -0.186 NA
HETATM   12  H   UNL     1      43.117 -16.195   5.419  1.00  0.00     0.154 HD
BRANCH  11  13
HETATM   13  C   UNL     1      43.620 -17.505   3.969  1.00  0.00     0.122 A 
HETATM   14  N   UNL     1      44.011 -18.515   4.780  1.00  0.00    -0.223 NA
HETATM   15  C   UNL     1      44.026 -19.754   4.250  1.00  0.00     0.128 A 
HETATM   16 CL   UNL     1      44.548 -20.982   5.328  1.00  0.00    -0.062 Cl
HETATM   17  C   UNL     1      43.659 -20.063   2.952  1.00  0.00     0.044 A 
HETATM   18  C   UNL     1      43.242 -19.020   2.136  1.00  0.00     0.007 A 
HETATM   19  C   UNL     1      43.218 -17.726   2.651  1.00  0.00     0.046 A 
ENDBRANCH  11  13
ENDBRANCH   8  11
ENDBRANCH   5   7
BRANCH   1  20
HETATM   20  C   UNL     1      39.715 -12.217   0.183  1.00  0.00     0.193 C 
HETATM   21  O   UNL     1      40.070 -11.057  -0.008  1.00  0.00    -0.287 OA
BRANCH  20  22
HETATM   22  C   UNL     1      39.090 -12.962  -0.942  1.00  0.00     0.015 A 
HETATM   23  C   UNL     1      39.762 -14.076  -1.461  1.00  0.00     0.015 A 
HETATM   24  C   UNL     1      39.224 -14.779  -2.541  1.00  0.00     0.001 A 
HETATM   25  C   UNL     1      38.021 -14.364  -3.113  1.00  0.00     0.000 A 
HETATM   26  C   UNL     1      37.358 -13.243  -2.614  1.00  0.00     0.001 A 
HETATM   27  C   UNL     1      37.893 -12.537  -1.534  1.00  0.00     0.015 A 
ENDBRANCH  20  22
ENDBRANCH   1  20
TORSDOF 5
ENDMDL
MODEL 5
REMARK VINA RESULT:      -8.1      2.100      3.273
REMARK  5 active torsions:
REMARK  status: ('A' for Active; 'I' for Inactive)
REMARK    1  A    between atoms: C_4  and  C_5 
REMARK    2  A    between atoms: C_5  and  C_6 
REMARK    3  A    between atoms: C_10  and  C_11 
REMARK       I    between atoms: C_11  and  N_12 
REMARK    4  A    between atoms: N_12  and  N_13 
REMARK    5  A    between atoms: N_13  and  C_14 
ROOT
HETATM    1  C   UNL     1      42.346 -14.405   4.788  1.00  0.00     0.033 A 
HETATM    2  C   UNL     1      42.096 -13.274   4.031  1.00  0.00     0.104 A 
HETATM    3  N   UNL     1      42.905 -12.264   4.479  1.00  0.00    -0.360 N 
HETATM    4  H   UNL     1      42.945 -11.322   4.107  1.00  0.00     0.165 HD
HETATM    5  C   UNL     1      43.684 -12.701   5.528  1.00  0.00     0.102 A 
HETATM    6  C   UNL     1      43.327 -14.021   5.753  1.00  0.00     0.052 A 
ENDROOT
BRANCH   5   7
HETATM    7  C   UNL     1      44.654 -11.835   6.160  1.00  0.00     0.282 C 
HETATM    8  N   UNL     1      44.690 -11.882   7.541  1.00  0.00    -0.280 N 
HETATM    9  H   UNL     1      43.882 -12.200   8.075  1.00  0.00     0.184 HD
HETATM   10  O   UNL     1      45.402 -11.099   5.514  1.00  0.00    -0.265 OA
BRANCH   8  11
HETATM   11  N   UNL     1      45.490 -10.913   8.202  1.00  0.00    -0.186 NA
HETATM   12  H   UNL     1      45.961 -10.317   7.514  1.00  0.00     0.154 HD
BRANCH  11  13
HETATM   13  C   UNL     1      44.722 -10.125   9.095  1.00  0.00     0.122 A 
HETATM   14  N   UNL     1      44.249 -10.676  10.236  1.00  0.00    -0.223 NA
HETATM   15  C   UNL     1      43.567  -9.865  11.070  1.00  0.00     0.128 A 
HETATM   16 CL   UNL     1      42.984 -10.634  12.488  1.00  0.00    -0.062 Cl
HETATM   17  C   UNL     1      43.334  -8.519  10.848  1.00  0.00     0.044 A 
HETATM   18  C   UNL     1      43.840  -7.962   9.682  1.00  0.00     0.007 A 
HETATM   19  C   UNL     1      44.546  -8.772   8.796  1.00  0.00     0.046 A 
ENDBRANCH  11  13
ENDBRANCH   8  11
ENDBRANCH   5   7
BRANCH   1  20
HETATM   20  C   UNL     1      41.716 -15.721   4.680  1.00  0.00     0.193 C 
HETATM   21  O   UNL     1      40.578 -15.922   5.098  1.00  0.00    -0.287 OA
BRANCH  20  22
HETATM   22  C   UNL     1      42.457 -16.854   4.066  1.00  0.00     0.015 A 
HETATM   23  C   UNL     1      43.370 -17.563   4.858  1.00  0.00     0.015 A 
HETATM   24  C   UNL     1      44.111 -18.610   4.307  1.00  0.00     0.001 A 
HETATM   25  C   UNL     1      43.952 -18.944   2.961  1.00  0.00     0.000 A 
HETATM   26  C   UNL     1      43.060 -18.228   2.163  1.00  0.00     0.001 A 
HETATM   27  C   UNL     1      42.318 -17.180   2.710  1.00  0.00     0.015 A 
ENDBRANCH  20  22
ENDBRANCH   1  20
TORSDOF 5
ENDMDL
MODEL 6
REMARK VINA RESULT:      -8.1      2.626      3.551
REMARK  5 active torsions:
REMARK  status: ('A' for Active; 'I' for Inactive)
REMARK    1  A    between atoms: C_4  and  C_5 
REMARK    2  A    between atoms: C_5  and  C_6 
REMARK    3  A    between atoms: C_10  and  C_11 
REMARK       I    between atoms: C_11  and  N_12 
REMARK    4  A    between atoms: N_12  and  N_13 
REMARK    5  A    between atoms: N_13  and  C_14 
ROOT
HETATM    1  C   UNL     1      43.063 -15.735   6.459  1.00  0.00     0.033 A 
HETATM    2  C   UNL     1      41.886 -15.027   6.620  1.00  0.00     0.104 A 
HETATM    3  N   UNL     1      42.198 -13.716   6.865  1.00  0.00    -0.360 N 
HETATM    4  H   UNL     1      41.535 -12.964   7.015  1.00  0.00     0.165 HD
HETATM    5  C   UNL     1      43.563 -13.541   6.876  1.00  0.00     0.102 A 
HETATM    6  C   UNL     1      44.118 -14.791   6.657  1.00  0.00     0.052 A 
ENDROOT
BRANCH   5   7
HETATM    7  C   UNL     1      44.156 -12.237   7.078  1.00  0.00     0.282 C 
HETATM    8  N   UNL     1      43.549 -11.444   8.033  1.00  0.00    -0.280 N 
HETATM    9  H   UNL     1      42.578 -11.596   8.301  1.00  0.00     0.184 HD
HETATM   10  O   UNL     1      45.138 -11.852   6.441  1.00  0.00    -0.265 OA
BRANCH   8  11
HETATM   11  N   UNL     1      43.981 -10.094   8.124  1.00  0.00    -0.186 NA
HETATM   12  H   UNL     1      43.541  -9.533   7.388  1.00  0.00     0.154 HD
BRANCH  11  13
HETATM   13  C   UNL     1      43.699  -9.542   9.399  1.00  0.00     0.122 A 
HETATM   14  N   UNL     1      43.335  -8.243   9.500  1.00  0.00    -0.223 NA
HETATM   15  C   UNL     1      43.031  -7.786  10.731  1.00  0.00     0.128 A 
HETATM   16 CL   UNL     1      42.595  -6.128  10.786  1.00  0.00    -0.062 Cl
HETATM   17  C   UNL     1      43.051  -8.550  11.885  1.00  0.00     0.044 A 
HETATM   18  C   UNL     1      43.408  -9.886  11.765  1.00  0.00     0.007 A 
HETATM   19  C   UNL     1      43.732 -10.390  10.508  1.00  0.00     0.046 A 
ENDBRANCH  11  13
ENDBRANCH   8  11
ENDBRANCH   5   7
BRANCH   1  20
HETATM   20  C   UNL     1      43.229 -17.164   6.192  1.00  0.00     0.193 C 
HETATM   21  O   UNL     1      43.375 -17.973   7.105  1.00  0.00    -0.287 OA
BRANCH  20  22
HETATM   22  C   UNL     1      43.235 -17.665   4.791  1.00  0.00     0.015 A 
HETATM   23  C   UNL     1      43.868 -18.885   4.521  1.00  0.00     0.015 A 
HETATM   24  C   UNL     1      43.926 -19.370   3.213  1.00  0.00     0.001 A 
HETATM   25  C   UNL     1      43.364 -18.632   2.171  1.00  0.00     0.000 A 
HETATM   26  C   UNL     1      42.752 -17.406   2.431  1.00  0.00     0.001 A 
HETATM   27  C   UNL     1      42.692 -16.918   3.737  1.00  0.00     0.015 A 
ENDBRANCH  20  22
ENDBRANCH   1  20
TORSDOF 5
ENDMDL
MODEL 7
REMARK VINA RESULT:      -8.0      5.074      6.933
REMARK  5 active torsions:
REMARK  status: ('A' for Active; 'I' for Inactive)
REMARK    1  A    between atoms: C_4  and  C_5 
REMARK    2  A    between atoms: C_5  and  C_6 
REMARK    3  A    between atoms: C_10  and  C_11 
REMARK       I    between atoms: C_11  and  N_12 
REMARK    4  A    between atoms: N_12  and  N_13 
REMARK    5  A    between atoms: N_13  and  C_14 
ROOT
HETATM    1  C   UNL     1      42.902 -15.932   3.514  1.00  0.00     0.033 A 
HETATM    2  C   UNL     1      43.237 -15.468   2.255  1.00  0.00     0.104 A 
HETATM    3  N   UNL     1      42.241 -14.636   1.819  1.00  0.00    -0.360 N 
HETATM    4  H   UNL     1      42.219 -14.144   0.933  1.00  0.00     0.165 HD
HETATM    5  C   UNL     1      41.243 -14.544   2.765  1.00  0.00     0.102 A 
HETATM    6  C   UNL     1      41.623 -15.368   3.812  1.00  0.00     0.052 A 
ENDROOT
BRANCH   5   7
HETATM    7  C   UNL     1      40.089 -13.697   2.564  1.00  0.00     0.282 C 
HETATM    8  N   UNL     1      39.599 -13.646   1.273  1.00  0.00    -0.280 N 
HETATM    9  H   UNL     1      40.194 -13.873   0.478  1.00  0.00     0.184 HD
HETATM   10  O   UNL     1      39.571 -13.058   3.482  1.00  0.00    -0.265 OA
BRANCH   8  11
HETATM   11  N   UNL     1      38.591 -12.684   1.000  1.00  0.00    -0.186 NA
HETATM   12  H   UNL     1      38.648 -11.913   1.673  1.00  0.00     0.154 HD
BRANCH  11  13
HETATM   13  C   UNL     1      38.688 -12.191  -0.325  1.00  0.00     0.122 A 
HETATM   14  N   UNL     1      39.800 -12.441  -1.053  1.00  0.00    -0.223 NA
HETATM   15  C   UNL     1      39.816 -11.990  -2.323  1.00  0.00     0.128 A 
HETATM   16 CL   UNL     1      41.263 -12.328  -3.180  1.00  0.00    -0.062 Cl
HETATM   17  C   UNL     1      38.777 -11.308  -2.932  1.00  0.00     0.044 A 
HETATM   18  C   UNL     1      37.634 -11.073  -2.180  1.00  0.00     0.007 A 
HETATM   19  C   UNL     1      37.586 -11.523  -0.863  1.00  0.00     0.046 A 
ENDBRANCH  11  13
ENDBRANCH   8  11
ENDBRANCH   5   7
BRANCH   1  20
HETATM   20  C   UNL     1      43.655 -16.850   4.368  1.00  0.00     0.193 C 
HETATM   21  O   UNL     1      44.268 -16.450   5.355  1.00  0.00    -0.287 OA
BRANCH  20  22
HETATM   22  C   UNL     1      43.703 -18.301   4.044  1.00  0.00     0.015 A 
HETATM   23  C   UNL     1      44.042 -19.203   5.060  1.00  0.00     0.015 A 
HETATM   24  C   UNL     1      44.132 -20.568   4.785  1.00  0.00     0.001 A 
HETATM   25  C   UNL     1      43.897 -21.036   3.492  1.00  0.00     0.000 A 
HETATM   26  C   UNL     1      43.579 -20.141   2.471  1.00  0.00     0.001 A 
HETATM   27  C   UNL     1      43.489 -18.774   2.742  1.00  0.00     0.015 A 
ENDBRANCH  20  22
ENDBRANCH   1  20
TORSDOF 5
ENDMDL
MODEL 8
REMARK VINA RESULT:      -8.0      1.677      2.014
REMARK  5 active torsions:
REMARK  status: ('A' for Active; 'I' for Inactive)
REMARK    1  A    between atoms: C_4  and  C_5 
REMARK    2  A    between atoms: C_5  and  C_6 
REMARK    3  A    between atoms: C_10  and  C_11 
REMARK       I    between atoms: C_11  and  N_12 
REMARK    4  A    between atoms: N_12  and  N_13 
REMARK    5  A    between atoms: N_13  and  C_14 
ROOT
HETATM    1  C   UNL     1      42.345 -14.603   3.131  1.00  0.00     0.033 A 
HETATM    2  C   UNL     1      43.299 -13.822   2.504  1.00  0.00     0.104 A 
HETATM    3  N   UNL     1      43.375 -12.621   3.157  1.00  0.00    -0.360 N 
HETATM    4  H   UNL     1      43.995 -11.854   2.924  1.00  0.00     0.165 HD
HETATM    5  C   UNL     1      42.481 -12.585   4.204  1.00  0.00     0.102 A 
HETATM    6  C   UNL     1      41.810 -13.797   4.184  1.00  0.00     0.052 A 
ENDROOT
BRANCH   5   7
HETATM    7  C   UNL     1      42.387 -11.437   5.078  1.00  0.00     0.282 C 
HETATM    8  N   UNL     1      42.423 -11.709   6.432  1.00  0.00    -0.280 N 
HETATM    9  H   UNL     1      42.165 -12.629   6.788  1.00  0.00     0.184 HD
HETATM   10  O   UNL     1      42.281 -10.287   4.648  1.00  0.00    -0.265 OA
BRANCH   8  11
HETATM   11  N   UNL     1      42.143 -10.635   7.317  1.00  0.00    -0.186 NA
HETATM   12  H   UNL     1      41.328 -10.859   7.898  1.00  0.00     0.154 HD
BRANCH  11  13
HETATM   13  C   UNL     1      43.260 -10.327   8.133  1.00  0.00     0.122 A 
HETATM   14  N   UNL     1      43.069  -9.731   9.332  1.00  0.00    -0.223 NA
HETATM   15  C   UNL     1      44.165  -9.508  10.086  1.00  0.00     0.128 A 
HETATM   16 CL   UNL     1      43.849  -8.735  11.585  1.00  0.00    -0.062 Cl
HETATM   17  C   UNL     1      45.455  -9.856   9.728  1.00  0.00     0.044 A 
HETATM   18  C   UNL     1      45.635 -10.484   8.503  1.00  0.00     0.007 A 
HETATM   19  C   UNL     1      44.525 -10.726   7.697  1.00  0.00     0.046 A 
ENDBRANCH  11  13
ENDBRANCH   8  11
ENDBRANCH   5   7
BRANCH   1  20
HETATM   20  C   UNL     1      41.913 -15.956   2.782  1.00  0.00     0.193 C 
HETATM   21  O   UNL     1      40.866 -16.157   2.172  1.00  0.00    -0.287 OA
BRANCH  20  22
HETATM   22  C   UNL     1      42.740 -17.128   3.176  1.00  0.00     0.015 A 
HETATM   23  C   UNL     1      42.874 -18.187   2.269  1.00  0.00     0.015 A 
HETATM   24  C   UNL     1      43.612 -19.320   2.617  1.00  0.00     0.001 A 
HETATM   25  C   UNL     1      44.208 -19.403   3.875  1.00  0.00     0.000 A 
HETATM   26  C   UNL     1      44.060 -18.362   4.790  1.00  0.00     0.001 A 
HETATM   27  C   UNL     1      43.322 -17.227   4.447  1.00  0.00     0.015 A 
ENDBRANCH  20  22
ENDBRANCH   1  20
TORSDOF 5
ENDMDL
MODEL 9
REMARK VINA RESULT:      -7.8      2.161      3.037
REMARK  5 active torsions:
REMARK  status: ('A' for Active; 'I' for Inactive)
REMARK    1  A    between atoms: C_4  and  C_5 
REMARK    2  A    between atoms: C_5  and  C_6 
REMARK    3  A    between atoms: C_10  and  C_11 
REMARK       I    between atoms: C_11  and  N_12 
REMARK    4  A    between atoms: N_12  and  N_13 
REMARK    5  A    between atoms: N_13  and  C_14 
ROOT
HETATM    1  C   UNL     1      42.199 -14.599   4.894  1.00  0.00     0.033 A 
HETATM    2  C   UNL     1      41.819 -14.481   6.219  1.00  0.00     0.104 A 
HETATM    3  N   UNL     1      42.487 -13.420   6.769  1.00  0.00    -0.360 N 
HETATM    4  H   UNL     1      42.400 -13.092   7.724  1.00  0.00     0.165 HD
HETATM    5  C   UNL     1      43.312 -12.834   5.835  1.00  0.00     0.102 A 
HETATM    6  C   UNL     1      43.169 -13.573   4.672  1.00  0.00     0.052 A 
ENDROOT
BRANCH   5   7
HETATM    7  C   UNL     1      44.104 -11.667   6.154  1.00  0.00     0.282 C 
HETATM    8  N   UNL     1      43.873 -11.106   7.396  1.00  0.00    -0.280 N 
HETATM    9  H   UNL     1      42.991 -11.258   7.883  1.00  0.00     0.184 HD
HETATM   10  O   UNL     1      44.933 -11.198   5.372  1.00  0.00    -0.265 OA
BRANCH   8  11
HETATM   11  N   UNL     1      44.489  -9.856   7.667  1.00  0.00    -0.186 NA
HETATM   12  H   UNL     1      44.381  -9.228   6.864  1.00  0.00     0.154 HD
BRANCH  11  13
HETATM   13  C   UNL     1      43.958  -9.256   8.836  1.00  0.00     0.122 A 
HETATM   14  N   UNL     1      43.730 -10.015   9.933  1.00  0.00    -0.223 NA
HETATM   15  C   UNL     1      43.270  -9.382  11.031  1.00  0.00     0.128 A 
HETATM   16 CL   UNL     1      42.988 -10.407  12.376  1.00  0.00    -0.062 Cl
HETATM   17  C   UNL     1      43.033  -8.021  11.117  1.00  0.00     0.044 A 
HETATM   18  C   UNL     1      43.288  -7.251   9.990  1.00  0.00     0.007 A 
HETATM   19  C   UNL     1      43.760  -7.874   8.838  1.00  0.00     0.046 A 
ENDBRANCH  11  13
ENDBRANCH   8  11
ENDBRANCH   5   7
BRANCH   1  20
HETATM   20  C   UNL     1      41.758 -15.589   3.912  1.00  0.00     0.193 C 
HETATM   21  O   UNL     1      40.698 -15.459   3.303  1.00  0.00    -0.287 OA
BRANCH  20  22
HETATM   22  C   UNL     1      42.588 -16.793   3.640  1.00  0.00     0.015 A 
HETATM   23  C   UNL     1      42.346 -17.522   2.469  1.00  0.00     0.015 A 
HETATM   24  C   UNL     1      43.081 -18.677   2.197  1.00  0.00     0.001 A 
HETATM   25  C   UNL     1      44.050 -19.115   3.100  1.00  0.00     0.000 A 
HETATM   26  C   UNL     1      44.280 -18.405   4.278  1.00  0.00     0.001 A 
HETATM   27  C   UNL     1      43.548 -17.249   4.554  1.00  0.00     0.015 A 
ENDBRANCH  20  22
ENDBRANCH   1  20
TORSDOF 5
ENDMDL
MODEL 10
REMARK VINA RESULT:      -7.8      5.732      7.283
REMARK  5 active torsions:
REMARK  status: ('A' for Active; 'I' for Inactive)
REMARK    1  A    between atoms: C_4  and  C_5 
REMARK    2  A    between atoms: C_5  and  C_6 
REMARK    3  A    between atoms: C_10  and  C_11 
REMARK       I    between atoms: C_11  and  N_12 
REMARK    4  A    between atoms: N_12  and  N_13 
REMARK    5  A    between atoms: N_13  and  C_14 
ROOT
HETATM    1  C   UNL     1      41.485 -15.398   2.310  1.00  0.00     0.033 A 
HETATM    2  C   UNL     1      40.120 -15.566   2.467  1.00  0.00     0.104 A 
HETATM    3  N   UNL     1      39.497 -15.156   1.319  1.00  0.00    -0.360 N 
HETATM    4  H   UNL     1      38.499 -15.172   1.144  1.00  0.00     0.165 HD
HETATM    5  C   UNL     1      40.423 -14.712   0.401  1.00  0.00     0.102 A 
HETATM    6  C   UNL     1      41.661 -14.826   1.012  1.00  0.00     0.052 A 
ENDROOT
BRANCH   5   7
HETATM    7  C   UNL     1      40.026 -14.257  -0.913  1.00  0.00     0.282 C 
HETATM    8  N   UNL     1      40.918 -13.418  -1.552  1.00  0.00    -0.280 N 
HETATM    9  H   UNL     1      41.599 -12.876  -1.022  1.00  0.00     0.184 HD
HETATM   10  O   UNL     1      38.960 -14.593  -1.434  1.00  0.00    -0.265 OA
BRANCH   8  11
HETATM   11  N   UNL     1      40.481 -12.802  -2.755  1.00  0.00    -0.186 NA
HETATM   12  H   UNL     1      39.575 -13.189  -3.040  1.00  0.00     0.154 HD
BRANCH  11  13
HETATM   13  C   UNL     1      40.395 -11.394  -2.617  1.00  0.00     0.122 A 
HETATM   14  N   UNL     1      41.381 -10.723  -1.979  1.00  0.00    -0.223 NA
HETATM   15  C   UNL     1      41.270  -9.380  -1.921  1.00  0.00     0.128 A 
HETATM   16 CL   UNL     1      42.546  -8.597  -1.084  1.00  0.00    -0.062 Cl
HETATM   17  C   UNL     1      40.235  -8.649  -2.477  1.00  0.00     0.044 A 
HETATM   18  C   UNL     1      39.239  -9.348  -3.145  1.00  0.00     0.007 A 
HETATM   19  C   UNL     1      39.321 -10.736  -3.219  1.00  0.00     0.046 A 
ENDBRANCH  11  13
ENDBRANCH   8  11
ENDBRANCH   5   7
BRANCH   1  20
HETATM   20  C   UNL     1      42.547 -15.689   3.272  1.00  0.00     0.193 C 
HETATM   21  O   UNL     1      43.054 -14.802   3.954  1.00  0.00    -0.287 OA
BRANCH  20  22
HETATM   22  C   UNL     1      43.048 -17.080   3.433  1.00  0.00     0.015 A 
HETATM   23  C   UNL     1      43.608 -17.451   4.662  1.00  0.00     0.015 A 
HETATM   24  C   UNL     1      44.121 -18.738   4.839  1.00  0.00     0.001 A 
HETATM   25  C   UNL     1      44.089 -19.652   3.786  1.00  0.00     0.000 A 
HETATM   26  C   UNL     1      43.553 -19.281   2.553  1.00  0.00     0.001 A 
HETATM   27  C   UNL     1      43.038 -17.996   2.372  1.00  0.00     0.015 A 
ENDBRANCH  20  22
ENDBRANCH   1  20
TORSDOF 5
ENDMDL
