MODEL 1
REMARK VINA RESULT:      -8.4      0.000      0.000
REMARK  3 active torsions:
REMARK  status: ('A' for Active; 'I' for Inactive)
REMARK    1  A    between atoms: C_5  and  N_6 
REMARK       I    between atoms: N_6  and  C_7 
REMARK    2  A    between atoms: C_7  and  C_8 
REMARK    3  A    between atoms: C_8  and  C_9 
ROOT
HETATM    1  C   UNL     1      40.699 -13.741   5.630  1.00  0.00     0.286 C 
HETATM    2  N   UNL     1      40.251 -14.796   4.609  1.00  0.00    -0.056 N 
HETATM    3  H   UNL     1      40.736 -15.685   4.808  1.00  0.00     0.278 HD
HETATM    4  H   UNL     1      39.246 -14.974   4.738  1.00  0.00     0.278 HD
HETATM    5  C   UNL     1      40.521 -14.451   3.165  1.00  0.00     0.209 C 
HETATM    6  C   UNL     1      40.013 -13.030   2.861  1.00  0.00     0.115 C 
HETATM    7  N   UNL     1      40.557 -12.054   3.787  1.00  0.00    -0.353 N 
HETATM    8  C   UNL     1      40.759 -12.288   5.119  1.00  0.00     0.249 C 
HETATM    9  O   UNL     1      41.057 -11.361   5.867  1.00  0.00    -0.271 OA
HETATM   10  C   UNL     1      39.848 -15.474   2.255  1.00  0.00     0.035 C 
HETATM   11  C   UNL     1      40.132 -15.138   0.791  1.00  0.00     0.002 C 
HETATM   12  C   UNL     1      39.761 -13.696   0.439  1.00  0.00     0.002 C 
HETATM   13  C   UNL     1      40.358 -12.676   1.411  1.00  0.00     0.027 C 
HETATM   14  H   UNL     1      40.560 -11.068   3.530  1.00  0.00     0.163 HD
ENDROOT
BRANCH   1  15
HETATM   15  C   UNL     1      42.025 -14.116   6.304  1.00  0.00     0.146 C 
BRANCH  15  16
HETATM   16  C   UNL     1      42.302 -15.576   6.058  1.00  0.00     0.224 C 
HETATM   17  N   UNL     1      43.307 -15.799   5.144  1.00  0.00    -0.327 N 
HETATM   18  H   UNL     1      43.941 -15.032   4.932  1.00  0.00     0.169 HD
HETATM   19  O   UNL     1      41.519 -16.396   6.531  1.00  0.00    -0.273 OA
BRANCH  17  20
HETATM   20  C   UNL     1      43.519 -16.966   4.379  1.00  0.00     0.034 A 
HETATM   21  C   UNL     1      44.092 -18.137   4.879  1.00  0.00     0.030 A 
HETATM   22  C   UNL     1      44.173 -19.284   4.081  1.00  0.00     0.009 A 
HETATM   23  C   UNL     1      43.702 -19.273   2.765  1.00  0.00    -0.062 A 
HETATM   24  C   UNL     1      43.746 -20.518   1.927  1.00  0.00     0.048 C 
HETATM   25  C   UNL     1      43.139 -18.098   2.259  1.00  0.00     0.009 A 
HETATM   26  C   UNL     1      43.055 -16.953   3.059  1.00  0.00     0.030 A 
ENDBRANCH  17  20
ENDBRANCH  15  16
ENDBRANCH   1  15
TORSDOF 3
ENDMDL
MODEL 2
REMARK VINA RESULT:      -8.2      3.073      4.955
REMARK  3 active torsions:
REMARK  status: ('A' for Active; 'I' for Inactive)
REMARK    1  A    between atoms: C_5  and  N_6 
REMARK       I    between atoms: N_6  and  C_7 
REMARK    2  A    between atoms: C_7  and  C_8 
REMARK    3  A    between atoms: C_8  and  C_9 
ROOT
HETATM    1  C   UNL     1      43.330 -13.268   6.310  1.00  0.00     0.286 C 
HETATM    2  N   UNL     1      44.628 -12.593   6.775  1.00  0.00    -0.056 N 
HETATM    3  H   UNL     1      45.205 -13.286   7.279  1.00  0.00     0.278 HD
HETATM    4  H   UNL     1      45.167 -12.308   5.947  1.00  0.00     0.278 HD
HETATM    5  C   UNL     1      44.447 -11.409   7.691  1.00  0.00     0.209 C 
HETATM    6  C   UNL     1      43.416 -10.434   7.092  1.00  0.00     0.115 C 
HETATM    7  N   UNL     1      42.166 -11.101   6.775  1.00  0.00    -0.353 N 
HETATM    8  C   UNL     1      42.079 -12.368   6.270  1.00  0.00     0.249 C 
HETATM    9  O   UNL     1      41.000 -12.794   5.865  1.00  0.00    -0.271 OA
HETATM   10  C   UNL     1      45.788 -10.714   7.908  1.00  0.00     0.035 C 
HETATM   11  C   UNL     1      45.613  -9.521   8.849  1.00  0.00     0.002 C 
HETATM   12  C   UNL     1      44.516  -8.562   8.380  1.00  0.00     0.002 C 
HETATM   13  C   UNL     1      43.199  -9.275   8.069  1.00  0.00     0.027 C 
HETATM   14  H   UNL     1      41.318 -10.548   6.669  1.00  0.00     0.163 HD
ENDROOT
BRANCH   1  15
HETATM   15  C   UNL     1      43.030 -14.549   7.096  1.00  0.00     0.146 C 
BRANCH  15  16
HETATM   16  C   UNL     1      43.722 -15.707   6.426  1.00  0.00     0.224 C 
HETATM   17  N   UNL     1      43.466 -15.795   5.076  1.00  0.00    -0.327 N 
HETATM   18  H   UNL     1      43.095 -14.973   4.604  1.00  0.00     0.169 HD
HETATM   19  O   UNL     1      44.274 -16.538   7.142  1.00  0.00    -0.273 OA
BRANCH  17  20
HETATM   20  C   UNL     1      43.575 -16.942   4.260  1.00  0.00     0.034 A 
HETATM   21  C   UNL     1      44.259 -18.102   4.630  1.00  0.00     0.030 A 
HETATM   22  C   UNL     1      44.233 -19.232   3.805  1.00  0.00     0.009 A 
HETATM   23  C   UNL     1      43.541 -19.216   2.591  1.00  0.00    -0.062 A 
HETATM   24  C   UNL     1      43.475 -20.446   1.732  1.00  0.00     0.048 C 
HETATM   25  C   UNL     1      42.866 -18.052   2.215  1.00  0.00     0.009 A 
HETATM   26  C   UNL     1      42.889 -16.923   3.041  1.00  0.00     0.030 A 
ENDBRANCH  17  20
ENDBRANCH  15  16
ENDBRANCH   1  15
TORSDOF 3
ENDMDL
MODEL 3
REMARK VINA RESULT:      -7.9      1.550      6.013
REMARK  3 active torsions:
REMARK  status: ('A' for Active; 'I' for Inactive)
REMARK    1  A    between atoms: C_5  and  N_6 
REMARK       I    between atoms: N_6  and  C_7 
REMARK    2  A    between atoms: C_7  and  C_8 
REMARK    3  A    between atoms: C_8  and  C_9 
ROOT
HETATM    1  C   UNL     1      43.416 -16.145   5.474  1.00  0.00     0.286 C 
HETATM    2  N   UNL     1      43.547 -16.662   4.034  1.00  0.00    -0.056 N 
HETATM    3  H   UNL     1      42.887 -16.146   3.431  1.00  0.00     0.278 HD
HETATM    4  H   UNL     1      44.492 -16.446   3.691  1.00  0.00     0.278 HD
HETATM    5  C   UNL     1      43.267 -18.133   3.850  1.00  0.00     0.209 C 
HETATM    6  C   UNL     1      44.061 -18.952   4.883  1.00  0.00     0.115 C 
HETATM    7  N   UNL     1      43.813 -18.495   6.238  1.00  0.00    -0.353 N 
HETATM    8  C   UNL     1      43.652 -17.184   6.588  1.00  0.00     0.249 C 
HETATM    9  O   UNL     1      43.621 -16.865   7.775  1.00  0.00    -0.271 OA
HETATM   10  C   UNL     1      43.631 -18.553   2.429  1.00  0.00     0.035 C 
HETATM   11  C   UNL     1      43.334 -20.040   2.231  1.00  0.00     0.002 C 
HETATM   12  C   UNL     1      43.996 -20.916   3.297  1.00  0.00     0.002 C 
HETATM   13  C   UNL     1      43.710 -20.435   4.720  1.00  0.00     0.027 C 
HETATM   14  H   UNL     1      44.016 -19.117   7.020  1.00  0.00     0.163 HD
ENDROOT
BRANCH   1  15
HETATM   15  C   UNL     1      42.088 -15.416   5.708  1.00  0.00     0.146 C 
BRANCH  15  16
HETATM   16  C   UNL     1      41.808 -14.520   4.531  1.00  0.00     0.224 C 
HETATM   17  N   UNL     1      40.593 -14.764   3.930  1.00  0.00    -0.327 N 
HETATM   18  H   UNL     1      39.896 -15.289   4.453  1.00  0.00     0.169 HD
HETATM   19  O   UNL     1      42.724 -13.814   4.117  1.00  0.00    -0.273 OA
BRANCH  17  20
HETATM   20  C   UNL     1      40.217 -14.443   2.607  1.00  0.00     0.034 A 
HETATM   21  C   UNL     1      39.909 -13.152   2.173  1.00  0.00     0.030 A 
HETATM   22  C   UNL     1      39.644 -12.903   0.822  1.00  0.00     0.009 A 
HETATM   23  C   UNL     1      39.664 -13.942  -0.114  1.00  0.00    -0.062 A 
HETATM   24  C   UNL     1      39.428 -13.663  -1.570  1.00  0.00     0.048 C 
HETATM   25  C   UNL     1      39.962 -15.236   0.322  1.00  0.00     0.009 A 
HETATM   26  C   UNL     1      40.230 -15.484   1.672  1.00  0.00     0.030 A 
ENDBRANCH  17  20
ENDBRANCH  15  16
ENDBRANCH   1  15
TORSDOF 3
ENDMDL
MODEL 4
REMARK VINA RESULT:      -7.5      4.370      7.443
REMARK  3 active torsions:
REMARK  status: ('A' for Active; 'I' for Inactive)
REMARK    1  A    between atoms: C_5  and  N_6 
REMARK       I    between atoms: N_6  and  C_7 
REMARK    2  A    between atoms: C_7  and  C_8 
REMARK    3  A    between atoms: C_8  and  C_9 
ROOT
HETATM    1  C   UNL     1      42.905 -12.565   4.782  1.00  0.00     0.286 C 
HETATM    2  N   UNL     1      42.661 -14.032   5.166  1.00  0.00    -0.056 N 
HETATM    3  H   UNL     1      43.102 -14.219   6.080  1.00  0.00     0.278 HD
HETATM    4  H   UNL     1      41.650 -14.176   5.292  1.00  0.00     0.278 HD
HETATM    5  C   UNL     1      43.198 -15.050   4.191  1.00  0.00     0.209 C 
HETATM    6  C   UNL     1      42.752 -14.696   2.761  1.00  0.00     0.115 C 
HETATM    7  N   UNL     1      43.109 -13.333   2.409  1.00  0.00    -0.353 N 
HETATM    8  C   UNL     1      43.055 -12.278   3.275  1.00  0.00     0.249 C 
HETATM    9  O   UNL     1      43.204 -11.132   2.857  1.00  0.00    -0.271 OA
HETATM   10  C   UNL     1      42.712 -16.444   4.581  1.00  0.00     0.035 C 
HETATM   11  C   UNL     1      43.267 -17.483   3.606  1.00  0.00     0.002 C 
HETATM   12  C   UNL     1      42.966 -17.135   2.146  1.00  0.00     0.002 C 
HETATM   13  C   UNL     1      43.364 -15.704   1.783  1.00  0.00     0.027 C 
HETATM   14  H   UNL     1      43.158 -13.068   1.427  1.00  0.00     0.163 HD
ENDROOT
BRANCH   1  15
HETATM   15  C   UNL     1      44.080 -11.954   5.555  1.00  0.00     0.146 C 
BRANCH  15  16
HETATM   16  C   UNL     1      43.705 -11.846   7.009  1.00  0.00     0.224 C 
HETATM   17  N   UNL     1      43.431 -10.558   7.413  1.00  0.00    -0.327 N 
HETATM   18  H   UNL     1      43.232  -9.863   6.697  1.00  0.00     0.169 HD
HETATM   19  O   UNL     1      43.852 -12.841   7.715  1.00  0.00    -0.273 OA
BRANCH  17  20
HETATM   20  C   UNL     1      43.481 -10.049   8.730  1.00  0.00     0.034 A 
HETATM   21  C   UNL     1      44.612 -10.103   9.546  1.00  0.00     0.030 A 
HETATM   22  C   UNL     1      44.610  -9.485  10.802  1.00  0.00     0.009 A 
HETATM   23  C   UNL     1      43.472  -8.821  11.269  1.00  0.00    -0.062 A 
HETATM   24  C   UNL     1      43.489  -8.118  12.595  1.00  0.00     0.048 C 
HETATM   25  C   UNL     1      42.336  -8.777  10.457  1.00  0.00     0.009 A 
HETATM   26  C   UNL     1      42.340  -9.392   9.201  1.00  0.00     0.030 A 
ENDBRANCH  17  20
ENDBRANCH  15  16
ENDBRANCH   1  15
TORSDOF 3
ENDMDL
MODEL 5
REMARK VINA RESULT:      -7.5      2.779      3.777
REMARK  3 active torsions:
REMARK  status: ('A' for Active; 'I' for Inactive)
REMARK    1  A    between atoms: C_5  and  N_6 
REMARK       I    between atoms: N_6  and  C_7 
REMARK    2  A    between atoms: C_7  and  C_8 
REMARK    3  A    between atoms: C_8  and  C_9 
ROOT
HETATM    1  C   UNL     1      40.656 -14.028   1.136  1.00  0.00     0.286 C 
HETATM    2  N   UNL     1      40.921 -13.936  -0.373  1.00  0.00    -0.056 N 
HETATM    3  H   UNL     1      41.938 -14.001  -0.541  1.00  0.00     0.278 HD
HETATM    4  H   UNL     1      40.494 -14.750  -0.834  1.00  0.00     0.278 HD
HETATM    5  C   UNL     1      40.438 -12.670  -1.036  1.00  0.00     0.209 C 
HETATM    6  C   UNL     1      38.975 -12.395  -0.640  1.00  0.00     0.115 C 
HETATM    7  N   UNL     1      38.802 -12.381   0.801  1.00  0.00    -0.353 N 
HETATM    8  C   UNL     1      39.452 -13.221   1.660  1.00  0.00     0.249 C 
HETATM    9  O   UNL     1      39.121 -13.265   2.843  1.00  0.00    -0.271 OA
HETATM   10  C   UNL     1      40.575 -12.795  -2.551  1.00  0.00     0.035 C 
HETATM   11  C   UNL     1      40.102 -11.508  -3.227  1.00  0.00     0.002 C 
HETATM   12  C   UNL     1      38.692 -11.103  -2.791  1.00  0.00     0.002 C 
HETATM   13  C   UNL     1      38.528 -11.072  -1.270  1.00  0.00     0.027 C 
HETATM   14  H   UNL     1      37.986 -11.920   1.201  1.00  0.00     0.163 HD
ENDROOT
BRANCH   1  15
HETATM   15  C   UNL     1      41.905 -13.705   1.964  1.00  0.00     0.146 C 
BRANCH  15  16
HETATM   16  C   UNL     1      42.784 -14.927   2.019  1.00  0.00     0.224 C 
HETATM   17  N   UNL     1      42.209 -15.990   2.678  1.00  0.00    -0.327 N 
HETATM   18  H   UNL     1      41.201 -15.978   2.818  1.00  0.00     0.169 HD
HETATM   19  O   UNL     1      43.951 -14.811   1.653  1.00  0.00    -0.273 OA
BRANCH  17  20
HETATM   20  C   UNL     1      42.874 -17.081   3.280  1.00  0.00     0.034 A 
HETATM   21  C   UNL     1      43.225 -17.135   4.629  1.00  0.00     0.030 A 
HETATM   22  C   UNL     1      43.792 -18.296   5.168  1.00  0.00     0.009 A 
HETATM   23  C   UNL     1      44.035 -19.413   4.363  1.00  0.00    -0.062 A 
HETATM   24  C   UNL     1      44.598 -20.673   4.954  1.00  0.00     0.048 C 
HETATM   25  C   UNL     1      43.694 -19.354   3.009  1.00  0.00     0.009 A 
HETATM   26  C   UNL     1      43.124 -18.196   2.472  1.00  0.00     0.030 A 
ENDBRANCH  17  20
ENDBRANCH  15  16
ENDBRANCH   1  15
TORSDOF 3
ENDMDL
MODEL 6
REMARK VINA RESULT:      -7.4      3.267      6.730
REMARK  3 active torsions:
REMARK  status: ('A' for Active; 'I' for Inactive)
REMARK    1  A    between atoms: C_5  and  N_6 
REMARK       I    between atoms: N_6  and  C_7 
REMARK    2  A    between atoms: C_7  and  C_8 
REMARK    3  A    between atoms: C_8  and  C_9 
ROOT
HETATM    1  C   UNL     1      41.655 -14.575   3.939  1.00  0.00     0.286 C 
HETATM    2  N   UNL     1      42.487 -15.538   4.799  1.00  0.00    -0.056 N 
HETATM    3  H   UNL     1      43.178 -14.994   5.340  1.00  0.00     0.278 HD
HETATM    4  H   UNL     1      41.866 -15.989   5.483  1.00  0.00     0.278 HD
HETATM    5  C   UNL     1      43.246 -16.593   4.034  1.00  0.00     0.209 C 
HETATM    6  C   UNL     1      42.307 -17.297   3.037  1.00  0.00     0.115 C 
HETATM    7  N   UNL     1      41.632 -16.347   2.172  1.00  0.00    -0.353 N 
HETATM    8  C   UNL     1      41.177 -15.125   2.581  1.00  0.00     0.249 C 
HETATM    9  O   UNL     1      40.464 -14.456   1.837  1.00  0.00    -0.271 OA
HETATM   10  C   UNL     1      43.855 -17.599   5.007  1.00  0.00     0.035 C 
HETATM   11  C   UNL     1      44.640 -18.662   4.238  1.00  0.00     0.002 C 
HETATM   12  C   UNL     1      43.804 -19.328   3.143  1.00  0.00     0.002 C 
HETATM   13  C   UNL     1      43.114 -18.316   2.226  1.00  0.00     0.027 C 
HETATM   14  H   UNL     1      41.235 -16.669   1.290  1.00  0.00     0.163 HD
ENDROOT
BRANCH   1  15
HETATM   15  C   UNL     1      42.355 -13.225   3.743  1.00  0.00     0.146 C 
BRANCH  15  16
HETATM   16  C   UNL     1      42.287 -12.448   5.031  1.00  0.00     0.224 C 
HETATM   17  N   UNL     1      43.313 -11.543   5.182  1.00  0.00    -0.327 N 
HETATM   18  H   UNL     1      43.840 -11.272   4.355  1.00  0.00     0.169 HD
HETATM   19  O   UNL     1      41.469 -12.806   5.874  1.00  0.00    -0.273 OA
BRANCH  17  20
HETATM   20  C   UNL     1      43.795 -10.995   6.392  1.00  0.00     0.034 A 
HETATM   21  C   UNL     1      43.009 -10.269   7.288  1.00  0.00     0.030 A 
HETATM   22  C   UNL     1      43.539  -9.847   8.513  1.00  0.00     0.009 A 
HETATM   23  C   UNL     1      44.866 -10.126   8.853  1.00  0.00    -0.062 A 
HETATM   24  C   UNL     1      45.416  -9.715  10.187  1.00  0.00     0.048 C 
HETATM   25  C   UNL     1      45.656 -10.843   7.950  1.00  0.00     0.009 A 
HETATM   26  C   UNL     1      45.125 -11.268   6.727  1.00  0.00     0.030 A 
ENDBRANCH  17  20
ENDBRANCH  15  16
ENDBRANCH   1  15
TORSDOF 3
ENDMDL
MODEL 7
REMARK VINA RESULT:      -7.4      2.153      6.556
REMARK  3 active torsions:
REMARK  status: ('A' for Active; 'I' for Inactive)
REMARK    1  A    between atoms: C_5  and  N_6 
REMARK       I    between atoms: N_6  and  C_7 
REMARK    2  A    between atoms: C_7  and  C_8 
REMARK    3  A    between atoms: C_8  and  C_9 
ROOT
HETATM    1  C   UNL     1      42.644 -15.084   3.549  1.00  0.00     0.286 C 
HETATM    2  N   UNL     1      42.805 -16.272   2.589  1.00  0.00    -0.056 N 
HETATM    3  H   UNL     1      41.999 -16.296   1.945  1.00  0.00     0.278 HD
HETATM    4  H   UNL     1      43.641 -16.119   2.011  1.00  0.00     0.278 HD
HETATM    5  C   UNL     1      42.890 -17.626   3.250  1.00  0.00     0.209 C 
HETATM    6  C   UNL     1      43.931 -17.593   4.384  1.00  0.00     0.115 C 
HETATM    7  N   UNL     1      43.666 -16.520   5.325  1.00  0.00    -0.353 N 
HETATM    8  C   UNL     1      43.206 -15.284   4.970  1.00  0.00     0.249 C 
HETATM    9  O   UNL     1      43.174 -14.379   5.801  1.00  0.00    -0.271 OA
HETATM   10  C   UNL     1      43.253 -18.684   2.212  1.00  0.00     0.035 C 
HETATM   11  C   UNL     1      43.325 -20.062   2.872  1.00  0.00     0.002 C 
HETATM   12  C   UNL     1      44.255 -20.079   4.088  1.00  0.00     0.002 C 
HETATM   13  C   UNL     1      43.952 -18.956   5.081  1.00  0.00     0.027 C 
HETATM   14  H   UNL     1      44.069 -16.566   6.260  1.00  0.00     0.163 HD
ENDROOT
BRANCH   1  15
HETATM   15  C   UNL     1      41.194 -14.591   3.621  1.00  0.00     0.146 C 
BRANCH  15  16
HETATM   16  C   UNL     1      40.522 -14.856   2.299  1.00  0.00     0.224 C 
HETATM   17  N   UNL     1      40.686 -13.839   1.385  1.00  0.00    -0.327 N 
HETATM   18  H   UNL     1      41.431 -13.165   1.546  1.00  0.00     0.169 HD
HETATM   19  O   UNL     1      39.768 -15.823   2.222  1.00  0.00    -0.273 OA
BRANCH  17  20
HETATM   20  C   UNL     1      39.869 -13.558   0.268  1.00  0.00     0.034 A 
HETATM   21  C   UNL     1      39.718 -14.413  -0.825  1.00  0.00     0.030 A 
HETATM   22  C   UNL     1      38.810 -14.106  -1.845  1.00  0.00     0.009 A 
HETATM   23  C   UNL     1      38.054 -12.930  -1.799  1.00  0.00    -0.062 A 
HETATM   24  C   UNL     1      37.047 -12.627  -2.870  1.00  0.00     0.048 C 
HETATM   25  C   UNL     1      38.215 -12.068  -0.711  1.00  0.00     0.009 A 
HETATM   26  C   UNL     1      39.119 -12.378   0.310  1.00  0.00     0.030 A 
ENDBRANCH  17  20
ENDBRANCH  15  16
ENDBRANCH   1  15
TORSDOF 3
ENDMDL
MODEL 8
REMARK VINA RESULT:      -7.3      4.271      6.554
REMARK  3 active torsions:
REMARK  status: ('A' for Active; 'I' for Inactive)
REMARK    1  A    between atoms: C_5  and  N_6 
REMARK       I    between atoms: N_6  and  C_7 
REMARK    2  A    between atoms: C_7  and  C_8 
REMARK    3  A    between atoms: C_8  and  C_9 
ROOT
HETATM    1  C   UNL     1      43.311 -11.257   6.691  1.00  0.00     0.286 C 
HETATM    2  N   UNL     1      42.341 -10.621   7.697  1.00  0.00    -0.056 N 
HETATM    3  H   UNL     1      41.627 -10.082   7.181  1.00  0.00     0.278 HD
HETATM    4  H   UNL     1      41.842 -11.371   8.193  1.00  0.00     0.278 HD
HETATM    5  C   UNL     1      42.972  -9.687   8.698  1.00  0.00     0.209 C 
HETATM    6  C   UNL     1      44.194 -10.361   9.349  1.00  0.00     0.115 C 
HETATM    7  N   UNL     1      45.135 -10.844   8.354  1.00  0.00    -0.353 N 
HETATM    8  C   UNL     1      44.771 -11.405   7.162  1.00  0.00     0.249 C 
HETATM    9  O   UNL     1      45.617 -11.946   6.454  1.00  0.00    -0.271 OA
HETATM   10  C   UNL     1      41.945  -9.292   9.755  1.00  0.00     0.035 C 
HETATM   11  C   UNL     1      42.575  -8.331  10.764  1.00  0.00     0.002 C 
HETATM   12  C   UNL     1      43.867  -8.884  11.370  1.00  0.00     0.002 C 
HETATM   13  C   UNL     1      44.857  -9.371  10.310  1.00  0.00     0.027 C 
HETATM   14  H   UNL     1      46.100 -11.024   8.625  1.00  0.00     0.163 HD
ENDROOT
BRANCH   1  15
HETATM   15  C   UNL     1      43.266 -10.561   5.326  1.00  0.00     0.146 C 
BRANCH  15  16
HETATM   16  C   UNL     1      43.409 -11.598   4.243  1.00  0.00     0.224 C 
HETATM   17  N   UNL     1      42.569 -12.677   4.400  1.00  0.00    -0.327 N 
HETATM   18  H   UNL     1      41.769 -12.576   5.021  1.00  0.00     0.169 HD
HETATM   19  O   UNL     1      44.348 -11.482   3.458  1.00  0.00    -0.273 OA
BRANCH  17  20
HETATM   20  C   UNL     1      42.734 -13.971   3.859  1.00  0.00     0.034 A 
HETATM   21  C   UNL     1      42.929 -14.232   2.502  1.00  0.00     0.030 A 
HETATM   22  C   UNL     1      43.185 -15.535   2.060  1.00  0.00     0.009 A 
HETATM   23  C   UNL     1      43.233 -16.600   2.965  1.00  0.00    -0.062 A 
HETATM   24  C   UNL     1      43.556 -17.988   2.495  1.00  0.00     0.048 C 
HETATM   25  C   UNL     1      43.026 -16.341   4.323  1.00  0.00     0.009 A 
HETATM   26  C   UNL     1      42.773 -15.038   4.764  1.00  0.00     0.030 A 
ENDBRANCH  17  20
ENDBRANCH  15  16
ENDBRANCH   1  15
TORSDOF 3
ENDMDL
MODEL 9
REMARK VINA RESULT:      -7.3      3.057      4.900
REMARK  3 active torsions:
REMARK  status: ('A' for Active; 'I' for Inactive)
REMARK    1  A    between atoms: C_5  and  N_6 
REMARK       I    between atoms: N_6  and  C_7 
REMARK    2  A    between atoms: C_7  and  C_8 
REMARK    3  A    between atoms: C_8  and  C_9 
ROOT
HETATM    1  C   UNL     1      41.616 -11.700   5.612  1.00  0.00     0.286 C 
HETATM    2  N   UNL     1      43.151 -11.697   5.595  1.00  0.00    -0.056 N 
HETATM    3  H   UNL     1      43.487 -12.653   5.394  1.00  0.00     0.278 HD
HETATM    4  H   UNL     1      43.471 -11.103   4.818  1.00  0.00     0.278 HD
HETATM    5  C   UNL     1      43.809 -11.250   6.876  1.00  0.00     0.209 C 
HETATM    6  C   UNL     1      43.187  -9.924   7.352  1.00  0.00     0.115 C 
HETATM    7  N   UNL     1      41.742 -10.017   7.460  1.00  0.00    -0.353 N 
HETATM    8  C   UNL     1      40.950 -10.711   6.589  1.00  0.00     0.249 C 
HETATM    9  O   UNL     1      39.728 -10.597   6.647  1.00  0.00    -0.271 OA
HETATM   10  C   UNL     1      45.312 -11.096   6.658  1.00  0.00     0.035 C 
HETATM   11  C   UNL     1      45.987 -10.658   7.959  1.00  0.00     0.002 C 
HETATM   12  C   UNL     1      45.343  -9.407   8.560  1.00  0.00     0.002 C 
HETATM   13  C   UNL     1      43.823  -9.525   8.687  1.00  0.00     0.027 C 
HETATM   14  H   UNL     1      41.241  -9.346   8.040  1.00  0.00     0.163 HD
ENDROOT
BRANCH   1  15
HETATM   15  C   UNL     1      41.043 -13.107   5.817  1.00  0.00     0.146 C 
BRANCH  15  16
HETATM   16  C   UNL     1      41.455 -13.976   4.658  1.00  0.00     0.224 C 
HETATM   17  N   UNL     1      41.437 -15.323   4.945  1.00  0.00    -0.327 N 
HETATM   18  H   UNL     1      40.910 -15.632   5.759  1.00  0.00     0.169 HD
HETATM   19  O   UNL     1      41.928 -13.424   3.667  1.00  0.00    -0.273 OA
BRANCH  17  20
HETATM   20  C   UNL     1      42.150 -16.345   4.282  1.00  0.00     0.034 A 
HETATM   21  C   UNL     1      43.181 -17.083   4.865  1.00  0.00     0.030 A 
HETATM   22  C   UNL     1      43.769 -18.148   4.173  1.00  0.00     0.009 A 
HETATM   23  C   UNL     1      43.350 -18.480   2.881  1.00  0.00    -0.062 A 
HETATM   24  C   UNL     1      43.949 -19.653   2.161  1.00  0.00     0.048 C 
HETATM   25  C   UNL     1      42.326 -17.734   2.293  1.00  0.00     0.009 A 
HETATM   26  C   UNL     1      41.736 -16.672   2.986  1.00  0.00     0.030 A 
ENDBRANCH  17  20
ENDBRANCH  15  16
ENDBRANCH   1  15
TORSDOF 3
ENDMDL
MODEL 10
REMARK VINA RESULT:      -7.2      2.269      5.509
REMARK  3 active torsions:
REMARK  status: ('A' for Active; 'I' for Inactive)
REMARK    1  A    between atoms: C_5  and  N_6 
REMARK       I    between atoms: N_6  and  C_7 
REMARK    2  A    between atoms: C_7  and  C_8 
REMARK    3  A    between atoms: C_8  and  C_9 
ROOT
HETATM    1  C   UNL     1      41.350 -12.329   4.626  1.00  0.00     0.286 C 
HETATM    2  N   UNL     1      42.493 -12.914   3.785  1.00  0.00    -0.056 N 
HETATM    3  H   UNL     1      42.809 -12.203   3.106  1.00  0.00     0.278 HD
HETATM    4  H   UNL     1      43.292 -13.107   4.403  1.00  0.00     0.278 HD
HETATM    5  C   UNL     1      42.147 -14.158   3.004  1.00  0.00     0.209 C 
HETATM    6  C   UNL     1      41.460 -15.182   3.925  1.00  0.00     0.115 C 
HETATM    7  N   UNL     1      40.316 -14.608   4.610  1.00  0.00    -0.353 N 
HETATM    8  C   UNL     1      40.270 -13.328   5.087  1.00  0.00     0.249 C 
HETATM    9  O   UNL     1      39.339 -12.974   5.805  1.00  0.00    -0.271 OA
HETATM   10  C   UNL     1      43.411 -14.747   2.385  1.00  0.00     0.035 C 
HETATM   11  C   UNL     1      43.065 -15.999   1.579  1.00  0.00     0.002 C 
HETATM   12  C   UNL     1      42.273 -17.021   2.398  1.00  0.00     0.002 C 
HETATM   13  C   UNL     1      41.059 -16.407   3.098  1.00  0.00     0.027 C 
HETATM   14  H   UNL     1      39.604 -15.226   4.996  1.00  0.00     0.163 HD
ENDROOT
BRANCH   1  15
HETATM   15  C   UNL     1      40.692 -11.121   3.946  1.00  0.00     0.146 C 
BRANCH  15  16
HETATM   16  C   UNL     1      40.710 -11.330   2.455  1.00  0.00     0.224 C 
HETATM   17  N   UNL     1      39.591 -11.973   1.975  1.00  0.00    -0.327 N 
HETATM   18  H   UNL     1      38.764 -12.001   2.567  1.00  0.00     0.169 HD
HETATM   19  O   UNL     1      41.754 -11.088   1.855  1.00  0.00    -0.273 OA
BRANCH  17  20
HETATM   20  C   UNL     1      39.475 -12.694   0.767  1.00  0.00     0.034 A 
HETATM   21  C   UNL     1      40.015 -13.964   0.559  1.00  0.00     0.030 A 
HETATM   22  C   UNL     1      39.768 -14.653  -0.634  1.00  0.00     0.009 A 
HETATM   23  C   UNL     1      38.994 -14.075  -1.646  1.00  0.00    -0.062 A 
HETATM   24  C   UNL     1      38.691 -14.836  -2.904  1.00  0.00     0.048 C 
HETATM   25  C   UNL     1      38.463 -12.799  -1.443  1.00  0.00     0.009 A 
HETATM   26  C   UNL     1      38.707 -12.112  -0.249  1.00  0.00     0.030 A 
ENDBRANCH  17  20
ENDBRANCH  15  16
ENDBRANCH   1  15
TORSDOF 3
ENDMDL
