MODEL 1
REMARK VINA RESULT:      -9.2      0.000      0.000
REMARK  6 active torsions:
REMARK  status: ('A' for Active; 'I' for Inactive)
REMARK    1  A    between atoms: O_2  and  C_3 
REMARK    2  A    between atoms: C_5  and  C_6 
REMARK    3  A    between atoms: C_12  and  C_13 
REMARK       I    between atoms: C_13  and  N_14 
REMARK    4  A    between atoms: N_14  and  C_15 
REMARK    5  A    between atoms: C_15  and  C_16 
REMARK    6  A    between atoms: C_23  and  C_24 
ROOT
HETATM    1  C   UNL     1      42.488 -15.670   4.213  1.00  0.00     0.118 C 
HETATM    2  N   UNL     1      43.122 -14.671   5.075  1.00  0.00    -0.365 N 
HETATM    3  C   UNL     1      43.186 -13.365   4.700  1.00  0.00     0.138 A 
HETATM    4  N   UNL     1      42.743 -12.971   3.459  1.00  0.00    -0.240 N 
HETATM    5  N   UNL     1      42.994 -11.686   3.169  1.00  0.00    -0.181 NA
HETATM    6  C   UNL     1      43.541 -11.225   4.296  1.00  0.00     0.160 A 
HETATM    7  C   UNL     1      43.674 -12.218   5.301  1.00  0.00     0.096 A 
HETATM    8  C   UNL     1      42.204 -13.869   2.454  1.00  0.00     0.221 C 
HETATM    9  C   UNL     1      42.689 -15.301   2.733  1.00  0.00     0.066 C 
HETATM   10  H   UNL     1      43.789 -15.052   5.749  1.00  0.00     0.161 HD
ENDROOT
BRANCH   7  11
HETATM   11  C   UNL     1      44.220 -12.000   6.627  1.00  0.00     0.257 C 
HETATM   12  N   UNL     1      45.113 -10.961   6.734  1.00  0.00    -0.352 N 
HETATM   13  H   UNL     1      45.445 -10.533   5.879  1.00  0.00     0.163 HD
HETATM   14  O   UNL     1      43.922 -12.726   7.569  1.00  0.00    -0.267 OA
BRANCH  12  15
HETATM   15  C   UNL     1      45.828 -10.697   7.961  1.00  0.00     0.161 C 
BRANCH  15  16
HETATM   16  C   UNL     1      45.083  -9.763   8.883  1.00  0.00    -0.041 A 
HETATM   17  C   UNL     1      44.421  -8.624   8.399  1.00  0.00     0.009 A 
HETATM   18  C   UNL     1      43.673  -7.817   9.257  1.00  0.00     0.001 A 
HETATM   19  C   UNL     1      43.561  -8.146  10.606  1.00  0.00     0.000 A 
HETATM   20  C   UNL     1      44.197  -9.284  11.098  1.00  0.00     0.001 A 
HETATM   21  C   UNL     1      44.952 -10.089  10.242  1.00  0.00     0.009 A 
ENDBRANCH  15  16
ENDBRANCH  12  15
ENDBRANCH   7  11
BRANCH   1  22
HETATM   22  C   UNL     1      42.995 -17.052   4.579  1.00  0.00    -0.033 A 
HETATM   23  C   UNL     1      43.429 -17.974   3.612  1.00  0.00     0.046 A 
HETATM   24  C   UNL     1      43.892 -19.245   3.974  1.00  0.00     0.068 A 
HETATM   25  C   UNL     1      43.947 -19.596   5.321  1.00  0.00     0.037 A 
HETATM   26  C   UNL     1      43.544 -18.684   6.297  1.00  0.00     0.003 A 
HETATM   27  C   UNL     1      43.075 -17.422   5.930  1.00  0.00     0.009 A 
BRANCH  24  28
HETATM   28  O   UNL     1      44.259 -20.037   2.920  1.00  0.00    -0.356 OA
HETATM   29  C   UNL     1      43.304 -20.202   1.878  1.00  0.00     0.210 C 
ENDBRANCH  24  28
ENDBRANCH   1  22
BRANCH   8  30
HETATM   30  C   UNL     1      40.698 -13.751   2.415  1.00  0.00     0.409 C 
HETATM   31  F   UNL     1      40.082 -14.905   2.078  1.00  0.00    -0.169 F 
HETATM   32  F   UNL     1      40.172 -13.334   3.587  1.00  0.00    -0.169 F 
HETATM   33  F   UNL     1      40.332 -12.832   1.482  1.00  0.00    -0.169 F 
ENDBRANCH   8  30
TORSDOF 6
ENDMDL
MODEL 2
REMARK VINA RESULT:      -9.0      0.653      1.296
REMARK  6 active torsions:
REMARK  status: ('A' for Active; 'I' for Inactive)
REMARK    1  A    between atoms: O_2  and  C_3 
REMARK    2  A    between atoms: C_5  and  C_6 
REMARK    3  A    between atoms: C_12  and  C_13 
REMARK       I    between atoms: C_13  and  N_14 
REMARK    4  A    between atoms: N_14  and  C_15 
REMARK    5  A    between atoms: C_15  and  C_16 
REMARK    6  A    between atoms: C_23  and  C_24 
ROOT
HETATM    1  C   UNL     1      42.208 -15.380   4.363  1.00  0.00     0.118 C 
HETATM    2  N   UNL     1      42.851 -14.397   5.237  1.00  0.00    -0.365 N 
HETATM    3  C   UNL     1      42.791 -13.068   4.955  1.00  0.00     0.138 A 
HETATM    4  N   UNL     1      42.207 -12.625   3.790  1.00  0.00    -0.240 N 
HETATM    5  N   UNL     1      42.341 -11.309   3.574  1.00  0.00    -0.181 NA
HETATM    6  C   UNL     1      42.959 -10.885   4.680  1.00  0.00     0.160 A 
HETATM    7  C   UNL     1      43.254 -11.931   5.592  1.00  0.00     0.096 A 
HETATM    8  C   UNL     1      41.638 -13.491   2.774  1.00  0.00     0.221 C 
HETATM    9  C   UNL     1      42.243 -14.899   2.902  1.00  0.00     0.066 C 
HETATM   10  H   UNL     1      43.603 -14.772   5.818  1.00  0.00     0.161 HD
ENDROOT
BRANCH   7  11
HETATM   11  C   UNL     1      43.907 -11.763   6.877  1.00  0.00     0.257 C 
HETATM   12  N   UNL     1      44.419 -10.511   7.118  1.00  0.00    -0.352 N 
HETATM   13  H   UNL     1      44.452  -9.856   6.348  1.00  0.00     0.163 HD
HETATM   14  O   UNL     1      44.016 -12.695   7.666  1.00  0.00    -0.267 OA
BRANCH  12  15
HETATM   15  C   UNL     1      45.198 -10.225   8.302  1.00  0.00     0.161 C 
BRANCH  15  16
HETATM   16  C   UNL     1      44.436  -9.416   9.322  1.00  0.00    -0.041 A 
HETATM   17  C   UNL     1      44.394  -9.789  10.675  1.00  0.00     0.009 A 
HETATM   18  C   UNL     1      43.751  -8.985  11.616  1.00  0.00     0.001 A 
HETATM   19  C   UNL     1      43.156  -7.788  11.223  1.00  0.00     0.000 A 
HETATM   20  C   UNL     1      43.205  -7.395   9.887  1.00  0.00     0.001 A 
HETATM   21  C   UNL     1      43.843  -8.202   8.943  1.00  0.00     0.009 A 
ENDBRANCH  15  16
ENDBRANCH  12  15
ENDBRANCH   7  11
BRANCH   1  22
HETATM   22  C   UNL     1      42.839 -16.742   4.579  1.00  0.00    -0.033 A 
HETATM   23  C   UNL     1      43.324 -17.523   3.517  1.00  0.00     0.046 A 
HETATM   24  C   UNL     1      43.903 -18.778   3.741  1.00  0.00     0.068 A 
HETATM   25  C   UNL     1      44.024 -19.255   5.045  1.00  0.00     0.037 A 
HETATM   26  C   UNL     1      43.570 -18.481   6.115  1.00  0.00     0.003 A 
HETATM   27  C   UNL     1      42.987 -17.235   5.885  1.00  0.00     0.009 A 
BRANCH  24  28
HETATM   28  O   UNL     1      44.308 -19.428   2.607  1.00  0.00    -0.356 OA
HETATM   29  C   UNL     1      43.346 -20.255   1.963  1.00  0.00     0.210 C 
ENDBRANCH  24  28
ENDBRANCH   1  22
BRANCH   8  30
HETATM   30  C   UNL     1      40.130 -13.484   2.879  1.00  0.00     0.409 C 
HETATM   31  F   UNL     1      39.550 -12.509   2.145  1.00  0.00    -0.169 F 
HETATM   32  F   UNL     1      39.572 -14.658   2.514  1.00  0.00    -0.169 F 
HETATM   33  F   UNL     1      39.760 -13.267   4.169  1.00  0.00    -0.169 F 
ENDBRANCH   8  30
TORSDOF 6
ENDMDL
MODEL 3
REMARK VINA RESULT:      -9.0      1.001      1.841
REMARK  6 active torsions:
REMARK  status: ('A' for Active; 'I' for Inactive)
REMARK    1  A    between atoms: O_2  and  C_3 
REMARK    2  A    between atoms: C_5  and  C_6 
REMARK    3  A    between atoms: C_12  and  C_13 
REMARK       I    between atoms: C_13  and  N_14 
REMARK    4  A    between atoms: N_14  and  C_15 
REMARK    5  A    between atoms: C_15  and  C_16 
REMARK    6  A    between atoms: C_23  and  C_24 
ROOT
HETATM    1  C   UNL     1      42.343 -15.535   3.064  1.00  0.00     0.118 C 
HETATM    2  N   UNL     1      42.956 -14.656   4.062  1.00  0.00    -0.365 N 
HETATM    3  C   UNL     1      42.982 -13.308   3.883  1.00  0.00     0.138 A 
HETATM    4  N   UNL     1      42.518 -12.748   2.715  1.00  0.00    -0.240 N 
HETATM    5  N   UNL     1      42.731 -11.428   2.616  1.00  0.00    -0.181 NA
HETATM    6  C   UNL     1      43.274 -11.122   3.798  1.00  0.00     0.160 A 
HETATM    7  C   UNL     1      43.442 -12.249   4.644  1.00  0.00     0.096 A 
HETATM    8  C   UNL     1      41.997 -13.503   1.591  1.00  0.00     0.221 C 
HETATM    9  C   UNL     1      42.523 -14.947   1.654  1.00  0.00     0.066 C 
HETATM   10  H   UNL     1      43.639 -15.113   4.670  1.00  0.00     0.161 HD
ENDROOT
BRANCH   7  11
HETATM   11  C   UNL     1      43.993 -12.213   5.986  1.00  0.00     0.257 C 
HETATM   12  N   UNL     1      44.835 -11.160   6.250  1.00  0.00    -0.352 N 
HETATM   13  H   UNL     1      45.136 -10.589   5.471  1.00  0.00     0.163 HD
HETATM   14  O   UNL     1      43.740 -13.091   6.805  1.00  0.00    -0.267 OA
BRANCH  12  15
HETATM   15  C   UNL     1      45.550 -11.056   7.501  1.00  0.00     0.161 C 
BRANCH  15  16
HETATM   16  C   UNL     1      44.896 -10.103   8.472  1.00  0.00    -0.041 A 
HETATM   17  C   UNL     1      43.868  -9.235   8.072  1.00  0.00     0.009 A 
HETATM   18  C   UNL     1      43.223  -8.418   9.002  1.00  0.00     0.001 A 
HETATM   19  C   UNL     1      43.584  -8.470  10.346  1.00  0.00     0.000 A 
HETATM   20  C   UNL     1      44.590  -9.340  10.762  1.00  0.00     0.001 A 
HETATM   21  C   UNL     1      45.241 -10.153   9.831  1.00  0.00     0.009 A 
ENDBRANCH  15  16
ENDBRANCH  12  15
ENDBRANCH   7  11
BRANCH   1  22
HETATM   22  C   UNL     1      42.890 -16.941   3.221  1.00  0.00    -0.033 A 
HETATM   23  C   UNL     1      43.173 -17.502   4.478  1.00  0.00     0.046 A 
HETATM   24  C   UNL     1      43.678 -18.802   4.598  1.00  0.00     0.068 A 
HETATM   25  C   UNL     1      43.884 -19.566   3.451  1.00  0.00     0.037 A 
HETATM   26  C   UNL     1      43.585 -19.034   2.196  1.00  0.00     0.003 A 
HETATM   27  C   UNL     1      43.089 -17.735   2.081  1.00  0.00     0.009 A 
BRANCH  24  28
HETATM   28  O   UNL     1      43.924 -19.200   5.884  1.00  0.00    -0.356 OA
HETATM   29  C   UNL     1      43.518 -18.312   6.919  1.00  0.00     0.210 C 
ENDBRANCH  24  28
ENDBRANCH   1  22
BRANCH   8  30
HETATM   30  C   UNL     1      40.487 -13.424   1.575  1.00  0.00     0.409 C 
HETATM   31  F   UNL     1      39.946 -13.313   2.808  1.00  0.00    -0.169 F 
HETATM   32  F   UNL     1      40.022 -12.399   0.830  1.00  0.00    -0.169 F 
HETATM   33  F   UNL     1      39.973 -14.558   1.030  1.00  0.00    -0.169 F 
ENDBRANCH   8  30
TORSDOF 6
ENDMDL
MODEL 4
REMARK VINA RESULT:      -8.8      1.932      2.905
REMARK  6 active torsions:
REMARK  status: ('A' for Active; 'I' for Inactive)
REMARK    1  A    between atoms: O_2  and  C_3 
REMARK    2  A    between atoms: C_5  and  C_6 
REMARK    3  A    between atoms: C_12  and  C_13 
REMARK       I    between atoms: C_13  and  N_14 
REMARK    4  A    between atoms: N_14  and  C_15 
REMARK    5  A    between atoms: C_15  and  C_16 
REMARK    6  A    between atoms: C_23  and  C_24 
ROOT
HETATM    1  C   UNL     1      41.911 -15.672   2.896  1.00  0.00     0.118 C 
HETATM    2  N   UNL     1      41.881 -14.536   3.820  1.00  0.00    -0.365 N 
HETATM    3  C   UNL     1      41.646 -13.275   3.367  1.00  0.00     0.138 A 
HETATM    4  N   UNL     1      41.528 -13.026   2.019  1.00  0.00    -0.240 N 
HETATM    5  N   UNL     1      41.439 -11.725   1.707  1.00  0.00    -0.181 NA
HETATM    6  C   UNL     1      41.416 -11.130   2.903  1.00  0.00     0.160 A 
HETATM    7  C   UNL     1      41.523 -12.043   3.984  1.00  0.00     0.096 A 
HETATM    8  C   UNL     1      41.658 -14.032   0.982  1.00  0.00     0.221 C 
HETATM    9  C   UNL     1      42.453 -15.231   1.525  1.00  0.00     0.066 C 
HETATM   10  H   UNL     1      42.378 -14.690   4.699  1.00  0.00     0.161 HD
ENDROOT
BRANCH   7  11
HETATM   11  C   UNL     1      41.512 -11.682   5.389  1.00  0.00     0.257 C 
HETATM   12  N   UNL     1      42.061 -10.459   5.688  1.00  0.00    -0.352 N 
HETATM   13  H   UNL     1      42.568  -9.976   4.957  1.00  0.00     0.163 HD
HETATM   14  O   UNL     1      41.071 -12.445   6.242  1.00  0.00    -0.267 OA
BRANCH  12  15
HETATM   15  C   UNL     1      42.227 -10.014   7.053  1.00  0.00     0.161 C 
BRANCH  15  16
HETATM   16  C   UNL     1      43.674  -9.952   7.477  1.00  0.00    -0.041 A 
HETATM   17  C   UNL     1      44.616 -10.887   7.021  1.00  0.00     0.009 A 
HETATM   18  C   UNL     1      45.963 -10.765   7.362  1.00  0.00     0.001 A 
HETATM   19  C   UNL     1      46.391  -9.697   8.148  1.00  0.00     0.000 A 
HETATM   20  C   UNL     1      45.471  -8.751   8.593  1.00  0.00     0.001 A 
HETATM   21  C   UNL     1      44.122  -8.875   8.258  1.00  0.00     0.009 A 
ENDBRANCH  15  16
ENDBRANCH  12  15
ENDBRANCH   7  11
BRANCH   1  22
HETATM   22  C   UNL     1      42.681 -16.818   3.525  1.00  0.00    -0.033 A 
HETATM   23  C   UNL     1      42.814 -16.960   4.916  1.00  0.00     0.046 A 
HETATM   24  C   UNL     1      43.531 -18.025   5.474  1.00  0.00     0.068 A 
HETATM   25  C   UNL     1      44.105 -18.979   4.635  1.00  0.00     0.037 A 
HETATM   26  C   UNL     1      43.962 -18.867   3.251  1.00  0.00     0.003 A 
HETATM   27  C   UNL     1      43.253 -17.799   2.701  1.00  0.00     0.009 A 
BRANCH  24  28
HETATM   28  O   UNL     1      43.590 -18.016   6.841  1.00  0.00    -0.356 OA
HETATM   29  C   UNL     1      43.948 -16.786   7.460  1.00  0.00     0.210 C 
ENDBRANCH  24  28
ENDBRANCH   1  22
BRANCH   8  30
HETATM   30  C   UNL     1      40.290 -14.415   0.465  1.00  0.00     0.409 C 
HETATM   31  F   UNL     1      40.016 -13.898  -0.753  1.00  0.00    -0.169 F 
HETATM   32  F   UNL     1      40.110 -15.751   0.392  1.00  0.00    -0.169 F 
HETATM   33  F   UNL     1      39.332 -13.945   1.307  1.00  0.00    -0.169 F 
ENDBRANCH   8  30
TORSDOF 6
ENDMDL
MODEL 5
REMARK VINA RESULT:      -8.8      3.875      7.349
REMARK  6 active torsions:
REMARK  status: ('A' for Active; 'I' for Inactive)
REMARK    1  A    between atoms: O_2  and  C_3 
REMARK    2  A    between atoms: C_5  and  C_6 
REMARK    3  A    between atoms: C_12  and  C_13 
REMARK       I    between atoms: C_13  and  N_14 
REMARK    4  A    between atoms: N_14  and  C_15 
REMARK    5  A    between atoms: C_15  and  C_16 
REMARK    6  A    between atoms: C_23  and  C_24 
ROOT
HETATM    1  C   UNL     1      43.018 -16.626   4.899  1.00  0.00     0.118 C 
HETATM    2  N   UNL     1      42.120 -16.363   3.772  1.00  0.00    -0.365 N 
HETATM    3  C   UNL     1      41.353 -15.241   3.738  1.00  0.00     0.138 A 
HETATM    4  N   UNL     1      41.330 -14.376   4.808  1.00  0.00    -0.240 N 
HETATM    5  N   UNL     1      40.429 -13.390   4.698  1.00  0.00    -0.181 NA
HETATM    6  C   UNL     1      39.917 -13.585   3.480  1.00  0.00     0.160 A 
HETATM    7  C   UNL     1      40.464 -14.715   2.818  1.00  0.00     0.096 A 
HETATM    8  C   UNL     1      42.073 -14.571   6.039  1.00  0.00     0.221 C 
HETATM    9  C   UNL     1      42.420 -16.060   6.199  1.00  0.00     0.066 C 
HETATM   10  H   UNL     1      41.853 -17.193   3.239  1.00  0.00     0.161 HD
ENDROOT
BRANCH   7  11
HETATM   11  C   UNL     1      40.107 -15.158   1.483  1.00  0.00     0.257 C 
HETATM   12  N   UNL     1      40.169 -14.194   0.506  1.00  0.00    -0.352 N 
HETATM   13  H   UNL     1      40.296 -13.233   0.796  1.00  0.00     0.163 HD
HETATM   14  O   UNL     1      39.744 -16.309   1.267  1.00  0.00    -0.267 OA
BRANCH  12  15
HETATM   15  C   UNL     1      39.731 -14.455  -0.846  1.00  0.00     0.161 C 
BRANCH  15  16
HETATM   16  C   UNL     1      38.840 -13.367  -1.394  1.00  0.00    -0.041 A 
HETATM   17  C   UNL     1      37.909 -13.622  -2.413  1.00  0.00     0.009 A 
HETATM   18  C   UNL     1      37.040 -12.621  -2.850  1.00  0.00     0.001 A 
HETATM   19  C   UNL     1      37.078 -11.358  -2.262  1.00  0.00     0.000 A 
HETATM   20  C   UNL     1      37.983 -11.095  -1.237  1.00  0.00     0.001 A 
HETATM   21  C   UNL     1      38.858 -12.094  -0.803  1.00  0.00     0.009 A 
ENDBRANCH  15  16
ENDBRANCH  12  15
ENDBRANCH   7  11
BRANCH   1  22
HETATM   22  C   UNL     1      43.336 -18.108   4.960  1.00  0.00    -0.033 A 
HETATM   23  C   UNL     1      43.540 -18.881   3.804  1.00  0.00     0.046 A 
HETATM   24  C   UNL     1      43.832 -20.248   3.885  1.00  0.00     0.068 A 
HETATM   25  C   UNL     1      43.947 -20.851   5.136  1.00  0.00     0.037 A 
HETATM   26  C   UNL     1      43.773 -20.093   6.295  1.00  0.00     0.003 A 
HETATM   27  C   UNL     1      43.474 -18.733   6.209  1.00  0.00     0.009 A 
BRANCH  24  28
HETATM   28  O   UNL     1      43.982 -20.869   2.675  1.00  0.00    -0.356 OA
HETATM   29  C   UNL     1      43.386 -20.235   1.550  1.00  0.00     0.210 C 
ENDBRANCH  24  28
ENDBRANCH   1  22
BRANCH   8  30
HETATM   30  C   UNL     1      43.290 -13.674   6.053  1.00  0.00     0.409 C 
HETATM   31  F   UNL     1      43.700 -13.314   4.817  1.00  0.00    -0.169 F 
HETATM   32  F   UNL     1      43.103 -12.544   6.768  1.00  0.00    -0.169 F 
HETATM   33  F   UNL     1      44.334 -14.325   6.631  1.00  0.00    -0.169 F 
ENDBRANCH   8  30
TORSDOF 6
ENDMDL
MODEL 6
REMARK VINA RESULT:      -8.7      3.310      7.562
REMARK  6 active torsions:
REMARK  status: ('A' for Active; 'I' for Inactive)
REMARK    1  A    between atoms: O_2  and  C_3 
REMARK    2  A    between atoms: C_5  and  C_6 
REMARK    3  A    between atoms: C_12  and  C_13 
REMARK       I    between atoms: C_13  and  N_14 
REMARK    4  A    between atoms: N_14  and  C_15 
REMARK    5  A    between atoms: C_15  and  C_16 
REMARK    6  A    between atoms: C_23  and  C_24 
ROOT
HETATM    1  C   UNL     1      41.207 -12.721   2.976  1.00  0.00     0.118 C 
HETATM    2  N   UNL     1      41.695 -13.822   3.810  1.00  0.00    -0.365 N 
HETATM    3  C   UNL     1      42.531 -13.586   4.856  1.00  0.00     0.138 A 
HETATM    4  N   UNL     1      43.015 -12.321   5.095  1.00  0.00    -0.240 N 
HETATM    5  N   UNL     1      43.935 -12.259   6.068  1.00  0.00    -0.181 NA
HETATM    6  C   UNL     1      43.978 -13.514   6.521  1.00  0.00     0.160 A 
HETATM    7  C   UNL     1      43.112 -14.392   5.819  1.00  0.00     0.096 A 
HETATM    8  C   UNL     1      42.715 -11.158   4.279  1.00  0.00     0.221 C 
HETATM    9  C   UNL     1      42.270 -11.614   2.880  1.00  0.00     0.066 C 
HETATM   10  H   UNL     1      41.667 -14.740   3.362  1.00  0.00     0.161 HD
ENDROOT
BRANCH   7  11
HETATM   11  C   UNL     1      42.942 -15.805   6.102  1.00  0.00     0.257 C 
HETATM   12  N   UNL     1      44.011 -16.604   5.776  1.00  0.00    -0.352 N 
HETATM   13  H   UNL     1      44.757 -16.196   5.228  1.00  0.00     0.163 HD
HETATM   14  O   UNL     1      41.896 -16.243   6.569  1.00  0.00    -0.267 OA
BRANCH  12  15
HETATM   15  C   UNL     1      43.945 -18.043   5.890  1.00  0.00     0.161 C 
BRANCH  15  16
HETATM   16  C   UNL     1      43.817 -18.732   4.554  1.00  0.00    -0.041 A 
HETATM   17  C   UNL     1      43.969 -20.121   4.424  1.00  0.00     0.009 A 
HETATM   18  C   UNL     1      43.769 -20.748   3.193  1.00  0.00     0.001 A 
HETATM   19  C   UNL     1      43.396 -19.998   2.080  1.00  0.00     0.000 A 
HETATM   20  C   UNL     1      43.223 -18.621   2.197  1.00  0.00     0.001 A 
HETATM   21  C   UNL     1      43.429 -17.992   3.426  1.00  0.00     0.009 A 
ENDBRANCH  15  16
ENDBRANCH  12  15
ENDBRANCH   7  11
BRANCH   1  22
HETATM   22  C   UNL     1      40.757 -13.263   1.632  1.00  0.00    -0.033 A 
HETATM   23  C   UNL     1      40.716 -12.467   0.476  1.00  0.00     0.046 A 
HETATM   24  C   UNL     1      40.297 -12.989  -0.754  1.00  0.00     0.068 A 
HETATM   25  C   UNL     1      39.934 -14.332  -0.840  1.00  0.00     0.037 A 
HETATM   26  C   UNL     1      39.993 -15.145   0.293  1.00  0.00     0.003 A 
HETATM   27  C   UNL     1      40.404 -14.617   1.518  1.00  0.00     0.009 A 
BRANCH  24  28
HETATM   28  O   UNL     1      40.290 -12.086  -1.782  1.00  0.00    -0.356 OA
HETATM   29  C   UNL     1      41.199 -10.996  -1.686  1.00  0.00     0.210 C 
ENDBRANCH  24  28
ENDBRANCH   1  22
BRANCH   8  30
HETATM   30  C   UNL     1      41.688 -10.294   4.975  1.00  0.00     0.409 C 
HETATM   31  F   UNL     1      40.949  -9.553   4.120  1.00  0.00    -0.169 F 
HETATM   32  F   UNL     1      40.835 -11.006   5.742  1.00  0.00    -0.169 F 
HETATM   33  F   UNL     1      42.312  -9.418   5.806  1.00  0.00    -0.169 F 
ENDBRANCH   8  30
TORSDOF 6
ENDMDL
MODEL 7
REMARK VINA RESULT:      -8.6      3.386      8.392
REMARK  6 active torsions:
REMARK  status: ('A' for Active; 'I' for Inactive)
REMARK    1  A    between atoms: O_2  and  C_3 
REMARK    2  A    between atoms: C_5  and  C_6 
REMARK    3  A    between atoms: C_12  and  C_13 
REMARK       I    between atoms: C_13  and  N_14 
REMARK    4  A    between atoms: N_14  and  C_15 
REMARK    5  A    between atoms: C_15  and  C_16 
REMARK    6  A    between atoms: C_23  and  C_24 
ROOT
HETATM    1  C   UNL     1      42.817 -14.688   5.938  1.00  0.00     0.118 C 
HETATM    2  N   UNL     1      42.111 -14.765   4.657  1.00  0.00    -0.365 N 
HETATM    3  C   UNL     1      42.231 -15.860   3.859  1.00  0.00     0.138 A 
HETATM    4  N   UNL     1      43.096 -16.877   4.191  1.00  0.00    -0.240 N 
HETATM    5  N   UNL     1      43.219 -17.823   3.250  1.00  0.00    -0.181 NA
HETATM    6  C   UNL     1      42.339 -17.439   2.321  1.00  0.00     0.160 A 
HETATM    7  C   UNL     1      41.674 -16.229   2.647  1.00  0.00     0.096 A 
HETATM    8  C   UNL     1      43.950 -16.881   5.365  1.00  0.00     0.221 C 
HETATM    9  C   UNL     1      44.158 -15.438   5.853  1.00  0.00     0.066 C 
HETATM   10  H   UNL     1      41.843 -13.861   4.264  1.00  0.00     0.161 HD
ENDROOT
BRANCH   7  11
HETATM   11  C   UNL     1      40.661 -15.583   1.834  1.00  0.00     0.257 C 
HETATM   12  N   UNL     1      40.791 -14.222   1.699  1.00  0.00    -0.352 N 
HETATM   13  H   UNL     1      41.466 -13.751   2.289  1.00  0.00     0.163 HD
HETATM   14  O   UNL     1      39.739 -16.220   1.336  1.00  0.00    -0.267 OA
BRANCH  12  15
HETATM   15  C   UNL     1      39.795 -13.428   1.018  1.00  0.00     0.161 C 
BRANCH  15  16
HETATM   16  C   UNL     1      40.161 -13.134  -0.416  1.00  0.00    -0.041 A 
HETATM   17  C   UNL     1      40.926 -12.010  -0.765  1.00  0.00     0.009 A 
HETATM   18  C   UNL     1      41.320 -11.800  -2.088  1.00  0.00     0.001 A 
HETATM   19  C   UNL     1      40.970 -12.718  -3.075  1.00  0.00     0.000 A 
HETATM   20  C   UNL     1      40.227 -13.848  -2.742  1.00  0.00     0.001 A 
HETATM   21  C   UNL     1      39.827 -14.057  -1.420  1.00  0.00     0.009 A 
ENDBRANCH  15  16
ENDBRANCH  12  15
ENDBRANCH   7  11
BRANCH   1  22
HETATM   22  C   UNL     1      42.947 -13.237   6.360  1.00  0.00    -0.033 A 
HETATM   23  C   UNL     1      44.013 -12.776   7.150  1.00  0.00     0.046 A 
HETATM   24  C   UNL     1      44.112 -11.432   7.527  1.00  0.00     0.068 A 
HETATM   25  C   UNL     1      43.147 -10.525   7.093  1.00  0.00     0.037 A 
HETATM   26  C   UNL     1      42.094 -10.961   6.286  1.00  0.00     0.003 A 
HETATM   27  C   UNL     1      41.996 -12.303   5.920  1.00  0.00     0.009 A 
BRANCH  24  28
HETATM   28  O   UNL     1      45.193 -11.140   8.314  1.00  0.00    -0.356 OA
HETATM   29  C   UNL     1      46.270 -10.449   7.694  1.00  0.00     0.210 C 
ENDBRANCH  24  28
ENDBRANCH   1  22
BRANCH   8  30
HETATM   30  C   UNL     1      43.361 -17.784   6.425  1.00  0.00     0.409 C 
HETATM   31  F   UNL     1      43.818 -17.516   7.667  1.00  0.00    -0.169 F 
HETATM   32  F   UNL     1      42.013 -17.739   6.465  1.00  0.00    -0.169 F 
HETATM   33  F   UNL     1      43.693 -19.077   6.163  1.00  0.00    -0.169 F 
ENDBRANCH   8  30
TORSDOF 6
ENDMDL
MODEL 8
REMARK VINA RESULT:      -8.6      3.306      5.451
REMARK  6 active torsions:
REMARK  status: ('A' for Active; 'I' for Inactive)
REMARK    1  A    between atoms: O_2  and  C_3 
REMARK    2  A    between atoms: C_5  and  C_6 
REMARK    3  A    between atoms: C_12  and  C_13 
REMARK       I    between atoms: C_13  and  N_14 
REMARK    4  A    between atoms: N_14  and  C_15 
REMARK    5  A    between atoms: C_15  and  C_16 
REMARK    6  A    between atoms: C_23  and  C_24 
ROOT
HETATM    1  C   UNL     1      40.986 -14.438   1.808  1.00  0.00     0.118 C 
HETATM    2  N   UNL     1      40.861 -13.662   3.044  1.00  0.00    -0.365 N 
HETATM    3  C   UNL     1      41.077 -14.242   4.256  1.00  0.00     0.138 A 
HETATM    4  N   UNL     1      41.322 -15.592   4.352  1.00  0.00    -0.240 N 
HETATM    5  N   UNL     1      41.377 -16.052   5.611  1.00  0.00    -0.181 NA
HETATM    6  C   UNL     1      41.245 -14.942   6.342  1.00  0.00     0.160 A 
HETATM    7  C   UNL     1      41.072 -13.773   5.557  1.00  0.00     0.096 A 
HETATM    8  C   UNL     1      41.354 -16.505   3.225  1.00  0.00     0.221 C 
HETATM    9  C   UNL     1      40.568 -15.898   2.051  1.00  0.00     0.066 C 
HETATM   10  H   UNL     1      40.284 -12.824   2.964  1.00  0.00     0.161 HD
ENDROOT
BRANCH   7  11
HETATM   11  C   UNL     1      40.918 -12.428   6.080  1.00  0.00     0.257 C 
HETATM   12  N   UNL     1      42.086 -11.727   6.256  1.00  0.00    -0.352 N 
HETATM   13  H   UNL     1      42.959 -12.231   6.168  1.00  0.00     0.163 HD
HETATM   14  O   UNL     1      39.815 -11.978   6.373  1.00  0.00    -0.267 OA
BRANCH  12  15
HETATM   15  C   UNL     1      42.102 -10.422   6.878  1.00  0.00     0.161 C 
BRANCH  15  16
HETATM   16  C   UNL     1      43.451 -10.060   7.447  1.00  0.00    -0.041 A 
HETATM   17  C   UNL     1      44.585 -10.855   7.215  1.00  0.00     0.009 A 
HETATM   18  C   UNL     1      45.839 -10.461   7.683  1.00  0.00     0.001 A 
HETATM   19  C   UNL     1      45.980  -9.260   8.375  1.00  0.00     0.000 A 
HETATM   20  C   UNL     1      44.868  -8.452   8.597  1.00  0.00     0.001 A 
HETATM   21  C   UNL     1      43.612  -8.847   8.134  1.00  0.00     0.009 A 
ENDBRANCH  15  16
ENDBRANCH  12  15
ENDBRANCH   7  11
BRANCH   1  22
HETATM   22  C   UNL     1      40.214 -13.751   0.698  1.00  0.00    -0.033 A 
HETATM   23  C   UNL     1      40.184 -14.248  -0.616  1.00  0.00     0.046 A 
HETATM   24  C   UNL     1      39.464 -13.596  -1.625  1.00  0.00     0.068 A 
HETATM   25  C   UNL     1      38.743 -12.444  -1.317  1.00  0.00     0.037 A 
HETATM   26  C   UNL     1      38.741 -11.950  -0.012  1.00  0.00     0.003 A 
HETATM   27  C   UNL     1      39.467 -12.599   0.988  1.00  0.00     0.009 A 
BRANCH  24  28
HETATM   28  O   UNL     1      39.548 -14.188  -2.855  1.00  0.00    -0.356 OA
HETATM   29  C   UNL     1      38.371 -14.818  -3.346  1.00  0.00     0.210 C 
ENDBRANCH  24  28
ENDBRANCH   1  22
BRANCH   8  30
HETATM   30  C   UNL     1      42.786 -16.835   2.871  1.00  0.00     0.409 C 
HETATM   31  F   UNL     1      43.650 -15.838   3.161  1.00  0.00    -0.169 F 
HETATM   32  F   UNL     1      43.233 -17.955   3.479  1.00  0.00    -0.169 F 
HETATM   33  F   UNL     1      42.889 -17.058   1.534  1.00  0.00    -0.169 F 
ENDBRANCH   8  30
TORSDOF 6
ENDMDL
MODEL 9
REMARK VINA RESULT:      -8.6      2.842      4.743
REMARK  6 active torsions:
REMARK  status: ('A' for Active; 'I' for Inactive)
REMARK    1  A    between atoms: O_2  and  C_3 
REMARK    2  A    between atoms: C_5  and  C_6 
REMARK    3  A    between atoms: C_12  and  C_13 
REMARK       I    between atoms: C_13  and  N_14 
REMARK    4  A    between atoms: N_14  and  C_15 
REMARK    5  A    between atoms: C_15  and  C_16 
REMARK    6  A    between atoms: C_23  and  C_24 
ROOT
HETATM    1  C   UNL     1      42.299 -15.415   3.285  1.00  0.00     0.118 C 
HETATM    2  N   UNL     1      42.744 -14.275   4.089  1.00  0.00    -0.365 N 
HETATM    3  C   UNL     1      43.084 -14.434   5.397  1.00  0.00     0.138 A 
HETATM    4  N   UNL     1      42.925 -15.650   6.019  1.00  0.00    -0.240 N 
HETATM    5  N   UNL     1      43.166 -15.629   7.338  1.00  0.00    -0.181 NA
HETATM    6  C   UNL     1      43.573 -14.374   7.548  1.00  0.00     0.160 A 
HETATM    7  C   UNL     1      43.563 -13.578   6.373  1.00  0.00     0.096 A 
HETATM    8  C   UNL     1      42.381 -16.835   5.382  1.00  0.00     0.221 C 
HETATM    9  C   UNL     1      41.538 -16.422   4.164  1.00  0.00     0.066 C 
HETATM   10  H   UNL     1      42.448 -13.364   3.736  1.00  0.00     0.161 HD
ENDROOT
BRANCH   7  11
HETATM   11  C   UNL     1      43.966 -12.187   6.301  1.00  0.00     0.257 C 
HETATM   12  N   UNL     1      45.075 -11.855   7.042  1.00  0.00    -0.352 N 
HETATM   13  H   UNL     1      45.429 -12.540   7.696  1.00  0.00     0.163 HD
HETATM   14  O   UNL     1      43.329 -11.369   5.646  1.00  0.00    -0.267 OA
BRANCH  12  15
HETATM   15  C   UNL     1      45.526 -10.487   7.162  1.00  0.00     0.161 C 
BRANCH  15  16
HETATM   16  C   UNL     1      44.976  -9.795   8.385  1.00  0.00    -0.041 A 
HETATM   17  C   UNL     1      44.040  -8.754   8.283  1.00  0.00     0.009 A 
HETATM   18  C   UNL     1      43.485  -8.180   9.428  1.00  0.00     0.001 A 
HETATM   19  C   UNL     1      43.845  -8.650  10.689  1.00  0.00     0.000 A 
HETATM   20  C   UNL     1      44.759  -9.694  10.806  1.00  0.00     0.001 A 
HETATM   21  C   UNL     1      45.320 -10.265   9.662  1.00  0.00     0.009 A 
ENDBRANCH  15  16
ENDBRANCH  12  15
ENDBRANCH   7  11
BRANCH   1  22
HETATM   22  C   UNL     1      41.509 -14.916   2.091  1.00  0.00    -0.033 A 
HETATM   23  C   UNL     1      41.715 -13.645   1.531  1.00  0.00     0.046 A 
HETATM   24  C   UNL     1      40.973 -13.206   0.428  1.00  0.00     0.068 A 
HETATM   25  C   UNL     1      40.025 -14.054  -0.142  1.00  0.00     0.037 A 
HETATM   26  C   UNL     1      39.824 -15.330   0.386  1.00  0.00     0.003 A 
HETATM   27  C   UNL     1      40.561 -15.760   1.490  1.00  0.00     0.009 A 
BRANCH  24  28
HETATM   28  O   UNL     1      41.272 -11.938   0.010  1.00  0.00    -0.356 OA
HETATM   29  C   UNL     1      40.949 -11.613  -1.337  1.00  0.00     0.210 C 
ENDBRANCH  24  28
ENDBRANCH   1  22
BRANCH   8  30
HETATM   30  C   UNL     1      43.501 -17.788   5.030  1.00  0.00     0.409 C 
HETATM   31  F   UNL     1      44.698 -17.178   4.897  1.00  0.00    -0.169 F 
HETATM   32  F   UNL     1      43.646 -18.784   5.930  1.00  0.00    -0.169 F 
HETATM   33  F   UNL     1      43.238 -18.386   3.837  1.00  0.00    -0.169 F 
ENDBRANCH   8  30
TORSDOF 6
ENDMDL
MODEL 10
REMARK VINA RESULT:      -8.5      3.607      7.526
REMARK  6 active torsions:
REMARK  status: ('A' for Active; 'I' for Inactive)
REMARK    1  A    between atoms: O_2  and  C_3 
REMARK    2  A    between atoms: C_5  and  C_6 
REMARK    3  A    between atoms: C_12  and  C_13 
REMARK       I    between atoms: C_13  and  N_14 
REMARK    4  A    between atoms: N_14  and  C_15 
REMARK    5  A    between atoms: C_15  and  C_16 
REMARK    6  A    between atoms: C_23  and  C_24 
ROOT
HETATM    1  C   UNL     1      43.019 -13.996   4.265  1.00  0.00     0.118 C 
HETATM    2  N   UNL     1      42.556 -13.182   3.139  1.00  0.00    -0.365 N 
HETATM    3  C   UNL     1      41.942 -11.987   3.348  1.00  0.00     0.138 A 
HETATM    4  N   UNL     1      41.654 -11.561   4.625  1.00  0.00    -0.240 N 
HETATM    5  N   UNL     1      40.926 -10.437   4.678  1.00  0.00    -0.181 NA
HETATM    6  C   UNL     1      40.816 -10.089   3.393  1.00  0.00     0.160 A 
HETATM    7  C   UNL     1      41.444 -11.005   2.510  1.00  0.00     0.096 A 
HETATM    8  C   UNL     1      41.943 -12.318   5.829  1.00  0.00     0.221 C 
HETATM    9  C   UNL     1      42.089 -13.808   5.476  1.00  0.00     0.066 C 
HETATM   10  H   UNL     1      42.402 -13.702   2.273  1.00  0.00     0.161 HD
ENDROOT
BRANCH   7  11
HETATM   11  C   UNL     1      41.496 -10.875   1.066  1.00  0.00     0.257 C 
HETATM   12  N   UNL     1      40.909 -11.898   0.360  1.00  0.00    -0.352 N 
HETATM   13  H   UNL     1      40.632 -12.727   0.870  1.00  0.00     0.163 HD
HETATM   14  O   UNL     1      42.061  -9.929   0.528  1.00  0.00    -0.267 OA
BRANCH  12  15
HETATM   15  C   UNL     1      40.984 -11.966  -1.081  1.00  0.00     0.161 C 
BRANCH  15  16
HETATM   16  C   UNL     1      39.831 -12.724  -1.692  1.00  0.00    -0.041 A 
HETATM   17  C   UNL     1      38.528 -12.202  -1.698  1.00  0.00     0.009 A 
HETATM   18  C   UNL     1      37.491 -12.883  -2.339  1.00  0.00     0.001 A 
HETATM   19  C   UNL     1      37.745 -14.084  -2.996  1.00  0.00     0.000 A 
HETATM   20  C   UNL     1      39.036 -14.606  -3.015  1.00  0.00     0.001 A 
HETATM   21  C   UNL     1      40.074 -13.929  -2.369  1.00  0.00     0.009 A 
ENDBRANCH  15  16
ENDBRANCH  12  15
ENDBRANCH   7  11
BRANCH   1  22
HETATM   22  C   UNL     1      43.169 -15.439   3.821  1.00  0.00    -0.033 A 
HETATM   23  C   UNL     1      43.449 -16.478   4.724  1.00  0.00     0.046 A 
HETATM   24  C   UNL     1      43.584 -17.803   4.290  1.00  0.00     0.068 A 
HETATM   25  C   UNL     1      43.415 -18.102   2.940  1.00  0.00     0.037 A 
HETATM   26  C   UNL     1      43.112 -17.086   2.032  1.00  0.00     0.003 A 
HETATM   27  C   UNL     1      42.987 -15.767   2.469  1.00  0.00     0.009 A 
BRANCH  24  28
HETATM   28  O   UNL     1      43.877 -18.698   5.282  1.00  0.00    -0.356 OA
HETATM   29  C   UNL     1      44.263 -20.005   4.874  1.00  0.00     0.210 C 
ENDBRANCH  24  28
ENDBRANCH   1  22
BRANCH   8  30
HETATM   30  C   UNL     1      43.166 -11.749   6.512  1.00  0.00     0.409 C 
HETATM   31  F   UNL     1      44.060 -11.219   5.649  1.00  0.00    -0.169 F 
HETATM   32  F   UNL     1      42.865 -10.801   7.424  1.00  0.00    -0.169 F 
HETATM   33  F   UNL     1      43.817 -12.735   7.184  1.00  0.00    -0.169 F 
ENDBRANCH   8  30
TORSDOF 6
ENDMDL
