MODEL 1
REMARK VINA RESULT:      -8.9      0.000      0.000
REMARK  4 active torsions:
REMARK  status: ('A' for Active; 'I' for Inactive)
REMARK    1  A    between atoms: C_3  and  C_4 
REMARK       I    between atoms: C_4  and  N_5 
REMARK    2  A    between atoms: N_5  and  N_6 
REMARK    3  A    between atoms: C_21  and  C_22 
REMARK    4  A    between atoms: C_25  and  O_26 
ROOT
HETATM    1  C   UNL     1      40.032 -12.248   6.254  1.00  0.00     0.290 C 
HETATM    2  N   UNL     1      41.048 -11.413   6.694  1.00  0.00    -0.241 N 
HETATM    3  O   UNL     1      38.839 -11.961   6.299  1.00  0.00    -0.264 OA
HETATM    4  H   UNL     1      42.005 -11.712   6.630  1.00  0.00     0.192 HD
ENDROOT
BRANCH   1   5
HETATM    5  C   UNL     1      40.460 -13.552   5.799  1.00  0.00     0.127 A 
HETATM    6  C   UNL     1      41.399 -14.031   4.891  1.00  0.00     0.003 A 
HETATM    7  C   UNL     1      42.272 -13.262   3.966  1.00  0.00     0.053 C 
HETATM    8  C   UNL     1      41.308 -15.463   4.989  1.00  0.00     0.095 A 
HETATM    9  N   UNL     1      40.338 -15.821   5.841  1.00  0.00    -0.173 NA
HETATM   10  N   UNL     1      39.827 -14.667   6.275  1.00  0.00    -0.272 N 
HETATM   11  H   UNL     1      39.045 -14.685   6.924  1.00  0.00     0.189 HD
BRANCH   8  12
HETATM   12  C   UNL     1      42.085 -16.486   4.288  1.00  0.00    -0.005 A 
HETATM   13  C   UNL     1      43.101 -17.177   4.960  1.00  0.00     0.016 A 
HETATM   14  C   UNL     1      43.841 -18.165   4.304  1.00  0.00     0.037 A 
HETATM   15  C   UNL     1      43.580 -18.480   2.970  1.00  0.00     0.068 A 
HETATM   16  C   UNL     1      42.588 -17.778   2.286  1.00  0.00     0.037 A 
HETATM   17  C   UNL     1      41.847 -16.784   2.942  1.00  0.00     0.016 A 
BRANCH  15  18
HETATM   18  O   UNL     1      44.365 -19.472   2.451  1.00  0.00    -0.356 OA
HETATM   19  C   UNL     1      43.694 -20.557   1.821  1.00  0.00     0.210 C 
ENDBRANCH  15  18
ENDBRANCH   8  12
ENDBRANCH   1   5
BRANCH   2  20
HETATM   20  N   UNL     1      40.779 -10.119   7.018  1.00  0.00    -0.165 NA
HETATM   21  C   UNL     1      41.720  -9.358   7.478  1.00  0.00     0.157 A 
HETATM   22  C   UNL     1      41.483  -7.845   7.676  1.00  0.00     0.277 A 
HETATM   23  C   UNL     1      43.111  -9.599   7.892  1.00  0.00     0.027 A 
HETATM   24  O   UNL     1      40.452  -7.239   7.487  1.00  0.00    -0.266 OA
HETATM   25  N   UNL     1      42.693  -7.338   8.089  1.00  0.00    -0.321 N 
HETATM   26  C   UNL     1      43.638  -8.347   8.224  1.00  0.00     0.048 A 
HETATM   27  H   UNL     1      42.828  -6.360   8.299  1.00  0.00     0.169 HD
HETATM   28  C   UNL     1      44.937  -8.187   8.664  1.00  0.00     0.030 A 
HETATM   29  C   UNL     1      45.720  -9.336   8.788  1.00  0.00     0.002 A 
HETATM   30  C   UNL     1      45.188 -10.604   8.491  1.00  0.00     0.001 A 
HETATM   31  C   UNL     1      43.867 -10.747   8.048  1.00  0.00     0.016 A 
ENDBRANCH   2  20
TORSDOF 4
ENDMDL
MODEL 2
REMARK VINA RESULT:      -8.9      4.897      7.554
REMARK  4 active torsions:
REMARK  status: ('A' for Active; 'I' for Inactive)
REMARK    1  A    between atoms: C_3  and  C_4 
REMARK       I    between atoms: C_4  and  N_5 
REMARK    2  A    between atoms: N_5  and  N_6 
REMARK    3  A    between atoms: C_21  and  C_22 
REMARK    4  A    between atoms: C_25  and  O_26 
ROOT
HETATM    1  C   UNL     1      39.934 -12.490   2.297  1.00  0.00     0.290 C 
HETATM    2  N   UNL     1      40.360 -11.825   1.157  1.00  0.00    -0.241 N 
HETATM    3  O   UNL     1      38.880 -12.248   2.880  1.00  0.00    -0.264 OA
HETATM    4  H   UNL     1      41.236 -12.072   0.731  1.00  0.00     0.192 HD
ENDROOT
BRANCH   1   5
HETATM    5  C   UNL     1      40.864 -13.462   2.828  1.00  0.00     0.127 A 
HETATM    6  C   UNL     1      41.000 -14.845   2.770  1.00  0.00     0.003 A 
HETATM    7  C   UNL     1      40.088 -15.842   2.150  1.00  0.00     0.053 C 
HETATM    8  C   UNL     1      42.204 -15.126   3.505  1.00  0.00     0.095 A 
HETATM    9  N   UNL     1      42.718 -14.004   4.026  1.00  0.00    -0.173 NA
HETATM   10  N   UNL     1      41.880 -13.039   3.640  1.00  0.00    -0.272 N 
HETATM   11  H   UNL     1      42.052 -12.084   3.943  1.00  0.00     0.189 HD
BRANCH   8  12
HETATM   12  C   UNL     1      42.857 -16.414   3.745  1.00  0.00    -0.005 A 
HETATM   13  C   UNL     1      43.089 -16.848   5.056  1.00  0.00     0.016 A 
HETATM   14  C   UNL     1      43.699 -18.082   5.297  1.00  0.00     0.037 A 
HETATM   15  C   UNL     1      44.088 -18.902   4.237  1.00  0.00     0.068 A 
HETATM   16  C   UNL     1      43.885 -18.465   2.928  1.00  0.00     0.037 A 
HETATM   17  C   UNL     1      43.276 -17.226   2.685  1.00  0.00     0.016 A 
BRANCH  15  18
HETATM   18  O   UNL     1      44.662 -20.087   4.609  1.00  0.00    -0.356 OA
HETATM   19  C   UNL     1      43.896 -20.930   5.460  1.00  0.00     0.210 C 
ENDBRANCH  15  18
ENDBRANCH   8  12
ENDBRANCH   1   5
BRANCH   2  20
HETATM   20  N   UNL     1      39.515 -10.989   0.496  1.00  0.00    -0.165 NA
HETATM   21  C   UNL     1      38.812 -11.432  -0.497  1.00  0.00     0.157 A 
HETATM   22  C   UNL     1      37.716 -10.554  -1.140  1.00  0.00     0.277 A 
HETATM   23  C   UNL     1      38.786 -12.703  -1.237  1.00  0.00     0.027 A 
HETATM   24  O   UNL     1      37.435  -9.413  -0.850  1.00  0.00    -0.266 OA
HETATM   25  N   UNL     1      37.121 -11.351  -2.090  1.00  0.00    -0.321 N 
HETATM   26  C   UNL     1      37.739 -12.593  -2.158  1.00  0.00     0.048 A 
HETATM   27  H   UNL     1      36.365 -11.026  -2.674  1.00  0.00     0.169 HD
HETATM   28  C   UNL     1      37.419 -13.610  -3.035  1.00  0.00     0.030 A 
HETATM   29  C   UNL     1      38.197 -14.769  -2.988  1.00  0.00     0.002 A 
HETATM   30  C   UNL     1      39.275 -14.876  -2.090  1.00  0.00     0.001 A 
HETATM   31  C   UNL     1      39.585 -13.832  -1.209  1.00  0.00     0.016 A 
ENDBRANCH   2  20
TORSDOF 4
ENDMDL
MODEL 3
REMARK VINA RESULT:      -8.7      3.338      9.234
REMARK  4 active torsions:
REMARK  status: ('A' for Active; 'I' for Inactive)
REMARK    1  A    between atoms: C_3  and  C_4 
REMARK       I    between atoms: C_4  and  N_5 
REMARK    2  A    between atoms: N_5  and  N_6 
REMARK    3  A    between atoms: C_21  and  C_22 
REMARK    4  A    between atoms: C_25  and  O_26 
ROOT
HETATM    1  C   UNL     1      43.799 -11.855   4.996  1.00  0.00     0.290 C 
HETATM    2  N   UNL     1      42.920 -12.919   4.858  1.00  0.00    -0.241 N 
HETATM    3  O   UNL     1      44.454 -11.380   4.073  1.00  0.00    -0.264 OA
HETATM    4  H   UNL     1      42.417 -13.261   5.658  1.00  0.00     0.192 HD
ENDROOT
BRANCH   1   5
HETATM    5  C   UNL     1      43.971 -11.370   6.348  1.00  0.00     0.127 A 
HETATM    6  C   UNL     1      43.232 -10.583   7.226  1.00  0.00     0.003 A 
HETATM    7  C   UNL     1      41.953  -9.867   6.977  1.00  0.00     0.053 C 
HETATM    8  C   UNL     1      44.008 -10.554   8.435  1.00  0.00     0.095 A 
HETATM    9  N   UNL     1      45.163 -11.215   8.277  1.00  0.00    -0.173 NA
HETATM   10  N   UNL     1      45.130 -11.655   7.017  1.00  0.00    -0.272 N 
HETATM   11  H   UNL     1      45.925 -12.172   6.652  1.00  0.00     0.189 HD
BRANCH   8  12
HETATM   12  C   UNL     1      43.703  -9.903   9.711  1.00  0.00    -0.005 A 
HETATM   13  C   UNL     1      43.545 -10.672  10.870  1.00  0.00     0.016 A 
HETATM   14  C   UNL     1      43.267 -10.060  12.095  1.00  0.00     0.037 A 
HETATM   15  C   UNL     1      43.141  -8.673  12.184  1.00  0.00     0.068 A 
HETATM   16  C   UNL     1      43.271  -7.901  11.029  1.00  0.00     0.037 A 
HETATM   17  C   UNL     1      43.547  -8.515   9.799  1.00  0.00     0.016 A 
BRANCH  15  18
HETATM   18  O   UNL     1      42.881  -8.200  13.441  1.00  0.00    -0.356 OA
HETATM   19  C   UNL     1      42.008  -8.979  14.250  1.00  0.00     0.210 C 
ENDBRANCH  15  18
ENDBRANCH   8  12
ENDBRANCH   1   5
BRANCH   2  20
HETATM   20  N   UNL     1      42.579 -13.369   3.620  1.00  0.00    -0.165 NA
HETATM   21  C   UNL     1      42.685 -14.628   3.337  1.00  0.00     0.157 A 
HETATM   22  C   UNL     1      42.131 -15.185   2.007  1.00  0.00     0.277 A 
HETATM   23  C   UNL     1      43.251 -15.785   4.046  1.00  0.00     0.027 A 
HETATM   24  O   UNL     1      41.615 -14.554   1.112  1.00  0.00    -0.266 OA
HETATM   25  N   UNL     1      42.333 -16.544   2.070  1.00  0.00    -0.321 N 
HETATM   26  C   UNL     1      42.987 -16.898   3.243  1.00  0.00     0.048 A 
HETATM   27  H   UNL     1      42.066 -17.167   1.322  1.00  0.00     0.169 HD
HETATM   28  C   UNL     1      43.381 -18.173   3.597  1.00  0.00     0.030 A 
HETATM   29  C   UNL     1      44.080 -18.321   4.796  1.00  0.00     0.002 A 
HETATM   30  C   UNL     1      44.383 -17.202   5.595  1.00  0.00     0.001 A 
HETATM   31  C   UNL     1      43.977 -15.916   5.217  1.00  0.00     0.016 A 
ENDBRANCH   2  20
TORSDOF 4
ENDMDL
MODEL 4
REMARK VINA RESULT:      -8.4      5.294      8.971
REMARK  4 active torsions:
REMARK  status: ('A' for Active; 'I' for Inactive)
REMARK    1  A    between atoms: C_3  and  C_4 
REMARK       I    between atoms: C_4  and  N_5 
REMARK    2  A    between atoms: N_5  and  N_6 
REMARK    3  A    between atoms: C_21  and  C_22 
REMARK    4  A    between atoms: C_25  and  O_26 
ROOT
HETATM    1  C   UNL     1      40.989 -14.872   2.835  1.00  0.00     0.290 C 
HETATM    2  N   UNL     1      42.355 -14.804   3.065  1.00  0.00    -0.241 N 
HETATM    3  O   UNL     1      40.190 -15.407   3.598  1.00  0.00    -0.264 OA
HETATM    4  H   UNL     1      42.955 -14.354   2.397  1.00  0.00     0.192 HD
ENDROOT
BRANCH   1   5
HETATM    5  C   UNL     1      40.551 -14.333   1.567  1.00  0.00     0.127 A 
HETATM    6  C   UNL     1      40.384 -13.060   1.029  1.00  0.00     0.003 A 
HETATM    7  C   UNL     1      40.545 -11.743   1.698  1.00  0.00     0.053 C 
HETATM    8  C   UNL     1      39.954 -13.287  -0.324  1.00  0.00     0.095 A 
HETATM    9  N   UNL     1      39.806 -14.597  -0.565  1.00  0.00    -0.173 NA
HETATM   10  N   UNL     1      40.129 -15.190   0.587  1.00  0.00    -0.272 N 
HETATM   11  H   UNL     1      40.066 -16.202   0.657  1.00  0.00     0.189 HD
BRANCH   8  12
HETATM   12  C   UNL     1      39.659 -12.309  -1.373  1.00  0.00    -0.005 A 
HETATM   13  C   UNL     1      40.701 -11.746  -2.119  1.00  0.00     0.016 A 
HETATM   14  C   UNL     1      40.429 -10.821  -3.131  1.00  0.00     0.037 A 
HETATM   15  C   UNL     1      39.115 -10.444  -3.415  1.00  0.00     0.068 A 
HETATM   16  C   UNL     1      38.074 -10.980  -2.659  1.00  0.00     0.037 A 
HETATM   17  C   UNL     1      38.346 -11.905  -1.641  1.00  0.00     0.016 A 
BRANCH  15  18
HETATM   18  O   UNL     1      38.986  -9.543  -4.436  1.00  0.00    -0.356 OA
HETATM   19  C   UNL     1      40.141  -8.785  -4.772  1.00  0.00     0.210 C 
ENDBRANCH  15  18
ENDBRANCH   8  12
ENDBRANCH   1   5
BRANCH   2  20
HETATM   20  N   UNL     1      42.863 -15.157   4.277  1.00  0.00    -0.165 NA
HETATM   21  C   UNL     1      43.317 -16.356   4.464  1.00  0.00     0.157 A 
HETATM   22  C   UNL     1      44.064 -16.720   5.767  1.00  0.00     0.277 A 
HETATM   23  C   UNL     1      43.309 -17.584   3.656  1.00  0.00     0.027 A 
HETATM   24  O   UNL     1      44.257 -16.000   6.720  1.00  0.00    -0.266 OA
HETATM   25  N   UNL     1      44.475 -18.022   5.598  1.00  0.00    -0.321 N 
HETATM   26  C   UNL     1      44.035 -18.531   4.383  1.00  0.00     0.048 A 
HETATM   27  H   UNL     1      44.989 -18.524   6.307  1.00  0.00     0.169 HD
HETATM   28  C   UNL     1      44.234 -19.818   3.925  1.00  0.00     0.030 A 
HETATM   29  C   UNL     1      43.664 -20.160   2.698  1.00  0.00     0.002 A 
HETATM   30  C   UNL     1      42.901 -19.224   1.974  1.00  0.00     0.001 A 
HETATM   31  C   UNL     1      42.708 -17.924   2.457  1.00  0.00     0.016 A 
ENDBRANCH   2  20
TORSDOF 4
ENDMDL
MODEL 5
REMARK VINA RESULT:      -8.1     18.041     19.256
REMARK  4 active torsions:
REMARK  status: ('A' for Active; 'I' for Inactive)
REMARK    1  A    between atoms: C_3  and  C_4 
REMARK       I    between atoms: C_4  and  N_5 
REMARK    2  A    between atoms: N_5  and  N_6 
REMARK    3  A    between atoms: C_21  and  C_22 
REMARK    4  A    between atoms: C_25  and  O_26 
ROOT
HETATM    1  C   UNL     1      45.124 -29.797  -0.286  1.00  0.00     0.290 C 
HETATM    2  N   UNL     1      46.295 -29.583   0.424  1.00  0.00    -0.241 N 
HETATM    3  O   UNL     1      45.053 -29.787  -1.512  1.00  0.00    -0.264 OA
HETATM    4  H   UNL     1      46.283 -29.603   1.429  1.00  0.00     0.192 HD
ENDROOT
BRANCH   1   5
HETATM    5  C   UNL     1      43.935 -29.959   0.520  1.00  0.00     0.127 A 
HETATM    6  C   UNL     1      43.410 -30.960   1.332  1.00  0.00     0.003 A 
HETATM    7  C   UNL     1      43.931 -32.332   1.566  1.00  0.00     0.053 C 
HETATM    8  C   UNL     1      42.196 -30.403   1.864  1.00  0.00     0.095 A 
HETATM    9  N   UNL     1      41.969 -29.183   1.357  1.00  0.00    -0.173 NA
HETATM   10  N   UNL     1      42.997 -28.963   0.534  1.00  0.00    -0.272 N 
HETATM   11  H   UNL     1      43.030 -28.096   0.005  1.00  0.00     0.189 HD
BRANCH   8  12
HETATM   12  C   UNL     1      41.245 -30.996   2.805  1.00  0.00    -0.005 A 
HETATM   13  C   UNL     1      40.357 -31.988   2.372  1.00  0.00     0.016 A 
HETATM   14  C   UNL     1      39.454 -32.571   3.265  1.00  0.00     0.037 A 
HETATM   15  C   UNL     1      39.421 -32.175   4.603  1.00  0.00     0.068 A 
HETATM   16  C   UNL     1      40.284 -31.168   5.036  1.00  0.00     0.037 A 
HETATM   17  C   UNL     1      41.188 -30.580   4.140  1.00  0.00     0.016 A 
BRANCH  15  18
HETATM   18  O   UNL     1      38.501 -32.831   5.373  1.00  0.00    -0.356 OA
HETATM   19  C   UNL     1      37.367 -33.365   4.701  1.00  0.00     0.210 C 
ENDBRANCH  15  18
ENDBRANCH   8  12
ENDBRANCH   1   5
BRANCH   2  20
HETATM   20  N   UNL     1      47.492 -29.552  -0.222  1.00  0.00    -0.165 NA
HETATM   21  C   UNL     1      48.589 -29.749   0.437  1.00  0.00     0.157 A 
HETATM   22  C   UNL     1      49.936 -29.901  -0.303  1.00  0.00     0.277 A 
HETATM   23  C   UNL     1      48.905 -29.892   1.867  1.00  0.00     0.027 A 
HETATM   24  O   UNL     1      50.125 -29.811  -1.495  1.00  0.00    -0.266 OA
HETATM   25  N   UNL     1      50.861 -30.179   0.677  1.00  0.00    -0.321 N 
HETATM   26  C   UNL     1      50.273 -30.168   1.935  1.00  0.00     0.048 A 
HETATM   27  H   UNL     1      51.839 -30.323   0.474  1.00  0.00     0.169 HD
HETATM   28  C   UNL     1      50.927 -30.362   3.136  1.00  0.00     0.030 A 
HETATM   29  C   UNL     1      50.171 -30.256   4.305  1.00  0.00     0.002 A 
HETATM   30  C   UNL     1      48.800 -29.943   4.248  1.00  0.00     0.001 A 
HETATM   31  C   UNL     1      48.155 -29.747   3.021  1.00  0.00     0.016 A 
ENDBRANCH   2  20
TORSDOF 4
ENDMDL
MODEL 6
REMARK VINA RESULT:      -7.8      4.675      6.518
REMARK  4 active torsions:
REMARK  status: ('A' for Active; 'I' for Inactive)
REMARK    1  A    between atoms: C_3  and  C_4 
REMARK       I    between atoms: C_4  and  N_5 
REMARK    2  A    between atoms: N_5  and  N_6 
REMARK    3  A    between atoms: C_21  and  C_22 
REMARK    4  A    between atoms: C_25  and  O_26 
ROOT
HETATM    1  C   UNL     1      39.695 -12.295   2.430  1.00  0.00     0.290 C 
HETATM    2  N   UNL     1      40.624 -11.353   2.014  1.00  0.00    -0.241 N 
HETATM    3  O   UNL     1      38.524 -12.036   2.690  1.00  0.00    -0.264 OA
HETATM    4  H   UNL     1      41.570 -11.633   1.820  1.00  0.00     0.192 HD
ENDROOT
BRANCH   1   5
HETATM    5  C   UNL     1      40.217 -13.629   2.627  1.00  0.00     0.127 A 
HETATM    6  C   UNL     1      41.447 -14.177   2.979  1.00  0.00     0.003 A 
HETATM    7  C   UNL     1      42.742 -13.481   3.200  1.00  0.00     0.053 C 
HETATM    8  C   UNL     1      41.217 -15.595   3.029  1.00  0.00     0.095 A 
HETATM    9  N   UNL     1      39.960 -15.888   2.666  1.00  0.00    -0.173 NA
HETATM   10  N   UNL     1      39.403 -14.705   2.395  1.00  0.00    -0.272 N 
HETATM   11  H   UNL     1      38.442 -14.674   2.069  1.00  0.00     0.189 HD
BRANCH   8  12
HETATM   12  C   UNL     1      42.149 -16.668   3.380  1.00  0.00    -0.005 A 
HETATM   13  C   UNL     1      42.603 -16.798   4.698  1.00  0.00     0.016 A 
HETATM   14  C   UNL     1      43.482 -17.827   5.047  1.00  0.00     0.037 A 
HETATM   15  C   UNL     1      43.924 -18.741   4.089  1.00  0.00     0.068 A 
HETATM   16  C   UNL     1      43.497 -18.602   2.768  1.00  0.00     0.037 A 
HETATM   17  C   UNL     1      42.617 -17.568   2.416  1.00  0.00     0.016 A 
BRANCH  15  18
HETATM   18  O   UNL     1      44.770 -19.704   4.562  1.00  0.00    -0.356 OA
HETATM   19  C   UNL     1      44.184 -20.760   5.312  1.00  0.00     0.210 C 
ENDBRANCH  15  18
ENDBRANCH   8  12
ENDBRANCH   1   5
BRANCH   2  20
HETATM   20  N   UNL     1      40.222 -10.100   1.669  1.00  0.00    -0.165 NA
HETATM   21  C   UNL     1      40.092  -9.783   0.420  1.00  0.00     0.157 A 
HETATM   22  C   UNL     1      39.462  -8.433   0.013  1.00  0.00     0.277 A 
HETATM   23  C   UNL     1      40.420 -10.464  -0.841  1.00  0.00     0.027 A 
HETATM   24  O   UNL     1      39.087  -7.552   0.753  1.00  0.00    -0.266 OA
HETATM   25  N   UNL     1      39.402  -8.460  -1.362  1.00  0.00    -0.321 N 
HETATM   26  C   UNL     1      39.962  -9.628  -1.863  1.00  0.00     0.048 A 
HETATM   27  H   UNL     1      39.034  -7.692  -1.903  1.00  0.00     0.169 HD
HETATM   28  C   UNL     1      40.103  -9.950  -3.198  1.00  0.00     0.030 A 
HETATM   29  C   UNL     1      40.746 -11.150  -3.506  1.00  0.00     0.002 A 
HETATM   30  C   UNL     1      41.242 -11.982  -2.485  1.00  0.00     0.001 A 
HETATM   31  C   UNL     1      41.091 -11.637  -1.137  1.00  0.00     0.016 A 
ENDBRANCH   2  20
TORSDOF 4
ENDMDL
MODEL 7
REMARK VINA RESULT:      -7.8      1.810      1.945
REMARK  4 active torsions:
REMARK  status: ('A' for Active; 'I' for Inactive)
REMARK    1  A    between atoms: C_3  and  C_4 
REMARK       I    between atoms: C_4  and  N_5 
REMARK    2  A    between atoms: N_5  and  N_6 
REMARK    3  A    between atoms: C_21  and  C_22 
REMARK    4  A    between atoms: C_25  and  O_26 
ROOT
HETATM    1  C   UNL     1      41.188 -11.247   6.160  1.00  0.00     0.290 C 
HETATM    2  N   UNL     1      42.286 -10.401   6.140  1.00  0.00    -0.241 N 
HETATM    3  O   UNL     1      40.074 -10.918   6.556  1.00  0.00    -0.264 OA
HETATM    4  H   UNL     1      43.172 -10.736   5.804  1.00  0.00     0.192 HD
ENDROOT
BRANCH   1   5
HETATM    5  C   UNL     1      41.452 -12.609   5.751  1.00  0.00     0.127 A 
HETATM    6  C   UNL     1      42.419 -13.567   6.042  1.00  0.00     0.003 A 
HETATM    7  C   UNL     1      43.636 -13.430   6.885  1.00  0.00     0.053 C 
HETATM    8  C   UNL     1      42.021 -14.729   5.295  1.00  0.00     0.095 A 
HETATM    9  N   UNL     1      40.935 -14.470   4.553  1.00  0.00    -0.173 NA
HETATM   10  N   UNL     1      40.645 -13.194   4.814  1.00  0.00    -0.272 N 
HETATM   11  H   UNL     1      39.860 -12.758   4.338  1.00  0.00     0.189 HD
BRANCH   8  12
HETATM   12  C   UNL     1      42.648 -16.051   5.244  1.00  0.00    -0.005 A 
HETATM   13  C   UNL     1      42.673 -16.858   6.387  1.00  0.00     0.016 A 
HETATM   14  C   UNL     1      43.257 -18.128   6.346  1.00  0.00     0.037 A 
HETATM   15  C   UNL     1      43.825 -18.611   5.167  1.00  0.00     0.068 A 
HETATM   16  C   UNL     1      43.828 -17.802   4.030  1.00  0.00     0.037 A 
HETATM   17  C   UNL     1      43.245 -16.527   4.071  1.00  0.00     0.016 A 
BRANCH  15  18
HETATM   18  O   UNL     1      44.351 -19.870   5.258  1.00  0.00    -0.356 OA
HETATM   19  C   UNL     1      44.024 -20.778   4.213  1.00  0.00     0.210 C 
ENDBRANCH  15  18
ENDBRANCH   8  12
ENDBRANCH   1   5
BRANCH   2  20
HETATM   20  N   UNL     1      42.129  -9.070   6.374  1.00  0.00    -0.165 NA
HETATM   21  C   UNL     1      42.518  -8.561   7.500  1.00  0.00     0.157 A 
HETATM   22  C   UNL     1      42.519  -7.031   7.713  1.00  0.00     0.277 A 
HETATM   23  C   UNL     1      43.023  -9.136   8.755  1.00  0.00     0.027 A 
HETATM   24  O   UNL     1      42.139  -6.187   6.933  1.00  0.00    -0.266 OA
HETATM   25  N   UNL     1      43.061  -6.838   8.963  1.00  0.00    -0.321 N 
HETATM   26  C   UNL     1      43.348  -8.051   9.575  1.00  0.00     0.048 A 
HETATM   27  H   UNL     1      43.178  -5.921   9.367  1.00  0.00     0.169 HD
HETATM   28  C   UNL     1      43.856  -8.215  10.848  1.00  0.00     0.030 A 
HETATM   29  C   UNL     1      44.024  -9.522  11.310  1.00  0.00     0.002 A 
HETATM   30  C   UNL     1      43.667 -10.621  10.507  1.00  0.00     0.001 A 
HETATM   31  C   UNL     1      43.150 -10.434   9.218  1.00  0.00     0.016 A 
ENDBRANCH   2  20
TORSDOF 4
ENDMDL
MODEL 8
REMARK VINA RESULT:      -7.4      3.550      4.265
REMARK  4 active torsions:
REMARK  status: ('A' for Active; 'I' for Inactive)
REMARK    1  A    between atoms: C_3  and  C_4 
REMARK       I    between atoms: C_4  and  N_5 
REMARK    2  A    between atoms: N_5  and  N_6 
REMARK    3  A    between atoms: C_21  and  C_22 
REMARK    4  A    between atoms: C_25  and  O_26 
ROOT
HETATM    1  C   UNL     1      39.917 -11.708   5.858  1.00  0.00     0.290 C 
HETATM    2  N   UNL     1      40.967 -10.830   6.075  1.00  0.00    -0.241 N 
HETATM    3  O   UNL     1      39.059 -11.974   6.696  1.00  0.00    -0.264 OA
HETATM    4  H   UNL     1      41.637 -10.659   5.346  1.00  0.00     0.192 HD
ENDROOT
BRANCH   1   5
HETATM    5  C   UNL     1      39.930 -12.380   4.578  1.00  0.00     0.127 A 
HETATM    6  C   UNL     1      39.689 -12.013   3.257  1.00  0.00     0.003 A 
HETATM    7  C   UNL     1      39.218 -10.706   2.729  1.00  0.00     0.053 C 
HETATM    8  C   UNL     1      39.938 -13.206   2.494  1.00  0.00     0.095 A 
HETATM    9  N   UNL     1      40.238 -14.234   3.299  1.00  0.00    -0.173 NA
HETATM   10  N   UNL     1      40.187 -13.723   4.531  1.00  0.00    -0.272 N 
HETATM   11  H   UNL     1      40.357 -14.333   5.327  1.00  0.00     0.189 HD
BRANCH   8  12
HETATM   12  C   UNL     1      39.874 -13.402   1.044  1.00  0.00    -0.005 A 
HETATM   13  C   UNL     1      39.746 -14.693   0.517  1.00  0.00     0.016 A 
HETATM   14  C   UNL     1      39.669 -14.890  -0.865  1.00  0.00     0.037 A 
HETATM   15  C   UNL     1      39.721 -13.805  -1.742  1.00  0.00     0.068 A 
HETATM   16  C   UNL     1      39.875 -12.519  -1.225  1.00  0.00     0.037 A 
HETATM   17  C   UNL     1      39.955 -12.320   0.160  1.00  0.00     0.016 A 
BRANCH  15  18
HETATM   18  O   UNL     1      39.623 -14.133  -3.065  1.00  0.00    -0.356 OA
HETATM   19  C   UNL     1      38.381 -14.669  -3.503  1.00  0.00     0.210 C 
ENDBRANCH  15  18
ENDBRANCH   8  12
ENDBRANCH   1   5
BRANCH   2  20
HETATM   20  N   UNL     1      40.985 -10.044   7.186  1.00  0.00    -0.165 NA
HETATM   21  C   UNL     1      42.112  -9.738   7.745  1.00  0.00     0.157 A 
HETATM   22  C   UNL     1      42.168  -8.702   8.889  1.00  0.00     0.277 A 
HETATM   23  C   UNL     1      43.502 -10.168   7.532  1.00  0.00     0.027 A 
HETATM   24  O   UNL     1      41.231  -8.130   9.399  1.00  0.00    -0.266 OA
HETATM   25  N   UNL     1      43.503  -8.558   9.185  1.00  0.00    -0.321 N 
HETATM   26  C   UNL     1      44.281  -9.409   8.410  1.00  0.00     0.048 A 
HETATM   27  H   UNL     1      43.834  -7.938   9.909  1.00  0.00     0.169 HD
HETATM   28  C   UNL     1      45.652  -9.548   8.487  1.00  0.00     0.030 A 
HETATM   29  C   UNL     1      46.250 -10.501   7.660  1.00  0.00     0.002 A 
HETATM   30  C   UNL     1      45.471 -11.295   6.799  1.00  0.00     0.001 A 
HETATM   31  C   UNL     1      44.081 -11.141   6.736  1.00  0.00     0.016 A 
ENDBRANCH   2  20
TORSDOF 4
ENDMDL
MODEL 9
REMARK VINA RESULT:      -7.4      4.646      6.713
REMARK  4 active torsions:
REMARK  status: ('A' for Active; 'I' for Inactive)
REMARK    1  A    between atoms: C_3  and  C_4 
REMARK       I    between atoms: C_4  and  N_5 
REMARK    2  A    between atoms: N_5  and  N_6 
REMARK    3  A    between atoms: C_21  and  C_22 
REMARK    4  A    between atoms: C_25  and  O_26 
ROOT
HETATM    1  C   UNL     1      40.301 -11.834   3.445  1.00  0.00     0.290 C 
HETATM    2  N   UNL     1      39.182 -11.766   2.630  1.00  0.00    -0.241 N 
HETATM    3  O   UNL     1      40.939 -10.853   3.818  1.00  0.00    -0.264 OA
HETATM    4  H   UNL     1      38.707 -12.609   2.358  1.00  0.00     0.192 HD
ENDROOT
BRANCH   1   5
HETATM    5  C   UNL     1      40.741 -13.171   3.777  1.00  0.00     0.127 A 
HETATM    6  C   UNL     1      41.780 -14.006   3.377  1.00  0.00     0.003 A 
HETATM    7  C   UNL     1      42.801 -13.776   2.321  1.00  0.00     0.053 C 
HETATM    8  C   UNL     1      41.624 -15.193   4.173  1.00  0.00     0.095 A 
HETATM    9  N   UNL     1      40.532 -15.109   4.946  1.00  0.00    -0.173 NA
HETATM   10  N   UNL     1      40.007 -13.915   4.659  1.00  0.00    -0.272 N 
HETATM   11  H   UNL     1      39.142 -13.633   5.112  1.00  0.00     0.189 HD
BRANCH   8  12
HETATM   12  C   UNL     1      42.454 -16.398   4.203  1.00  0.00    -0.005 A 
HETATM   13  C   UNL     1      43.008 -16.838   5.411  1.00  0.00     0.016 A 
HETATM   14  C   UNL     1      43.791 -17.995   5.453  1.00  0.00     0.037 A 
HETATM   15  C   UNL     1      44.033 -18.732   4.292  1.00  0.00     0.068 A 
HETATM   16  C   UNL     1      43.507 -18.286   3.080  1.00  0.00     0.037 A 
HETATM   17  C   UNL     1      42.724 -17.123   3.036  1.00  0.00     0.016 A 
BRANCH  15  18
HETATM   18  O   UNL     1      44.803 -19.848   4.472  1.00  0.00    -0.356 OA
HETATM   19  C   UNL     1      44.249 -20.886   5.271  1.00  0.00     0.210 C 
ENDBRANCH  15  18
ENDBRANCH   8  12
ENDBRANCH   1   5
BRANCH   2  20
HETATM   20  N   UNL     1      38.600 -10.565   2.363  1.00  0.00    -0.165 NA
HETATM   21  C   UNL     1      38.008 -10.370   1.228  1.00  0.00     0.157 A 
HETATM   22  C   UNL     1      37.185  -9.086   0.980  1.00  0.00     0.277 A 
HETATM   23  C   UNL     1      37.900 -11.155  -0.011  1.00  0.00     0.027 A 
HETATM   24  O   UNL     1      37.047  -8.153   1.738  1.00  0.00    -0.266 OA
HETATM   25  N   UNL     1      36.635  -9.243  -0.271  1.00  0.00    -0.321 N 
HETATM   26  C   UNL     1      37.050 -10.434  -0.854  1.00  0.00     0.048 A 
HETATM   27  H   UNL     1      36.046  -8.543  -0.696  1.00  0.00     0.169 HD
HETATM   28  C   UNL     1      36.720 -10.874  -2.120  1.00  0.00     0.030 A 
HETATM   29  C   UNL     1      37.285 -12.076  -2.551  1.00  0.00     0.002 A 
HETATM   30  C   UNL     1      38.170 -12.792  -1.724  1.00  0.00     0.001 A 
HETATM   31  C   UNL     1      38.495 -12.327  -0.443  1.00  0.00     0.016 A 
ENDBRANCH   2  20
TORSDOF 4
ENDMDL
MODEL 10
REMARK VINA RESULT:      -7.4      3.004      4.254
REMARK  4 active torsions:
REMARK  status: ('A' for Active; 'I' for Inactive)
REMARK    1  A    between atoms: C_3  and  C_4 
REMARK       I    between atoms: C_4  and  N_5 
REMARK    2  A    between atoms: N_5  and  N_6 
REMARK    3  A    between atoms: C_21  and  C_22 
REMARK    4  A    between atoms: C_25  and  O_26 
ROOT
HETATM    1  C   UNL     1      43.302  -9.315   7.857  1.00  0.00     0.290 C 
HETATM    2  N   UNL     1      42.175  -8.554   8.129  1.00  0.00    -0.241 N 
HETATM    3  O   UNL     1      44.451  -8.945   8.083  1.00  0.00    -0.264 OA
HETATM    4  H   UNL     1      41.262  -8.917   7.916  1.00  0.00     0.192 HD
ENDROOT
BRANCH   1   5
HETATM    5  C   UNL     1      43.050 -10.576   7.196  1.00  0.00     0.127 A 
HETATM    6  C   UNL     1      43.827 -11.641   6.751  1.00  0.00     0.003 A 
HETATM    7  C   UNL     1      45.308 -11.773   6.752  1.00  0.00     0.053 C 
HETATM    8  C   UNL     1      42.883 -12.589   6.223  1.00  0.00     0.095 A 
HETATM    9  N   UNL     1      41.636 -12.102   6.280  1.00  0.00    -0.173 NA
HETATM   10  N   UNL     1      41.771 -10.891   6.825  1.00  0.00    -0.272 N 
HETATM   11  H   UNL     1      40.947 -10.309   6.948  1.00  0.00     0.189 HD
BRANCH   8  12
HETATM   12  C   UNL     1      43.130 -13.913   5.649  1.00  0.00    -0.005 A 
HETATM   13  C   UNL     1      43.716 -14.917   6.430  1.00  0.00     0.016 A 
HETATM   14  C   UNL     1      43.944 -16.188   5.896  1.00  0.00     0.037 A 
HETATM   15  C   UNL     1      43.593 -16.478   4.576  1.00  0.00     0.068 A 
HETATM   16  C   UNL     1      43.034 -15.476   3.784  1.00  0.00     0.037 A 
HETATM   17  C   UNL     1      42.808 -14.199   4.318  1.00  0.00     0.016 A 
BRANCH  15  18
HETATM   18  O   UNL     1      43.857 -17.761   4.182  1.00  0.00    -0.356 OA
HETATM   19  C   UNL     1      43.523 -18.101   2.842  1.00  0.00     0.210 C 
ENDBRANCH  15  18
ENDBRANCH   8  12
ENDBRANCH   1   5
BRANCH   2  20
HETATM   20  N   UNL     1      42.279  -7.415   8.865  1.00  0.00    -0.165 NA
HETATM   21  C   UNL     1      41.830  -7.387  10.080  1.00  0.00     0.157 A 
HETATM   22  C   UNL     1      42.102  -6.170  10.991  1.00  0.00     0.277 A 
HETATM   23  C   UNL     1      41.052  -8.329  10.898  1.00  0.00     0.027 A 
HETATM   24  O   UNL     1      42.681  -5.150  10.690  1.00  0.00    -0.266 OA
HETATM   25  N   UNL     1      41.567  -6.504  12.214  1.00  0.00    -0.321 N 
HETATM   26  C   UNL     1      40.951  -7.747  12.166  1.00  0.00     0.048 A 
HETATM   27  H   UNL     1      41.598  -5.881  13.007  1.00  0.00     0.169 HD
HETATM   28  C   UNL     1      40.277  -8.358  13.205  1.00  0.00     0.030 A 
HETATM   29  C   UNL     1      39.672  -9.589  12.945  1.00  0.00     0.002 A 
HETATM   30  C   UNL     1      39.738 -10.166  11.663  1.00  0.00     0.001 A 
HETATM   31  C   UNL     1      40.424  -9.530  10.620  1.00  0.00     0.016 A 
ENDBRANCH   2  20
TORSDOF 4
ENDMDL
