MODEL 1
REMARK VINA RESULT:      -9.1      0.000      0.000
REMARK  4 active torsions:
REMARK  status: ('A' for Active; 'I' for Inactive)
REMARK       I    between atoms: C_2  and  N_3 
REMARK    1  A    between atoms: N_3  and  C_4 
REMARK    2  A    between atoms: C_10  and  C_11 
REMARK    3  A    between atoms: C_14  and  C_15 
REMARK    4  A    between atoms: C_22  and  N_23 
REMARK       I    between atoms: N_23  and  C_24 
ROOT
HETATM    1  C   UNL     1      42.976 -11.891   6.440  1.00  0.00     0.010 A 
HETATM    2  C   UNL     1      43.958 -11.868   7.441  1.00  0.00     0.016 A 
HETATM    3  C   UNL     1      43.927 -10.912   8.462  1.00  0.00     0.017 A 
HETATM    4  C   UNL     1      42.915  -9.945   8.507  1.00  0.00     0.017 A 
HETATM    5  C   UNL     1      41.940  -9.958   7.498  1.00  0.00     0.017 A 
HETATM    6  C   UNL     1      41.968 -10.919   6.476  1.00  0.00     0.016 A 
ENDROOT
BRANCH   1   7
HETATM    7  C   UNL     1      43.049 -12.926   5.404  1.00  0.00     0.139 A 
HETATM    8  N   UNL     1      43.228 -12.679   4.060  1.00  0.00    -0.338 N 
HETATM    9  C   UNL     1      43.208 -13.871   3.383  1.00  0.00     0.063 A 
HETATM   10  H   UNL     1      43.325 -11.768   3.641  1.00  0.00     0.167 HD
HETATM   11  C   UNL     1      43.017 -14.823   4.375  1.00  0.00     0.088 A 
HETATM   12  C   UNL     1      43.329 -14.192   2.033  1.00  0.00     0.034 A 
HETATM   13  C   UNL     1      42.946 -16.182   4.028  1.00  0.00     0.063 A 
HETATM   14  N   UNL     1      42.919 -14.225   5.606  1.00  0.00    -0.228 NA
HETATM   15  C   UNL     1      43.064 -16.548   2.682  1.00  0.00     0.037 A 
HETATM   16  C   UNL     1      43.252 -15.553   1.707  1.00  0.00     0.032 A 
BRANCH  15  17
HETATM   17  N   UNL     1      43.007 -17.884   2.226  1.00  0.00    -0.327 N 
HETATM   18  C   UNL     1      43.715 -18.970   2.708  1.00  0.00     0.218 C 
HETATM   19  C   UNL     1      43.396 -20.248   1.972  1.00  0.00     0.117 C 
HETATM   20  O   UNL     1      44.510 -18.976   3.640  1.00  0.00    -0.274 OA
HETATM   21  H   UNL     1      42.367 -18.061   1.462  1.00  0.00     0.169 HD
ENDBRANCH  15  17
ENDBRANCH   1   7
BRANCH   4  22
HETATM   22  C   UNL     1      42.856  -8.939   9.565  1.00  0.00     0.180 A 
HETATM   23  O   UNL     1      43.138  -9.374  10.838  1.00  0.00    -0.289 OA
HETATM   24  C   UNL     1      43.001  -8.259  11.606  1.00  0.00     0.107 A 
HETATM   25  C   UNL     1      42.647  -7.211  10.777  1.00  0.00     0.095 A 
HETATM   26  C   UNL     1      43.174  -8.154  12.977  1.00  0.00     0.042 A 
HETATM   27  N   UNL     1      42.554  -7.653   9.480  1.00  0.00    -0.221 NA
HETATM   28  C   UNL     1      42.446  -5.941  11.336  1.00  0.00     0.064 A 
HETATM   29  C   UNL     1      42.610  -5.777  12.726  1.00  0.00     0.037 A 
HETATM   30  C   UNL     1      42.968  -6.877  13.522  1.00  0.00     0.032 A 
BRANCH  29  31
HETATM   31  N   UNL     1      42.398  -4.478  13.238  1.00  0.00    -0.327 N 
HETATM   32  C   UNL     1      41.293  -4.013  13.929  1.00  0.00     0.218 C 
HETATM   33  C   UNL     1      41.416  -2.562  14.327  1.00  0.00     0.117 C 
HETATM   34  O   UNL     1      40.282  -4.646  14.211  1.00  0.00    -0.274 OA
HETATM   35  H   UNL     1      43.143  -3.814  13.071  1.00  0.00     0.169 HD
ENDBRANCH  29  31
ENDBRANCH   4  22
TORSDOF 4
ENDMDL
MODEL 2
REMARK VINA RESULT:      -9.1      4.321     13.422
REMARK  4 active torsions:
REMARK  status: ('A' for Active; 'I' for Inactive)
REMARK       I    between atoms: C_2  and  N_3 
REMARK    1  A    between atoms: N_3  and  C_4 
REMARK    2  A    between atoms: C_10  and  C_11 
REMARK    3  A    between atoms: C_14  and  C_15 
REMARK    4  A    between atoms: C_22  and  N_23 
REMARK       I    between atoms: N_23  and  C_24 
ROOT
HETATM    1  C   UNL     1      42.219  -8.063  14.351  1.00  0.00     0.010 A 
HETATM    2  C   UNL     1      43.211  -7.432  13.587  1.00  0.00     0.016 A 
HETATM    3  C   UNL     1      43.555  -7.903  12.316  1.00  0.00     0.017 A 
HETATM    4  C   UNL     1      42.920  -9.027  11.774  1.00  0.00     0.017 A 
HETATM    5  C   UNL     1      41.937  -9.669  12.542  1.00  0.00     0.017 A 
HETATM    6  C   UNL     1      41.589  -9.194  13.816  1.00  0.00     0.016 A 
ENDROOT
BRANCH   1   7
HETATM    7  C   UNL     1      41.887  -7.516  15.670  1.00  0.00     0.139 A 
HETATM    8  N   UNL     1      42.081  -6.206  16.049  1.00  0.00    -0.338 N 
HETATM    9  C   UNL     1      41.697  -6.060  17.357  1.00  0.00     0.063 A 
HETATM   10  H   UNL     1      42.473  -5.482  15.469  1.00  0.00     0.167 HD
HETATM   11  C   UNL     1      41.266  -7.325  17.728  1.00  0.00     0.088 A 
HETATM   12  C   UNL     1      41.694  -4.968  18.223  1.00  0.00     0.034 A 
HETATM   13  C   UNL     1      40.793  -7.541  19.033  1.00  0.00     0.063 A 
HETATM   14  N   UNL     1      41.393  -8.205  16.684  1.00  0.00    -0.228 NA
HETATM   15  C   UNL     1      40.772  -6.471  19.935  1.00  0.00     0.037 A 
HETATM   16  C   UNL     1      41.221  -5.206  19.522  1.00  0.00     0.032 A 
BRANCH  15  17
HETATM   17  N   UNL     1      40.317  -6.580  21.269  1.00  0.00    -0.327 N 
HETATM   18  C   UNL     1      39.338  -7.427  21.758  1.00  0.00     0.218 C 
HETATM   19  C   UNL     1      39.115  -7.265  23.242  1.00  0.00     0.117 C 
HETATM   20  O   UNL     1      38.699  -8.259  21.125  1.00  0.00    -0.274 OA
HETATM   21  H   UNL     1      40.767  -5.970  21.938  1.00  0.00     0.169 HD
ENDBRANCH  15  17
ENDBRANCH   1   7
BRANCH   4  22
HETATM   22  C   UNL     1      43.256  -9.538  10.447  1.00  0.00     0.180 A 
HETATM   23  O   UNL     1      44.560  -9.927  10.254  1.00  0.00    -0.289 OA
HETATM   24  C   UNL     1      44.594 -10.339   8.957  1.00  0.00     0.107 A 
HETATM   25  C   UNL     1      43.327 -10.184   8.428  1.00  0.00     0.095 A 
HETATM   26  C   UNL     1      45.685 -10.830   8.258  1.00  0.00     0.042 A 
HETATM   27  N   UNL     1      42.482  -9.671   9.382  1.00  0.00    -0.221 NA
HETATM   28  C   UNL     1      43.101 -10.544   7.092  1.00  0.00     0.064 A 
HETATM   29  C   UNL     1      44.176 -11.049   6.334  1.00  0.00     0.037 A 
HETATM   30  C   UNL     1      45.443 -11.184   6.921  1.00  0.00     0.032 A 
BRANCH  29  31
HETATM   31  N   UNL     1      43.895 -11.398   4.994  1.00  0.00    -0.327 N 
HETATM   32  C   UNL     1      43.365 -12.587   4.524  1.00  0.00     0.218 C 
HETATM   33  C   UNL     1      43.198 -12.605   3.024  1.00  0.00     0.117 C 
HETATM   34  O   UNL     1      43.055 -13.567   5.191  1.00  0.00    -0.274 OA
HETATM   35  H   UNL     1      44.115 -10.693   4.302  1.00  0.00     0.169 HD
ENDBRANCH  29  31
ENDBRANCH   4  22
TORSDOF 4
ENDMDL
MODEL 3
REMARK VINA RESULT:      -9.1      4.366     13.892
REMARK  4 active torsions:
REMARK  status: ('A' for Active; 'I' for Inactive)
REMARK       I    between atoms: C_2  and  N_3 
REMARK    1  A    between atoms: N_3  and  C_4 
REMARK    2  A    between atoms: C_10  and  C_11 
REMARK    3  A    between atoms: C_14  and  C_15 
REMARK    4  A    between atoms: C_22  and  N_23 
REMARK       I    between atoms: N_23  and  C_24 
ROOT
HETATM    1  C   UNL     1      42.143  -7.954  14.772  1.00  0.00     0.010 A 
HETATM    2  C   UNL     1      41.455  -9.031  14.196  1.00  0.00     0.016 A 
HETATM    3  C   UNL     1      41.790  -9.507  12.924  1.00  0.00     0.017 A 
HETATM    4  C   UNL     1      42.820  -8.912  12.186  1.00  0.00     0.017 A 
HETATM    5  C   UNL     1      43.500  -7.825  12.754  1.00  0.00     0.017 A 
HETATM    6  C   UNL     1      43.168  -7.350  14.032  1.00  0.00     0.016 A 
ENDROOT
BRANCH   1   7
HETATM    7  C   UNL     1      41.761  -7.507  16.115  1.00  0.00     0.139 A 
HETATM    8  N   UNL     1      41.079  -8.274  17.033  1.00  0.00    -0.338 N 
HETATM    9  C   UNL     1      40.858  -7.526  18.161  1.00  0.00     0.063 A 
HETATM   10  H   UNL     1      40.765  -9.220  16.886  1.00  0.00     0.167 HD
HETATM   11  C   UNL     1      41.439  -6.299  17.874  1.00  0.00     0.088 A 
HETATM   12  C   UNL     1      40.216  -7.803  19.367  1.00  0.00     0.034 A 
HETATM   13  C   UNL     1      41.397  -5.272  18.832  1.00  0.00     0.063 A 
HETATM   14  N   UNL     1      41.984  -6.305  16.616  1.00  0.00    -0.228 NA
HETATM   15  C   UNL     1      40.763  -5.509  20.057  1.00  0.00     0.037 A 
HETATM   16  C   UNL     1      40.183  -6.764  20.307  1.00  0.00     0.032 A 
BRANCH  15  17
HETATM   17  N   UNL     1      40.665  -4.546  21.086  1.00  0.00    -0.327 N 
HETATM   18  C   UNL     1      41.602  -4.257  22.062  1.00  0.00     0.218 C 
HETATM   19  C   UNL     1      41.152  -3.163  22.999  1.00  0.00     0.117 C 
HETATM   20  O   UNL     1      42.706  -4.771  22.199  1.00  0.00    -0.274 OA
HETATM   21  H   UNL     1      39.810  -4.005  21.102  1.00  0.00     0.169 HD
ENDBRANCH  15  17
ENDBRANCH   1   7
BRANCH   4  22
HETATM   22  C   UNL     1      43.194  -9.392  10.857  1.00  0.00     0.180 A 
HETATM   23  O   UNL     1      44.514  -9.728  10.679  1.00  0.00    -0.289 OA
HETATM   24  C   UNL     1      44.582 -10.123   9.378  1.00  0.00     0.107 A 
HETATM   25  C   UNL     1      43.316 -10.011   8.833  1.00  0.00     0.095 A 
HETATM   26  C   UNL     1      45.700 -10.562   8.688  1.00  0.00     0.042 A 
HETATM   27  N   UNL     1      42.439  -9.543   9.781  1.00  0.00    -0.221 NA
HETATM   28  C   UNL     1      43.122 -10.363   7.489  1.00  0.00     0.064 A 
HETATM   29  C   UNL     1      44.226 -10.817   6.740  1.00  0.00     0.037 A 
HETATM   30  C   UNL     1      45.490 -10.909   7.343  1.00  0.00     0.032 A 
BRANCH  29  31
HETATM   31  N   UNL     1      43.977 -11.161   5.393  1.00  0.00    -0.327 N 
HETATM   32  C   UNL     1      43.465 -12.350   4.906  1.00  0.00     0.218 C 
HETATM   33  C   UNL     1      43.332 -12.362   3.402  1.00  0.00     0.117 C 
HETATM   34  O   UNL     1      43.148 -13.336   5.560  1.00  0.00    -0.274 OA
HETATM   35  H   UNL     1      44.207 -10.450   4.709  1.00  0.00     0.169 HD
ENDBRANCH  29  31
ENDBRANCH   4  22
TORSDOF 4
ENDMDL
MODEL 4
REMARK VINA RESULT:      -9.0      1.909     12.690
REMARK  4 active torsions:
REMARK  status: ('A' for Active; 'I' for Inactive)
REMARK       I    between atoms: C_2  and  N_3 
REMARK    1  A    between atoms: N_3  and  C_4 
REMARK    2  A    between atoms: C_10  and  C_11 
REMARK    3  A    between atoms: C_14  and  C_15 
REMARK    4  A    between atoms: C_22  and  N_23 
REMARK       I    between atoms: N_23  and  C_24 
ROOT
HETATM    1  C   UNL     1      42.770  -9.797   7.987  1.00  0.00     0.010 A 
HETATM    2  C   UNL     1      41.696 -10.043   7.119  1.00  0.00     0.016 A 
HETATM    3  C   UNL     1      41.717 -11.123   6.231  1.00  0.00     0.017 A 
HETATM    4  C   UNL     1      42.819 -11.985   6.178  1.00  0.00     0.017 A 
HETATM    5  C   UNL     1      43.900 -11.732   7.035  1.00  0.00     0.017 A 
HETATM    6  C   UNL     1      43.878 -10.651   7.930  1.00  0.00     0.016 A 
ENDROOT
BRANCH   1   7
HETATM    7  C   UNL     1      42.687  -8.660   8.909  1.00  0.00     0.139 A 
HETATM    8  N   UNL     1      42.715  -8.759  10.282  1.00  0.00    -0.338 N 
HETATM    9  C   UNL     1      42.577  -7.506  10.822  1.00  0.00     0.063 A 
HETATM   10  H   UNL     1      42.791  -9.617  10.805  1.00  0.00     0.167 HD
HETATM   11  C   UNL     1      42.475  -6.670   9.719  1.00  0.00     0.088 A 
HETATM   12  C   UNL     1      42.529  -7.044  12.136  1.00  0.00     0.034 A 
HETATM   13  C   UNL     1      42.321  -5.287   9.909  1.00  0.00     0.063 A 
HETATM   14  N   UNL     1      42.541  -7.395   8.556  1.00  0.00    -0.228 NA
HETATM   15  C   UNL     1      42.268  -4.781  11.213  1.00  0.00     0.037 A 
HETATM   16  C   UNL     1      42.372  -5.661  12.303  1.00  0.00     0.032 A 
BRANCH  15  17
HETATM   17  N   UNL     1      42.116  -3.409  11.514  1.00  0.00    -0.327 N 
HETATM   18  C   UNL     1      43.031  -2.394  11.305  1.00  0.00     0.218 C 
HETATM   19  C   UNL     1      42.521  -1.045  11.753  1.00  0.00     0.117 C 
HETATM   20  O   UNL     1      44.142  -2.495  10.796  1.00  0.00    -0.274 OA
HETATM   21  H   UNL     1      41.229  -3.145  11.924  1.00  0.00     0.169 HD
ENDBRANCH  15  17
ENDBRANCH   1   7
BRANCH   4  22
HETATM   22  C   UNL     1      42.865 -13.123   5.263  1.00  0.00     0.180 A 
HETATM   23  O   UNL     1      43.172 -12.842   3.954  1.00  0.00    -0.289 OA
HETATM   24  C   UNL     1      43.134 -14.055   3.337  1.00  0.00     0.107 A 
HETATM   25  C   UNL     1      42.811 -15.006   4.288  1.00  0.00     0.095 A 
HETATM   26  C   UNL     1      43.369 -14.328   1.999  1.00  0.00     0.042 A 
HETATM   27  N   UNL     1      42.639 -14.404   5.510  1.00  0.00    -0.221 NA
HETATM   28  C   UNL     1      42.711 -16.349   3.898  1.00  0.00     0.064 A 
HETATM   29  C   UNL     1      42.941 -16.683   2.548  1.00  0.00     0.037 A 
HETATM   30  C   UNL     1      43.263 -15.677   1.624  1.00  0.00     0.032 A 
BRANCH  29  31
HETATM   31  N   UNL     1      42.829 -18.050   2.208  1.00  0.00    -0.327 N 
HETATM   32  C   UNL     1      43.645 -19.090   2.614  1.00  0.00     0.218 C 
HETATM   33  C   UNL     1      43.221 -20.425   2.052  1.00  0.00     0.117 C 
HETATM   34  O   UNL     1      44.632 -19.011   3.337  1.00  0.00    -0.274 OA
HETATM   35  H   UNL     1      42.063 -18.286   1.590  1.00  0.00     0.169 HD
ENDBRANCH  29  31
ENDBRANCH   4  22
TORSDOF 4
ENDMDL
MODEL 5
REMARK VINA RESULT:      -8.7      3.998      6.543
REMARK  4 active torsions:
REMARK  status: ('A' for Active; 'I' for Inactive)
REMARK       I    between atoms: C_2  and  N_3 
REMARK    1  A    between atoms: N_3  and  C_4 
REMARK    2  A    between atoms: C_10  and  C_11 
REMARK    3  A    between atoms: C_14  and  C_15 
REMARK    4  A    between atoms: C_22  and  N_23 
REMARK       I    between atoms: N_23  and  C_24 
ROOT
HETATM    1  C   UNL     1      43.144  -9.035  11.549  1.00  0.00     0.010 A 
HETATM    2  C   UNL     1      42.710  -9.907  12.557  1.00  0.00     0.016 A 
HETATM    3  C   UNL     1      42.311  -9.426  13.808  1.00  0.00     0.017 A 
HETATM    4  C   UNL     1      42.342  -8.054  14.090  1.00  0.00     0.017 A 
HETATM    5  C   UNL     1      42.790  -7.182  13.088  1.00  0.00     0.017 A 
HETATM    6  C   UNL     1      43.187  -7.664  11.831  1.00  0.00     0.016 A 
ENDROOT
BRANCH   1   7
HETATM    7  C   UNL     1      43.536  -9.594  10.251  1.00  0.00     0.139 A 
HETATM    8  N   UNL     1      44.819  -9.960   9.909  1.00  0.00    -0.338 N 
HETATM    9  C   UNL     1      44.824 -10.403   8.612  1.00  0.00     0.063 A 
HETATM   10  H   UNL     1      45.628  -9.882  10.505  1.00  0.00     0.167 HD
HETATM   11  C   UNL     1      43.501 -10.291   8.209  1.00  0.00     0.088 A 
HETATM   12  C   UNL     1      45.837 -10.873   7.778  1.00  0.00     0.034 A 
HETATM   13  C   UNL     1      43.138 -10.668   6.905  1.00  0.00     0.063 A 
HETATM   14  N   UNL     1      42.727  -9.790   9.225  1.00  0.00    -0.228 NA
HETATM   15  C   UNL     1      44.125 -11.146   6.035  1.00  0.00     0.037 A 
HETATM   16  C   UNL     1      45.455 -11.241   6.480  1.00  0.00     0.032 A 
BRANCH  15  17
HETATM   17  N   UNL     1      43.869 -11.551   4.706  1.00  0.00    -0.327 N 
HETATM   18  C   UNL     1      43.194 -12.683   4.286  1.00  0.00     0.218 C 
HETATM   19  C   UNL     1      43.112 -12.790   2.783  1.00  0.00     0.117 C 
HETATM   20  O   UNL     1      42.673 -13.537   4.995  1.00  0.00    -0.274 OA
HETATM   21  H   UNL     1      44.215 -10.933   3.984  1.00  0.00     0.169 HD
ENDBRANCH  15  17
ENDBRANCH   1   7
BRANCH   4  22
HETATM   22  C   UNL     1      41.925  -7.524  15.386  1.00  0.00     0.180 A 
HETATM   23  O   UNL     1      41.166  -8.358  16.171  1.00  0.00    -0.289 OA
HETATM   24  C   UNL     1      40.915  -7.622  17.289  1.00  0.00     0.107 A 
HETATM   25  C   UNL     1      41.527  -6.391  17.134  1.00  0.00     0.095 A 
HETATM   26  C   UNL     1      40.181  -8.002  18.401  1.00  0.00     0.042 A 
HETATM   27  N   UNL     1      42.165  -6.337  15.920  1.00  0.00    -0.221 NA
HETATM   28  C   UNL     1      41.414  -5.444  18.162  1.00  0.00     0.064 A 
HETATM   29  C   UNL     1      40.680  -5.779  19.317  1.00  0.00     0.037 A 
HETATM   30  C   UNL     1      40.077  -7.043  19.420  1.00  0.00     0.032 A 
BRANCH  29  31
HETATM   31  N   UNL     1      40.599  -4.791  20.323  1.00  0.00    -0.327 N 
HETATM   32  C   UNL     1      41.339  -4.710  21.489  1.00  0.00     0.218 C 
HETATM   33  C   UNL     1      40.983  -3.509  22.331  1.00  0.00     0.117 C 
HETATM   34  O   UNL     1      42.197  -5.498  21.871  1.00  0.00    -0.274 OA
HETATM   35  H   UNL     1      39.913  -4.062  20.168  1.00  0.00     0.169 HD
ENDBRANCH  29  31
ENDBRANCH   4  22
TORSDOF 4
ENDMDL
MODEL 6
REMARK VINA RESULT:      -8.2      2.524      2.781
REMARK  4 active torsions:
REMARK  status: ('A' for Active; 'I' for Inactive)
REMARK       I    between atoms: C_2  and  N_3 
REMARK    1  A    between atoms: N_3  and  C_4 
REMARK    2  A    between atoms: C_10  and  C_11 
REMARK    3  A    between atoms: C_14  and  C_15 
REMARK    4  A    between atoms: C_22  and  N_23 
REMARK       I    between atoms: N_23  and  C_24 
ROOT
HETATM    1  C   UNL     1      41.204 -11.921   5.822  1.00  0.00     0.010 A 
HETATM    2  C   UNL     1      42.141 -10.991   6.295  1.00  0.00     0.016 A 
HETATM    3  C   UNL     1      41.761  -9.953   7.152  1.00  0.00     0.017 A 
HETATM    4  C   UNL     1      40.427  -9.809   7.554  1.00  0.00     0.017 A 
HETATM    5  C   UNL     1      39.486 -10.730   7.070  1.00  0.00     0.017 A 
HETATM    6  C   UNL     1      39.867 -11.774   6.214  1.00  0.00     0.016 A 
ENDROOT
BRANCH   1   7
HETATM    7  C   UNL     1      41.661 -12.998   4.939  1.00  0.00     0.139 A 
HETATM    8  N   UNL     1      42.423 -12.815   3.806  1.00  0.00    -0.338 N 
HETATM    9  C   UNL     1      42.631 -14.032   3.209  1.00  0.00     0.063 A 
HETATM   10  H   UNL     1      42.748 -11.928   3.457  1.00  0.00     0.167 HD
HETATM   11  C   UNL     1      41.971 -14.932   4.032  1.00  0.00     0.088 A 
HETATM   12  C   UNL     1      43.311 -14.412   2.053  1.00  0.00     0.034 A 
HETATM   13  C   UNL     1      41.979 -16.300   3.712  1.00  0.00     0.063 A 
HETATM   14  N   UNL     1      41.380 -14.281   5.085  1.00  0.00    -0.228 NA
HETATM   15  C   UNL     1      42.651 -16.725   2.560  1.00  0.00     0.037 A 
HETATM   16  C   UNL     1      43.304 -15.781   1.749  1.00  0.00     0.032 A 
BRANCH  15  17
HETATM   17  N   UNL     1      42.720 -18.075   2.147  1.00  0.00    -0.327 N 
HETATM   18  C   UNL     1      43.564 -19.060   2.626  1.00  0.00     0.218 C 
HETATM   19  C   UNL     1      43.355 -20.390   1.945  1.00  0.00     0.117 C 
HETATM   20  O   UNL     1      44.397 -18.948   3.518  1.00  0.00    -0.274 OA
HETATM   21  H   UNL     1      42.070 -18.346   1.420  1.00  0.00     0.169 HD
ENDBRANCH  15  17
ENDBRANCH   1   7
BRANCH   4  22
HETATM   22  C   UNL     1      40.004  -8.737   8.452  1.00  0.00     0.180 A 
HETATM   23  O   UNL     1      40.745  -8.571   9.597  1.00  0.00    -0.289 OA
HETATM   24  C   UNL     1      40.136  -7.537  10.239  1.00  0.00     0.107 A 
HETATM   25  C   UNL     1      39.068  -7.125   9.464  1.00  0.00     0.095 A 
HETATM   26  C   UNL     1      40.493  -6.971  11.452  1.00  0.00     0.042 A 
HETATM   27  N   UNL     1      38.989  -7.897   8.330  1.00  0.00    -0.221 NA
HETATM   28  C   UNL     1      38.274  -6.061   9.914  1.00  0.00     0.064 A 
HETATM   29  C   UNL     1      38.592  -5.447  11.141  1.00  0.00     0.037 A 
HETATM   30  C   UNL     1      39.688  -5.907  11.889  1.00  0.00     0.032 A 
BRANCH  29  31
HETATM   31  N   UNL     1      37.763  -4.378  11.547  1.00  0.00    -0.327 N 
HETATM   32  C   UNL     1      37.069  -4.253  12.737  1.00  0.00     0.218 C 
HETATM   33  C   UNL     1      36.282  -2.968  12.828  1.00  0.00     0.117 C 
HETATM   34  O   UNL     1      37.035  -5.062  13.657  1.00  0.00    -0.274 OA
HETATM   35  H   UNL     1      37.665  -3.622  10.882  1.00  0.00     0.169 HD
ENDBRANCH  29  31
ENDBRANCH   4  22
TORSDOF 4
ENDMDL
MODEL 7
REMARK VINA RESULT:      -8.2     20.730     22.826
REMARK  4 active torsions:
REMARK  status: ('A' for Active; 'I' for Inactive)
REMARK       I    between atoms: C_2  and  N_3 
REMARK    1  A    between atoms: N_3  and  C_4 
REMARK    2  A    between atoms: C_10  and  C_11 
REMARK    3  A    between atoms: C_14  and  C_15 
REMARK    4  A    between atoms: C_22  and  N_23 
REMARK       I    between atoms: N_23  and  C_24 
ROOT
HETATM    1  C   UNL     1      49.635 -30.485   2.282  1.00  0.00     0.010 A 
HETATM    2  C   UNL     1      50.251 -31.742   2.361  1.00  0.00     0.016 A 
HETATM    3  C   UNL     1      50.960 -32.129   3.503  1.00  0.00     0.017 A 
HETATM    4  C   UNL     1      51.080 -31.265   4.598  1.00  0.00     0.017 A 
HETATM    5  C   UNL     1      50.476 -30.002   4.515  1.00  0.00     0.017 A 
HETATM    6  C   UNL     1      49.761 -29.614   3.371  1.00  0.00     0.016 A 
ENDROOT
BRANCH   1   7
HETATM    7  C   UNL     1      48.891 -30.138   1.067  1.00  0.00     0.139 A 
HETATM    8  N   UNL     1      48.570 -28.856   0.682  1.00  0.00    -0.338 N 
HETATM    9  C   UNL     1      47.842 -28.908  -0.478  1.00  0.00     0.063 A 
HETATM   10  H   UNL     1      48.804 -28.017   1.190  1.00  0.00     0.167 HD
HETATM   11  C   UNL     1      47.753 -30.263  -0.763  1.00  0.00     0.088 A 
HETATM   12  C   UNL     1      47.265 -27.922  -1.276  1.00  0.00     0.034 A 
HETATM   13  C   UNL     1      47.060 -30.688  -1.909  1.00  0.00     0.063 A 
HETATM   14  N   UNL     1      48.399 -31.002   0.196  1.00  0.00    -0.228 NA
HETATM   15  C   UNL     1      46.466 -29.729  -2.738  1.00  0.00     0.037 A 
HETATM   16  C   UNL     1      46.575 -28.367  -2.413  1.00  0.00     0.032 A 
BRANCH  15  17
HETATM   17  N   UNL     1      45.747 -30.048  -3.912  1.00  0.00    -0.327 N 
HETATM   18  C   UNL     1      44.390 -29.899  -4.135  1.00  0.00     0.218 C 
HETATM   19  C   UNL     1      43.972 -30.347  -5.515  1.00  0.00     0.117 C 
HETATM   20  O   UNL     1      43.561 -29.438  -3.359  1.00  0.00    -0.274 OA
HETATM   21  H   UNL     1      46.295 -30.423  -4.676  1.00  0.00     0.169 HD
ENDBRANCH  15  17
ENDBRANCH   1   7
BRANCH   4  22
HETATM   22  C   UNL     1      51.810 -31.646   5.806  1.00  0.00     0.180 A 
HETATM   23  O   UNL     1      52.665 -30.704   6.325  1.00  0.00    -0.289 OA
HETATM   24  C   UNL     1      53.208 -31.315   7.413  1.00  0.00     0.107 A 
HETATM   25  C   UNL     1      52.665 -32.583   7.505  1.00  0.00     0.095 A 
HETATM   26  C   UNL     1      54.142 -30.793   8.294  1.00  0.00     0.042 A 
HETATM   27  N   UNL     1      51.778 -32.786   6.476  1.00  0.00    -0.221 NA
HETATM   28  C   UNL     1      53.069 -33.419   8.556  1.00  0.00     0.064 A 
HETATM   29  C   UNL     1      54.016 -32.939   9.481  1.00  0.00     0.037 A 
HETATM   30  C   UNL     1      54.537 -31.643   9.339  1.00  0.00     0.032 A 
BRANCH  29  31
HETATM   31  N   UNL     1      54.386 -33.820  10.521  1.00  0.00    -0.327 N 
HETATM   32  C   UNL     1      54.050 -33.734  11.860  1.00  0.00     0.218 C 
HETATM   33  C   UNL     1      54.626 -34.860  12.685  1.00  0.00     0.117 C 
HETATM   34  O   UNL     1      53.376 -32.862  12.394  1.00  0.00    -0.274 OA
HETATM   35  H   UNL     1      54.972 -34.600  10.247  1.00  0.00     0.169 HD
ENDBRANCH  29  31
ENDBRANCH   4  22
TORSDOF 4
ENDMDL
MODEL 8
REMARK VINA RESULT:      -8.0      2.748      3.258
REMARK  4 active torsions:
REMARK  status: ('A' for Active; 'I' for Inactive)
REMARK       I    between atoms: C_2  and  N_3 
REMARK    1  A    between atoms: N_3  and  C_4 
REMARK    2  A    between atoms: C_10  and  C_11 
REMARK    3  A    between atoms: C_14  and  C_15 
REMARK    4  A    between atoms: C_22  and  N_23 
REMARK       I    between atoms: N_23  and  C_24 
ROOT
HETATM    1  C   UNL     1      41.399 -11.026   5.995  1.00  0.00     0.010 A 
HETATM    2  C   UNL     1      42.673 -10.831   6.545  1.00  0.00     0.016 A 
HETATM    3  C   UNL     1      42.855 -10.049   7.691  1.00  0.00     0.017 A 
HETATM    4  C   UNL     1      41.765  -9.432   8.316  1.00  0.00     0.017 A 
HETATM    5  C   UNL     1      40.491  -9.615   7.759  1.00  0.00     0.017 A 
HETATM    6  C   UNL     1      40.307 -10.402   6.612  1.00  0.00     0.016 A 
ENDROOT
BRANCH   1   7
HETATM    7  C   UNL     1      41.265 -11.868   4.802  1.00  0.00     0.139 A 
HETATM    8  N   UNL     1      42.241 -12.714   4.324  1.00  0.00    -0.338 N 
HETATM    9  C   UNL     1      41.790 -13.311   3.176  1.00  0.00     0.063 A 
HETATM   10  H   UNL     1      43.152 -12.846   4.734  1.00  0.00     0.167 HD
HETATM   11  C   UNL     1      40.515 -12.792   3.002  1.00  0.00     0.088 A 
HETATM   12  C   UNL     1      42.367 -14.226   2.298  1.00  0.00     0.034 A 
HETATM   13  C   UNL     1      39.745 -13.198   1.899  1.00  0.00     0.063 A 
HETATM   14  N   UNL     1      40.211 -11.908   4.006  1.00  0.00    -0.228 NA
HETATM   15  C   UNL     1      40.287 -14.117   0.993  1.00  0.00     0.037 A 
HETATM   16  C   UNL     1      41.584 -14.616   1.202  1.00  0.00     0.032 A 
BRANCH  15  17
HETATM   17  N   UNL     1      39.600 -14.590  -0.148  1.00  0.00    -0.327 N 
HETATM   18  C   UNL     1      39.733 -14.152  -1.453  1.00  0.00     0.218 C 
HETATM   19  C   UNL     1      38.832 -14.892  -2.412  1.00  0.00     0.117 C 
HETATM   20  O   UNL     1      40.493 -13.284  -1.866  1.00  0.00    -0.274 OA
HETATM   21  H   UNL     1      38.940 -15.340   0.016  1.00  0.00     0.169 HD
ENDBRANCH  15  17
ENDBRANCH   1   7
BRANCH   4  22
HETATM   22  C   UNL     1      41.925  -8.615   9.517  1.00  0.00     0.180 A 
HETATM   23  O   UNL     1      42.636  -9.179  10.549  1.00  0.00    -0.289 OA
HETATM   24  C   UNL     1      42.621  -8.227  11.521  1.00  0.00     0.107 A 
HETATM   25  C   UNL     1      41.912  -7.141  11.042  1.00  0.00     0.095 A 
HETATM   26  C   UNL     1      43.199  -8.297  12.778  1.00  0.00     0.042 A 
HETATM   27  N   UNL     1      41.471  -7.398   9.767  1.00  0.00    -0.221 NA
HETATM   28  C   UNL     1      41.754  -6.017  11.865  1.00  0.00     0.064 A 
HETATM   29  C   UNL     1      42.323  -6.033  13.154  1.00  0.00     0.037 A 
HETATM   30  C   UNL     1      43.031  -7.164  13.591  1.00  0.00     0.032 A 
BRANCH  29  31
HETATM   31  N   UNL     1      42.137  -4.876  13.941  1.00  0.00    -0.327 N 
HETATM   32  C   UNL     1      41.161  -4.652  14.896  1.00  0.00     0.218 C 
HETATM   33  C   UNL     1      41.272  -3.293  15.544  1.00  0.00     0.117 C 
HETATM   34  O   UNL     1      40.264  -5.420  15.224  1.00  0.00    -0.274 OA
HETATM   35  H   UNL     1      42.795  -4.124  13.778  1.00  0.00     0.169 HD
ENDBRANCH  29  31
ENDBRANCH   4  22
TORSDOF 4
ENDMDL
MODEL 9
REMARK VINA RESULT:      -8.0      9.459     13.981
REMARK  4 active torsions:
REMARK  status: ('A' for Active; 'I' for Inactive)
REMARK       I    between atoms: C_2  and  N_3 
REMARK    1  A    between atoms: N_3  and  C_4 
REMARK    2  A    between atoms: C_10  and  C_11 
REMARK    3  A    between atoms: C_14  and  C_15 
REMARK    4  A    between atoms: C_22  and  N_23 
REMARK       I    between atoms: N_23  and  C_24 
ROOT
HETATM    1  C   UNL     1      39.134 -13.554  -0.666  1.00  0.00     0.010 A 
HETATM    2  C   UNL     1      38.601 -12.302  -0.328  1.00  0.00     0.016 A 
HETATM    3  C   UNL     1      37.664 -11.669  -1.151  1.00  0.00     0.017 A 
HETATM    4  C   UNL     1      37.238 -12.267  -2.343  1.00  0.00     0.017 A 
HETATM    5  C   UNL     1      37.782 -13.513  -2.690  1.00  0.00     0.017 A 
HETATM    6  C   UNL     1      38.718 -14.151  -1.863  1.00  0.00     0.016 A 
ENDROOT
BRANCH   1   7
HETATM    7  C   UNL     1      40.101 -14.179   0.242  1.00  0.00     0.139 A 
HETATM    8  N   UNL     1      41.376 -13.713   0.473  1.00  0.00    -0.338 N 
HETATM    9  C   UNL     1      42.009 -14.562   1.344  1.00  0.00     0.063 A 
HETATM   10  H   UNL     1      41.787 -12.898   0.046  1.00  0.00     0.167 HD
HETATM   11  C   UNL     1      41.060 -15.536   1.619  1.00  0.00     0.088 A 
HETATM   12  C   UNL     1      43.290 -14.568   1.894  1.00  0.00     0.034 A 
HETATM   13  C   UNL     1      41.378 -16.587   2.496  1.00  0.00     0.063 A 
HETATM   14  N   UNL     1      39.899 -15.287   0.933  1.00  0.00    -0.228 NA
HETATM   15  C   UNL     1      42.654 -16.630   3.071  1.00  0.00     0.037 A 
HETATM   16  C   UNL     1      43.588 -15.626   2.764  1.00  0.00     0.032 A 
BRANCH  15  17
HETATM   17  N   UNL     1      43.076 -17.641   3.964  1.00  0.00    -0.327 N 
HETATM   18  C   UNL     1      43.845 -18.753   3.674  1.00  0.00     0.218 C 
HETATM   19  C   UNL     1      44.099 -19.619   4.884  1.00  0.00     0.117 C 
HETATM   20  O   UNL     1      44.323 -19.056   2.587  1.00  0.00    -0.274 OA
HETATM   21  H   UNL     1      42.783 -17.528   4.926  1.00  0.00     0.169 HD
ENDBRANCH  15  17
ENDBRANCH   1   7
BRANCH   4  22
HETATM   22  C   UNL     1      36.257 -11.630  -3.218  1.00  0.00     0.180 A 
HETATM   23  O   UNL     1      36.512 -10.328  -3.576  1.00  0.00    -0.289 OA
HETATM   24  C   UNL     1      35.456  -9.988  -4.365  1.00  0.00     0.107 A 
HETATM   25  C   UNL     1      34.619 -11.085  -4.451  1.00  0.00     0.095 A 
HETATM   26  C   UNL     1      35.226  -8.771  -4.986  1.00  0.00     0.042 A 
HETATM   27  N   UNL     1      35.135 -12.125  -3.716  1.00  0.00    -0.221 NA
HETATM   28  C   UNL     1      33.449 -10.987  -5.217  1.00  0.00     0.064 A 
HETATM   29  C   UNL     1      33.165  -9.772  -5.871  1.00  0.00     0.037 A 
HETATM   30  C   UNL     1      34.049  -8.689  -5.748  1.00  0.00     0.032 A 
BRANCH  29  31
HETATM   31  N   UNL     1      31.976  -9.727  -6.631  1.00  0.00    -0.327 N 
HETATM   32  C   UNL     1      31.702 -10.394  -7.812  1.00  0.00     0.218 C 
HETATM   33  C   UNL     1      30.319 -10.107  -8.344  1.00  0.00     0.117 C 
HETATM   34  O   UNL     1      32.456 -11.140  -8.426  1.00  0.00    -0.274 OA
HETATM   35  H   UNL     1      31.244  -9.129  -6.266  1.00  0.00     0.169 HD
ENDBRANCH  29  31
ENDBRANCH   4  22
TORSDOF 4
ENDMDL
MODEL 10
REMARK VINA RESULT:      -8.0     20.778     22.776
REMARK  4 active torsions:
REMARK  status: ('A' for Active; 'I' for Inactive)
REMARK       I    between atoms: C_2  and  N_3 
REMARK    1  A    between atoms: N_3  and  C_4 
REMARK    2  A    between atoms: C_10  and  C_11 
REMARK    3  A    between atoms: C_14  and  C_15 
REMARK    4  A    between atoms: C_22  and  N_23 
REMARK       I    between atoms: N_23  and  C_24 
ROOT
HETATM    1  C   UNL     1      49.387 -30.400   2.159  1.00  0.00     0.010 A 
HETATM    2  C   UNL     1      50.106 -31.603   2.135  1.00  0.00     0.016 A 
HETATM    3  C   UNL     1      50.874 -32.010   3.231  1.00  0.00     0.017 A 
HETATM    4  C   UNL     1      50.952 -31.218   4.383  1.00  0.00     0.017 A 
HETATM    5  C   UNL     1      50.245 -30.007   4.404  1.00  0.00     0.017 A 
HETATM    6  C   UNL     1      49.471 -29.601   3.306  1.00  0.00     0.016 A 
ENDROOT
BRANCH   1   7
HETATM    7  C   UNL     1      48.585 -30.031   0.988  1.00  0.00     0.139 A 
HETATM    8  N   UNL     1      48.479 -28.756   0.480  1.00  0.00    -0.338 N 
HETATM    9  C   UNL     1      47.620 -28.773  -0.589  1.00  0.00     0.063 A 
HETATM   10  H   UNL     1      48.933 -27.937   0.853  1.00  0.00     0.167 HD
HETATM   11  C   UNL     1      47.233 -30.102  -0.692  1.00  0.00     0.088 A 
HETATM   12  C   UNL     1      47.157 -27.775  -1.444  1.00  0.00     0.034 A 
HETATM   13  C   UNL     1      46.336 -30.486  -1.703  1.00  0.00     0.063 A 
HETATM   14  N   UNL     1      47.831 -30.857   0.284  1.00  0.00    -0.228 NA
HETATM   15  C   UNL     1      45.848 -29.515  -2.585  1.00  0.00     0.037 A 
HETATM   16  C   UNL     1      46.261 -28.179  -2.445  1.00  0.00     0.032 A 
BRANCH  15  17
HETATM   17  N   UNL     1      44.944 -29.794  -3.634  1.00  0.00    -0.327 N 
HETATM   18  C   UNL     1      45.172 -30.566  -4.759  1.00  0.00     0.218 C 
HETATM   19  C   UNL     1      43.970 -30.642  -5.669  1.00  0.00     0.117 C 
HETATM   20  O   UNL     1      46.199 -31.171  -5.043  1.00  0.00    -0.274 OA
HETATM   21  H   UNL     1      44.023 -29.384  -3.543  1.00  0.00     0.169 HD
ENDBRANCH  15  17
ENDBRANCH   1   7
BRANCH   4  22
HETATM   22  C   UNL     1      51.742 -31.621   5.544  1.00  0.00     0.180 A 
HETATM   23  O   UNL     1      51.059 -32.242   6.562  1.00  0.00    -0.289 OA
HETATM   24  C   UNL     1      52.016 -32.492   7.498  1.00  0.00     0.107 A 
HETATM   25  C   UNL     1      53.221 -32.019   7.011  1.00  0.00     0.095 A 
HETATM   26  C   UNL     1      51.849 -33.106   8.729  1.00  0.00     0.042 A 
HETATM   27  N   UNL     1      53.037 -31.465   5.769  1.00  0.00    -0.221 NA
HETATM   28  C   UNL     1      54.372 -32.161   7.799  1.00  0.00     0.064 A 
HETATM   29  C   UNL     1      54.261 -32.779   9.060  1.00  0.00     0.037 A 
HETATM   30  C   UNL     1      53.012 -33.239   9.505  1.00  0.00     0.032 A 
BRANCH  29  31
HETATM   31  N   UNL     1      55.451 -32.899   9.812  1.00  0.00    -0.327 N 
HETATM   32  C   UNL     1      56.167 -31.888  10.427  1.00  0.00     0.218 C 
HETATM   33  C   UNL     1      57.394 -32.390  11.148  1.00  0.00     0.117 C 
HETATM   34  O   UNL     1      55.903 -30.691  10.417  1.00  0.00    -0.274 OA
HETATM   35  H   UNL     1      55.820 -33.838   9.901  1.00  0.00     0.169 HD
ENDBRANCH  29  31
ENDBRANCH   4  22
TORSDOF 4
ENDMDL
