MODEL 1
REMARK VINA RESULT:      -9.3      0.000      0.000
REMARK  9 active torsions:
REMARK  status: ('A' for Active; 'I' for Inactive)
REMARK    1  A    between atoms: C_2  and  C_3 
REMARK    2  A    between atoms: C_3  and  O_4 
REMARK    3  A    between atoms: O_4  and  C_5 
REMARK    4  A    between atoms: C_7  and  C_8 
REMARK       I    between atoms: C_8  and  N_9 
REMARK    5  A    between atoms: N_9  and  C_10 
REMARK    6  A    between atoms: C_10  and  N_11 
REMARK    7  A    between atoms: N_11  and  C_12 
REMARK    8  A    between atoms: C_14  and  O_15 
REMARK    9  A    between atoms: C_16  and  C_17 
ROOT
HETATM    1  C   UNL     1      43.866 -10.864   6.404  1.00  0.00     0.036 A 
HETATM    2  C   UNL     1      44.775 -11.061   7.442  1.00  0.00     0.067 A 
HETATM    3  C   UNL     1      44.486 -10.624   8.741  1.00  0.00     0.082 A 
HETATM    4  C   UNL     1      43.273  -9.987   9.038  1.00  0.00     0.050 A 
HETATM    5  C   UNL     1      42.338  -9.857   7.995  1.00  0.00     0.021 A 
HETATM    6  C   UNL     1      42.620 -10.310   6.697  1.00  0.00     0.030 A 
ENDROOT
BRANCH   1   7
HETATM    7  N   UNL     1      44.139 -11.245   5.074  1.00  0.00    -0.333 N 
HETATM    8  H   UNL     1      45.120 -11.234   4.790  1.00  0.00     0.168 HD
BRANCH   7   9
HETATM    9  C   UNL     1      43.302 -11.844   4.160  1.00  0.00     0.179 C 
HETATM   10  S   UNL     1      42.395 -11.134   2.942  1.00  0.00    -0.040 SA
BRANCH   9  11
HETATM   11  N   UNL     1      43.180 -13.212   4.269  1.00  0.00    -0.299 N 
HETATM   12  C   UNL     1      42.599 -13.967   5.278  1.00  0.00     0.257 C 
HETATM   13  O   UNL     1      41.759 -13.536   6.060  1.00  0.00    -0.267 OA
HETATM   14  H   UNL     1      43.680 -13.700   3.539  1.00  0.00     0.171 HD
BRANCH  12  15
HETATM   15  C   UNL     1      42.993 -15.404   5.278  1.00  0.00     0.035 A 
HETATM   16  C   UNL     1      43.316 -16.061   4.084  1.00  0.00     0.053 A 
HETATM   17  C   UNL     1      43.621 -17.422   4.080  1.00  0.00     0.069 A 
HETATM   18  C   UNL     1      43.653 -18.123   5.285  1.00  0.00     0.037 A 
HETATM   19  C   UNL     1      43.370 -17.461   6.486  1.00  0.00     0.004 A 
HETATM   20  C   UNL     1      43.040 -16.104   6.486  1.00  0.00     0.017 A 
BRANCH  17  21
HETATM   21  O   UNL     1      43.885 -17.936   2.843  1.00  0.00    -0.351 OA
BRANCH  21  22
HETATM   22  C   UNL     1      42.911 -18.821   2.287  1.00  0.00     0.175 C 
BRANCH  22  23
HETATM   23  C   UNL     1      43.626 -20.125   1.946  1.00  0.00     0.022 C 
HETATM   24  C   UNL     1      43.829 -21.002   3.167  1.00  0.00     0.007 C 
ENDBRANCH  22  23
ENDBRANCH  21  22
ENDBRANCH  17  21
ENDBRANCH  12  15
ENDBRANCH   9  11
ENDBRANCH   7   9
ENDBRANCH   1   7
BRANCH   3  25
HETATM   25  O   UNL     1      45.434 -10.825   9.709  1.00  0.00    -0.360 OA
HETATM   26  H   UNL     1      45.383 -10.114  10.369  1.00  0.00     0.217 HD
ENDBRANCH   3  25
BRANCH   4  27
HETATM   27  C   UNL     1      42.951  -9.410  10.346  1.00  0.00     0.183 A 
HETATM   28  O   UNL     1      41.862  -9.918  11.007  1.00  0.00    -0.288 OA
HETATM   29  C   UNL     1      41.863  -9.283  12.211  1.00  0.00     0.112 A 
HETATM   30  C   UNL     1      42.930  -8.402  12.215  1.00  0.00     0.094 A 
HETATM   31  C   UNL     1      40.973  -9.481  13.265  1.00  0.00    -0.025 A 
HETATM   32  N   UNL     1      43.599  -8.469  11.017  1.00  0.00    -0.221 NA
HETATM   33  C   UNL     1      43.168  -7.634  13.362  1.00  0.00     0.041 A 
HETATM   34  C   UNL     1      42.320  -7.805  14.475  1.00  0.00    -0.059 A 
HETATM   35  C   UNL     1      41.241  -8.705  14.410  1.00  0.00     0.016 A 
HETATM   36  C   UNL     1      42.563  -6.998  15.718  1.00  0.00     0.048 C 
HETATM   37  C   UNL     1      39.837 -10.450  13.230  1.00  0.00     0.051 C 
ENDBRANCH   4  27
TORSDOF 9
ENDMDL
MODEL 2
REMARK VINA RESULT:      -9.0      4.834     10.893
REMARK  9 active torsions:
REMARK  status: ('A' for Active; 'I' for Inactive)
REMARK    1  A    between atoms: C_2  and  C_3 
REMARK    2  A    between atoms: C_3  and  O_4 
REMARK    3  A    between atoms: O_4  and  C_5 
REMARK    4  A    between atoms: C_7  and  C_8 
REMARK       I    between atoms: C_8  and  N_9 
REMARK    5  A    between atoms: N_9  and  C_10 
REMARK    6  A    between atoms: C_10  and  N_11 
REMARK    7  A    between atoms: N_11  and  C_12 
REMARK    8  A    between atoms: C_14  and  O_15 
REMARK    9  A    between atoms: C_16  and  C_17 
ROOT
HETATM    1  C   UNL     1      42.499 -16.619   3.107  1.00  0.00     0.036 A 
HETATM    2  C   UNL     1      41.123 -16.500   3.297  1.00  0.00     0.067 A 
HETATM    3  C   UNL     1      40.344 -15.725   2.428  1.00  0.00     0.082 A 
HETATM    4  C   UNL     1      40.921 -15.056   1.339  1.00  0.00     0.050 A 
HETATM    5  C   UNL     1      42.300 -15.241   1.123  1.00  0.00     0.021 A 
HETATM    6  C   UNL     1      43.077 -16.032   1.983  1.00  0.00     0.030 A 
ENDROOT
BRANCH   1   7
HETATM    7  N   UNL     1      43.326 -17.349   3.987  1.00  0.00    -0.333 N 
HETATM    8  H   UNL     1      43.995 -17.989   3.555  1.00  0.00     0.168 HD
BRANCH   7   9
HETATM    9  C   UNL     1      43.520 -17.168   5.337  1.00  0.00     0.179 C 
HETATM   10  S   UNL     1      43.491 -18.308   6.566  1.00  0.00    -0.040 SA
BRANCH   9  11
HETATM   11  N   UNL     1      43.755 -15.871   5.737  1.00  0.00    -0.299 N 
HETATM   12  C   UNL     1      42.858 -14.906   6.172  1.00  0.00     0.257 C 
HETATM   13  O   UNL     1      41.751 -15.158   6.635  1.00  0.00    -0.267 OA
HETATM   14  H   UNL     1      44.715 -15.593   5.589  1.00  0.00     0.171 HD
BRANCH  12  15
HETATM   15  C   UNL     1      43.384 -13.513   6.138  1.00  0.00     0.035 A 
HETATM   16  C   UNL     1      44.090 -12.985   7.227  1.00  0.00     0.053 A 
HETATM   17  C   UNL     1      44.525 -11.659   7.218  1.00  0.00     0.069 A 
HETATM   18  C   UNL     1      44.297 -10.869   6.093  1.00  0.00     0.037 A 
HETATM   19  C   UNL     1      43.628 -11.404   4.985  1.00  0.00     0.004 A 
HETATM   20  C   UNL     1      43.171 -12.724   5.005  1.00  0.00     0.017 A 
BRANCH  17  21
HETATM   21  O   UNL     1      45.170 -11.272   8.357  1.00  0.00    -0.351 OA
BRANCH  21  22
HETATM   22  C   UNL     1      44.845  -9.983   8.880  1.00  0.00     0.175 C 
BRANCH  22  23
HETATM   23  C   UNL     1      45.109 -10.024  10.383  1.00  0.00     0.022 C 
HETATM   24  C   UNL     1      43.910 -10.531  11.161  1.00  0.00     0.007 C 
ENDBRANCH  22  23
ENDBRANCH  21  22
ENDBRANCH  17  21
ENDBRANCH  12  15
ENDBRANCH   9  11
ENDBRANCH   7   9
ENDBRANCH   1   7
BRANCH   3  25
HETATM   25  O   UNL     1      39.003 -15.628   2.685  1.00  0.00    -0.360 OA
HETATM   26  H   UNL     1      38.847 -15.685   3.642  1.00  0.00     0.217 HD
ENDBRANCH   3  25
BRANCH   4  27
HETATM   27  C   UNL     1      40.188 -14.145   0.457  1.00  0.00     0.183 A 
HETATM   28  O   UNL     1      39.732 -14.651  -0.732  1.00  0.00    -0.288 OA
HETATM   29  C   UNL     1      39.014 -13.636  -1.287  1.00  0.00     0.112 A 
HETATM   30  C   UNL     1      39.091 -12.555  -0.426  1.00  0.00     0.094 A 
HETATM   31  C   UNL     1      38.311 -13.664  -2.490  1.00  0.00    -0.025 A 
HETATM   32  N   UNL     1      39.861 -12.878   0.666  1.00  0.00    -0.221 NA
HETATM   33  C   UNL     1      38.410 -11.377  -0.758  1.00  0.00     0.041 A 
HETATM   34  C   UNL     1      37.657 -11.348  -1.949  1.00  0.00    -0.059 A 
HETATM   35  C   UNL     1      37.626 -12.471  -2.795  1.00  0.00     0.016 A 
HETATM   36  C   UNL     1      36.912 -10.097  -2.320  1.00  0.00     0.048 C 
HETATM   37  C   UNL     1      38.241 -14.854  -3.390  1.00  0.00     0.051 C 
ENDBRANCH   4  27
TORSDOF 9
ENDMDL
MODEL 3
REMARK VINA RESULT:      -8.9      2.034     11.249
REMARK  9 active torsions:
REMARK  status: ('A' for Active; 'I' for Inactive)
REMARK    1  A    between atoms: C_2  and  C_3 
REMARK    2  A    between atoms: C_3  and  O_4 
REMARK    3  A    between atoms: O_4  and  C_5 
REMARK    4  A    between atoms: C_7  and  C_8 
REMARK       I    between atoms: C_8  and  N_9 
REMARK    5  A    between atoms: N_9  and  C_10 
REMARK    6  A    between atoms: C_10  and  N_11 
REMARK    7  A    between atoms: N_11  and  C_12 
REMARK    8  A    between atoms: C_14  and  O_15 
REMARK    9  A    between atoms: C_16  and  C_17 
ROOT
HETATM    1  C   UNL     1      43.532 -10.539   7.202  1.00  0.00     0.036 A 
HETATM    2  C   UNL     1      42.357 -10.881   6.533  1.00  0.00     0.067 A 
HETATM    3  C   UNL     1      42.215 -12.138   5.932  1.00  0.00     0.082 A 
HETATM    4  C   UNL     1      43.243 -13.091   5.993  1.00  0.00     0.050 A 
HETATM    5  C   UNL     1      44.394 -12.754   6.729  1.00  0.00     0.021 A 
HETATM    6  C   UNL     1      44.529 -11.501   7.346  1.00  0.00     0.030 A 
ENDROOT
BRANCH   1   7
HETATM    7  N   UNL     1      43.733  -9.267   7.779  1.00  0.00    -0.333 N 
HETATM    8  H   UNL     1      44.688  -8.904   7.757  1.00  0.00     0.168 HD
BRANCH   7   9
HETATM    9  C   UNL     1      42.795  -8.340   8.171  1.00  0.00     0.179 C 
HETATM   10  S   UNL     1      41.872  -7.312   7.223  1.00  0.00    -0.040 SA
BRANCH   9  11
HETATM   11  N   UNL     1      42.598  -8.230   9.531  1.00  0.00    -0.299 N 
HETATM   12  C   UNL     1      43.351  -8.746  10.576  1.00  0.00     0.257 C 
HETATM   13  O   UNL     1      44.529  -9.069  10.477  1.00  0.00    -0.267 OA
HETATM   14  H   UNL     1      41.719  -7.783   9.755  1.00  0.00     0.171 HD
BRANCH  12  15
HETATM   15  C   UNL     1      42.645  -8.782  11.887  1.00  0.00     0.035 A 
HETATM   16  C   UNL     1      43.006  -7.909  12.921  1.00  0.00     0.053 A 
HETATM   17  C   UNL     1      42.388  -7.989  14.170  1.00  0.00     0.069 A 
HETATM   18  C   UNL     1      41.365  -8.914  14.371  1.00  0.00     0.037 A 
HETATM   19  C   UNL     1      40.972  -9.762  13.328  1.00  0.00     0.004 A 
HETATM   20  C   UNL     1      41.609  -9.698  12.087  1.00  0.00     0.017 A 
BRANCH  17  21
HETATM   21  O   UNL     1      42.861  -7.099  15.090  1.00  0.00    -0.351 OA
BRANCH  21  22
HETATM   22  C   UNL     1      41.892  -6.407  15.880  1.00  0.00     0.175 C 
BRANCH  22  23
HETATM   23  C   UNL     1      42.037  -6.908  17.314  1.00  0.00     0.022 C 
HETATM   24  C   UNL     1      40.733  -7.458  17.862  1.00  0.00     0.007 C 
ENDBRANCH  22  23
ENDBRANCH  21  22
ENDBRANCH  17  21
ENDBRANCH  12  15
ENDBRANCH   9  11
ENDBRANCH   7   9
ENDBRANCH   1   7
BRANCH   3  25
HETATM   25  O   UNL     1      41.047 -12.402   5.268  1.00  0.00    -0.360 OA
HETATM   26  H   UNL     1      41.107 -13.265   4.829  1.00  0.00     0.217 HD
ENDBRANCH   3  25
BRANCH   4  27
HETATM   27  C   UNL     1      43.205 -14.379   5.297  1.00  0.00     0.183 A 
HETATM   28  O   UNL     1      42.713 -14.390   4.018  1.00  0.00    -0.288 OA
HETATM   29  C   UNL     1      42.890 -15.670   3.590  1.00  0.00     0.112 A 
HETATM   30  C   UNL     1      43.453 -16.381   4.634  1.00  0.00     0.094 A 
HETATM   31  C   UNL     1      42.584 -16.185   2.332  1.00  0.00    -0.025 A 
HETATM   32  N   UNL     1      43.625 -15.561   5.723  1.00  0.00    -0.221 NA
HETATM   33  C   UNL     1      43.761 -17.735   4.442  1.00  0.00     0.041 A 
HETATM   34  C   UNL     1      43.500 -18.312   3.183  1.00  0.00    -0.059 A 
HETATM   35  C   UNL     1      42.912 -17.545   2.160  1.00  0.00     0.016 A 
HETATM   36  C   UNL     1      43.830 -19.759   2.952  1.00  0.00     0.048 C 
HETATM   37  C   UNL     1      41.985 -15.383   1.223  1.00  0.00     0.051 C 
ENDBRANCH   4  27
TORSDOF 9
ENDMDL
MODEL 4
REMARK VINA RESULT:      -8.9      2.545      9.825
REMARK  9 active torsions:
REMARK  status: ('A' for Active; 'I' for Inactive)
REMARK    1  A    between atoms: C_2  and  C_3 
REMARK    2  A    between atoms: C_3  and  O_4 
REMARK    3  A    between atoms: O_4  and  C_5 
REMARK    4  A    between atoms: C_7  and  C_8 
REMARK       I    between atoms: C_8  and  N_9 
REMARK    5  A    between atoms: N_9  and  C_10 
REMARK    6  A    between atoms: C_10  and  N_11 
REMARK    7  A    between atoms: N_11  and  C_12 
REMARK    8  A    between atoms: C_14  and  O_15 
REMARK    9  A    between atoms: C_16  and  C_17 
ROOT
HETATM    1  C   UNL     1      39.904 -10.392   5.847  1.00  0.00     0.036 A 
HETATM    2  C   UNL     1      39.386 -11.607   6.294  1.00  0.00     0.067 A 
HETATM    3  C   UNL     1      39.970 -12.820   5.910  1.00  0.00     0.082 A 
HETATM    4  C   UNL     1      41.095 -12.850   5.073  1.00  0.00     0.050 A 
HETATM    5  C   UNL     1      41.646 -11.614   4.685  1.00  0.00     0.021 A 
HETATM    6  C   UNL     1      41.071 -10.398   5.085  1.00  0.00     0.030 A 
ENDROOT
BRANCH   1   7
HETATM    7  N   UNL     1      39.317  -9.151   6.172  1.00  0.00    -0.333 N 
HETATM    8  H   UNL     1      38.398  -8.963   5.767  1.00  0.00     0.168 HD
BRANCH   7   9
HETATM    9  C   UNL     1      39.697  -8.243   7.133  1.00  0.00     0.179 C 
HETATM   10  S   UNL     1      39.544  -6.574   7.123  1.00  0.00    -0.040 SA
BRANCH   9  11
HETATM   11  N   UNL     1      40.302  -8.776   8.251  1.00  0.00    -0.299 N 
HETATM   12  C   UNL     1      39.729  -9.390   9.356  1.00  0.00     0.257 C 
HETATM   13  O   UNL     1      38.616  -9.903   9.353  1.00  0.00    -0.267 OA
HETATM   14  H   UNL     1      41.295  -8.589   8.275  1.00  0.00     0.171 HD
BRANCH  12  15
HETATM   15  C   UNL     1      40.623  -9.483  10.544  1.00  0.00     0.035 A 
HETATM   16  C   UNL     1      41.996  -9.225  10.432  1.00  0.00     0.053 A 
HETATM   17  C   UNL     1      42.840  -9.377  11.532  1.00  0.00     0.069 A 
HETATM   18  C   UNL     1      42.303  -9.739  12.766  1.00  0.00     0.037 A 
HETATM   19  C   UNL     1      40.925  -9.957  12.893  1.00  0.00     0.004 A 
HETATM   20  C   UNL     1      40.084  -9.830  11.785  1.00  0.00     0.017 A 
BRANCH  17  21
HETATM   21  O   UNL     1      44.156  -9.123  11.270  1.00  0.00    -0.351 OA
BRANCH  21  22
HETATM   22  C   UNL     1      44.863 -10.097  10.500  1.00  0.00     0.175 C 
BRANCH  22  23
HETATM   23  C   UNL     1      45.490  -9.369   9.314  1.00  0.00     0.022 C 
HETATM   24  C   UNL     1      45.806 -10.311   8.167  1.00  0.00     0.007 C 
ENDBRANCH  22  23
ENDBRANCH  21  22
ENDBRANCH  17  21
ENDBRANCH  12  15
ENDBRANCH   9  11
ENDBRANCH   7   9
ENDBRANCH   1   7
BRANCH   3  25
HETATM   25  O   UNL     1      39.397 -13.978   6.362  1.00  0.00    -0.360 OA
HETATM   26  H   UNL     1      39.976 -14.730   6.163  1.00  0.00     0.217 HD
ENDBRANCH   3  25
BRANCH   4  27
HETATM   27  C   UNL     1      41.689 -14.080   4.545  1.00  0.00     0.183 A 
HETATM   28  O   UNL     1      42.701 -14.653   5.272  1.00  0.00    -0.288 OA
HETATM   29  C   UNL     1      42.984 -15.811   4.615  1.00  0.00     0.112 A 
HETATM   30  C   UNL     1      42.156 -15.874   3.509  1.00  0.00     0.094 A 
HETATM   31  C   UNL     1      43.920 -16.777   4.981  1.00  0.00    -0.025 A 
HETATM   32  N   UNL     1      41.356 -14.758   3.456  1.00  0.00    -0.221 NA
HETATM   33  C   UNL     1      42.235 -16.992   2.668  1.00  0.00     0.041 A 
HETATM   34  C   UNL     1      43.142 -18.019   2.997  1.00  0.00    -0.059 A 
HETATM   35  C   UNL     1      43.972 -17.896   4.127  1.00  0.00     0.016 A 
HETATM   36  C   UNL     1      43.237 -19.231   2.114  1.00  0.00     0.048 C 
HETATM   37  C   UNL     1      44.791 -16.681   6.192  1.00  0.00     0.051 C 
ENDBRANCH   4  27
TORSDOF 9
ENDMDL
MODEL 5
REMARK VINA RESULT:      -8.9      1.568      2.265
REMARK  9 active torsions:
REMARK  status: ('A' for Active; 'I' for Inactive)
REMARK    1  A    between atoms: C_2  and  C_3 
REMARK    2  A    between atoms: C_3  and  O_4 
REMARK    3  A    between atoms: O_4  and  C_5 
REMARK    4  A    between atoms: C_7  and  C_8 
REMARK       I    between atoms: C_8  and  N_9 
REMARK    5  A    between atoms: N_9  and  C_10 
REMARK    6  A    between atoms: C_10  and  N_11 
REMARK    7  A    between atoms: N_11  and  C_12 
REMARK    8  A    between atoms: C_14  and  O_15 
REMARK    9  A    between atoms: C_16  and  C_17 
ROOT
HETATM    1  C   UNL     1      43.256 -11.209   4.728  1.00  0.00     0.036 A 
HETATM    2  C   UNL     1      44.176 -11.638   5.684  1.00  0.00     0.067 A 
HETATM    3  C   UNL     1      44.161 -11.108   6.980  1.00  0.00     0.082 A 
HETATM    4  C   UNL     1      43.217 -10.141   7.357  1.00  0.00     0.050 A 
HETATM    5  C   UNL     1      42.254  -9.770   6.401  1.00  0.00     0.021 A 
HETATM    6  C   UNL     1      42.258 -10.314   5.107  1.00  0.00     0.030 A 
ENDROOT
BRANCH   1   7
HETATM    7  N   UNL     1      43.268 -11.682   3.398  1.00  0.00    -0.333 N 
HETATM    8  H   UNL     1      44.030 -11.350   2.805  1.00  0.00     0.168 HD
BRANCH   7   9
HETATM    9  C   UNL     1      42.530 -12.700   2.839  1.00  0.00     0.179 C 
HETATM   10  S   UNL     1      41.448 -12.635   1.561  1.00  0.00    -0.040 SA
BRANCH   9  11
HETATM   11  N   UNL     1      42.690 -13.940   3.418  1.00  0.00    -0.299 N 
HETATM   12  C   UNL     1      41.834 -14.639   4.258  1.00  0.00     0.257 C 
HETATM   13  O   UNL     1      40.626 -14.439   4.325  1.00  0.00    -0.267 OA
HETATM   14  H   UNL     1      43.614 -14.320   3.261  1.00  0.00     0.171 HD
BRANCH  12  15
HETATM   15  C   UNL     1      42.479 -15.749   5.013  1.00  0.00     0.035 A 
HETATM   16  C   UNL     1      43.206 -16.744   4.346  1.00  0.00     0.053 A 
HETATM   17  C   UNL     1      43.753 -17.818   5.049  1.00  0.00     0.069 A 
HETATM   18  C   UNL     1      43.617 -17.873   6.435  1.00  0.00     0.037 A 
HETATM   19  C   UNL     1      42.926 -16.859   7.111  1.00  0.00     0.004 A 
HETATM   20  C   UNL     1      42.357 -15.798   6.403  1.00  0.00     0.017 A 
BRANCH  17  21
HETATM   21  O   UNL     1      44.407 -18.726   4.267  1.00  0.00    -0.351 OA
BRANCH  21  22
HETATM   22  C   UNL     1      44.369 -20.091   4.689  1.00  0.00     0.175 C 
BRANCH  22  23
HETATM   23  C   UNL     1      43.755 -20.900   3.551  1.00  0.00     0.022 C 
HETATM   24  C   UNL     1      43.621 -20.087   2.277  1.00  0.00     0.007 C 
ENDBRANCH  22  23
ENDBRANCH  21  22
ENDBRANCH  17  21
ENDBRANCH  12  15
ENDBRANCH   9  11
ENDBRANCH   7   9
ENDBRANCH   1   7
BRANCH   3  25
HETATM   25  O   UNL     1      45.108 -11.552   7.864  1.00  0.00    -0.360 OA
HETATM   26  H   UNL     1      45.440 -12.419   7.581  1.00  0.00     0.217 HD
ENDBRANCH   3  25
BRANCH   4  27
HETATM   27  C   UNL     1      43.212  -9.467   8.658  1.00  0.00     0.183 A 
HETATM   28  O   UNL     1      42.852  -8.145   8.680  1.00  0.00    -0.288 OA
HETATM   29  C   UNL     1      42.835  -7.814  10.001  1.00  0.00     0.112 A 
HETATM   30  C   UNL     1      43.212  -8.938  10.715  1.00  0.00     0.094 A 
HETATM   31  C   UNL     1      42.489  -6.583  10.554  1.00  0.00    -0.025 A 
HETATM   32  N   UNL     1      43.476  -9.975   9.853  1.00  0.00    -0.221 NA
HETATM   33  C   UNL     1      43.253  -8.868  12.113  1.00  0.00     0.041 A 
HETATM   34  C   UNL     1      42.889  -7.658  12.738  1.00  0.00    -0.059 A 
HETATM   35  C   UNL     1      42.527  -6.542  11.962  1.00  0.00     0.016 A 
HETATM   36  C   UNL     1      42.918  -7.564  14.237  1.00  0.00     0.048 C 
HETATM   37  C   UNL     1      42.075  -5.392   9.751  1.00  0.00     0.051 C 
ENDBRANCH   4  27
TORSDOF 9
ENDMDL
MODEL 6
REMARK VINA RESULT:      -8.9      2.195     10.422
REMARK  9 active torsions:
REMARK  status: ('A' for Active; 'I' for Inactive)
REMARK    1  A    between atoms: C_2  and  C_3 
REMARK    2  A    between atoms: C_3  and  O_4 
REMARK    3  A    between atoms: O_4  and  C_5 
REMARK    4  A    between atoms: C_7  and  C_8 
REMARK       I    between atoms: C_8  and  N_9 
REMARK    5  A    between atoms: N_9  and  C_10 
REMARK    6  A    between atoms: C_10  and  N_11 
REMARK    7  A    between atoms: N_11  and  C_12 
REMARK    8  A    between atoms: C_14  and  O_15 
REMARK    9  A    between atoms: C_16  and  C_17 
ROOT
HETATM    1  C   UNL     1      41.428 -10.798   4.850  1.00  0.00     0.036 A 
HETATM    2  C   UNL     1      40.607 -11.860   5.228  1.00  0.00     0.067 A 
HETATM    3  C   UNL     1      41.007 -13.185   5.017  1.00  0.00     0.082 A 
HETATM    4  C   UNL     1      42.246 -13.484   4.430  1.00  0.00     0.050 A 
HETATM    5  C   UNL     1      43.091 -12.403   4.117  1.00  0.00     0.021 A 
HETATM    6  C   UNL     1      42.698 -11.075   4.345  1.00  0.00     0.030 A 
ENDROOT
BRANCH   1   7
HETATM    7  N   UNL     1      41.042  -9.449   5.002  1.00  0.00    -0.333 N 
HETATM    8  H   UNL     1      40.913  -8.915   4.141  1.00  0.00     0.168 HD
BRANCH   7   9
HETATM    9  C   UNL     1      40.597  -8.802   6.132  1.00  0.00     0.179 C 
HETATM   10  S   UNL     1      39.195  -7.911   6.349  1.00  0.00    -0.040 SA
BRANCH   9  11
HETATM   11  N   UNL     1      41.424  -8.883   7.230  1.00  0.00    -0.299 N 
HETATM   12  C   UNL     1      42.481  -8.064   7.601  1.00  0.00     0.257 C 
HETATM   13  O   UNL     1      42.621  -6.909   7.215  1.00  0.00    -0.267 OA
HETATM   14  H   UNL     1      41.266  -9.725   7.767  1.00  0.00     0.171 HD
BRANCH  12  15
HETATM   15  C   UNL     1      43.401  -8.661   8.610  1.00  0.00     0.035 A 
HETATM   16  C   UNL     1      43.216  -8.426   9.978  1.00  0.00     0.053 A 
HETATM   17  C   UNL     1      44.117  -8.932  10.916  1.00  0.00     0.069 A 
HETATM   18  C   UNL     1      45.182  -9.722  10.488  1.00  0.00     0.037 A 
HETATM   19  C   UNL     1      45.348  -9.994   9.124  1.00  0.00     0.004 A 
HETATM   20  C   UNL     1      44.460  -9.466   8.184  1.00  0.00     0.017 A 
BRANCH  17  21
HETATM   21  O   UNL     1      43.830  -8.599  12.208  1.00  0.00    -0.351 OA
BRANCH  21  22
HETATM   22  C   UNL     1      42.615  -9.114  12.756  1.00  0.00     0.175 C 
BRANCH  22  23
HETATM   23  C   UNL     1      42.322  -8.325  14.029  1.00  0.00     0.022 C 
HETATM   24  C   UNL     1      43.211  -7.104  14.163  1.00  0.00     0.007 C 
ENDBRANCH  22  23
ENDBRANCH  21  22
ENDBRANCH  17  21
ENDBRANCH  12  15
ENDBRANCH   9  11
ENDBRANCH   7   9
ENDBRANCH   1   7
BRANCH   3  25
HETATM   25  O   UNL     1      40.143 -14.181   5.386  1.00  0.00    -0.360 OA
HETATM   26  H   UNL     1      39.317 -14.102   4.881  1.00  0.00     0.217 HD
ENDBRANCH   3  25
BRANCH   4  27
HETATM   27  C   UNL     1      42.680 -14.839   4.082  1.00  0.00     0.183 A 
HETATM   28  O   UNL     1      42.952 -15.698   5.115  1.00  0.00    -0.288 OA
HETATM   29  C   UNL     1      43.225 -16.887   4.512  1.00  0.00     0.112 A 
HETATM   30  C   UNL     1      43.135 -16.690   3.145  1.00  0.00     0.094 A 
HETATM   31  C   UNL     1      43.525 -18.096   5.136  1.00  0.00    -0.025 A 
HETATM   32  N   UNL     1      42.816 -15.380   2.880  1.00  0.00    -0.221 NA
HETATM   33  C   UNL     1      43.352 -17.777   2.289  1.00  0.00     0.041 A 
HETATM   34  C   UNL     1      43.634 -19.036   2.858  1.00  0.00    -0.059 A 
HETATM   35  C   UNL     1      43.728 -19.176   4.254  1.00  0.00     0.016 A 
HETATM   36  C   UNL     1      43.861 -20.217   1.958  1.00  0.00     0.048 C 
HETATM   37  C   UNL     1      43.603 -18.276   6.617  1.00  0.00     0.051 C 
ENDBRANCH   4  27
TORSDOF 9
ENDMDL
MODEL 7
REMARK VINA RESULT:      -8.8      2.330     11.223
REMARK  9 active torsions:
REMARK  status: ('A' for Active; 'I' for Inactive)
REMARK    1  A    between atoms: C_2  and  C_3 
REMARK    2  A    between atoms: C_3  and  O_4 
REMARK    3  A    between atoms: O_4  and  C_5 
REMARK    4  A    between atoms: C_7  and  C_8 
REMARK       I    between atoms: C_8  and  N_9 
REMARK    5  A    between atoms: N_9  and  C_10 
REMARK    6  A    between atoms: C_10  and  N_11 
REMARK    7  A    between atoms: N_11  and  C_12 
REMARK    8  A    between atoms: C_14  and  O_15 
REMARK    9  A    between atoms: C_16  and  C_17 
ROOT
HETATM    1  C   UNL     1      43.408 -11.037   7.138  1.00  0.00     0.036 A 
HETATM    2  C   UNL     1      42.281 -11.405   6.405  1.00  0.00     0.067 A 
HETATM    3  C   UNL     1      42.182 -12.680   5.834  1.00  0.00     0.082 A 
HETATM    4  C   UNL     1      43.206 -13.626   5.990  1.00  0.00     0.050 A 
HETATM    5  C   UNL     1      44.306 -13.262   6.789  1.00  0.00     0.021 A 
HETATM    6  C   UNL     1      44.397 -11.991   7.376  1.00  0.00     0.030 A 
ENDROOT
BRANCH   1   7
HETATM    7  N   UNL     1      43.568  -9.748   7.688  1.00  0.00    -0.333 N 
HETATM    8  H   UNL     1      42.762  -9.124   7.623  1.00  0.00     0.168 HD
BRANCH   7   9
HETATM    9  C   UNL     1      44.575  -9.276   8.499  1.00  0.00     0.179 C 
HETATM   10  S   UNL     1      46.185  -9.004   8.126  1.00  0.00    -0.040 SA
BRANCH   9  11
HETATM   11  N   UNL     1      44.214  -9.005   9.801  1.00  0.00    -0.299 N 
HETATM   12  C   UNL     1      43.740  -9.864  10.782  1.00  0.00     0.257 C 
HETATM   13  O   UNL     1      43.918 -11.077  10.775  1.00  0.00    -0.267 OA
HETATM   14  H   UNL     1      44.220  -8.014  10.002  1.00  0.00     0.171 HD
BRANCH  12  15
HETATM   15  C   UNL     1      43.075  -9.185  11.930  1.00  0.00     0.035 A 
HETATM   16  C   UNL     1      43.115  -7.791  12.060  1.00  0.00     0.053 A 
HETATM   17  C   UNL     1      42.548  -7.163  13.170  1.00  0.00     0.069 A 
HETATM   18  C   UNL     1      41.891  -7.929  14.132  1.00  0.00     0.037 A 
HETATM   19  C   UNL     1      41.813  -9.320  13.985  1.00  0.00     0.004 A 
HETATM   20  C   UNL     1      42.403  -9.949  12.886  1.00  0.00     0.017 A 
BRANCH  17  21
HETATM   21  O   UNL     1      42.688  -5.805  13.181  1.00  0.00    -0.351 OA
BRANCH  21  22
HETATM   22  C   UNL     1      41.525  -5.036  13.491  1.00  0.00     0.175 C 
BRANCH  22  23
HETATM   23  C   UNL     1      41.285  -4.085  12.321  1.00  0.00     0.022 C 
HETATM   24  C   UNL     1      42.532  -3.888  11.480  1.00  0.00     0.007 C 
ENDBRANCH  22  23
ENDBRANCH  21  22
ENDBRANCH  17  21
ENDBRANCH  12  15
ENDBRANCH   9  11
ENDBRANCH   7   9
ENDBRANCH   1   7
BRANCH   3  25
HETATM   25  O   UNL     1      41.061 -12.969   5.103  1.00  0.00    -0.360 OA
HETATM   26  H   UNL     1      40.274 -12.635   5.564  1.00  0.00     0.217 HD
ENDBRANCH   3  25
BRANCH   4  27
HETATM   27  C   UNL     1      43.218 -14.935   5.332  1.00  0.00     0.183 A 
HETATM   28  O   UNL     1      43.052 -14.957   3.972  1.00  0.00    -0.288 OA
HETATM   29  C   UNL     1      43.207 -16.265   3.626  1.00  0.00     0.112 A 
HETATM   30  C   UNL     1      43.429 -16.977   4.791  1.00  0.00     0.094 A 
HETATM   31  C   UNL     1      43.169 -16.805   2.342  1.00  0.00    -0.025 A 
HETATM   32  N   UNL     1      43.408 -16.129   5.873  1.00  0.00    -0.221 NA
HETATM   33  C   UNL     1      43.646 -18.359   4.708  1.00  0.00     0.041 A 
HETATM   34  C   UNL     1      43.646 -18.964   3.435  1.00  0.00    -0.059 A 
HETATM   35  C   UNL     1      43.399 -18.193   2.284  1.00  0.00     0.016 A 
HETATM   36  C   UNL     1      43.884 -20.443   3.322  1.00  0.00     0.048 C 
HETATM   37  C   UNL     1      42.936 -16.001   1.104  1.00  0.00     0.051 C 
ENDBRANCH   4  27
TORSDOF 9
ENDMDL
MODEL 8
REMARK VINA RESULT:      -8.5      3.451      9.792
REMARK  9 active torsions:
REMARK  status: ('A' for Active; 'I' for Inactive)
REMARK    1  A    between atoms: C_2  and  C_3 
REMARK    2  A    between atoms: C_3  and  O_4 
REMARK    3  A    between atoms: O_4  and  C_5 
REMARK    4  A    between atoms: C_7  and  C_8 
REMARK       I    between atoms: C_8  and  N_9 
REMARK    5  A    between atoms: N_9  and  C_10 
REMARK    6  A    between atoms: C_10  and  N_11 
REMARK    7  A    between atoms: N_11  and  C_12 
REMARK    8  A    between atoms: C_14  and  O_15 
REMARK    9  A    between atoms: C_16  and  C_17 
ROOT
HETATM    1  C   UNL     1      40.077 -10.668   3.591  1.00  0.00     0.036 A 
HETATM    2  C   UNL     1      39.267 -11.742   3.225  1.00  0.00     0.067 A 
HETATM    3  C   UNL     1      39.790 -13.038   3.139  1.00  0.00     0.082 A 
HETATM    4  C   UNL     1      41.138 -13.296   3.428  1.00  0.00     0.050 A 
HETATM    5  C   UNL     1      41.925 -12.213   3.862  1.00  0.00     0.021 A 
HETATM    6  C   UNL     1      41.396 -10.917   3.965  1.00  0.00     0.030 A 
ENDROOT
BRANCH   1   7
HETATM    7  N   UNL     1      39.600  -9.341   3.642  1.00  0.00    -0.333 N 
HETATM    8  H   UNL     1      39.461  -8.874   2.745  1.00  0.00     0.168 HD
BRANCH   7   9
HETATM    9  C   UNL     1      39.083  -8.652   4.715  1.00  0.00     0.179 C 
HETATM   10  S   UNL     1      37.560  -7.977   4.895  1.00  0.00    -0.040 SA
BRANCH   9  11
HETATM   11  N   UNL     1      39.938  -8.479   5.782  1.00  0.00    -0.299 N 
HETATM   12  C   UNL     1      40.866  -7.474   6.014  1.00  0.00     0.257 C 
HETATM   13  O   UNL     1      40.818  -6.364   5.495  1.00  0.00    -0.267 OA
HETATM   14  H   UNL     1      39.923  -9.266   6.416  1.00  0.00     0.171 HD
BRANCH  12  15
HETATM   15  C   UNL     1      41.889  -7.804   7.045  1.00  0.00     0.035 A 
HETATM   16  C   UNL     1      42.408  -9.101   7.153  1.00  0.00     0.053 A 
HETATM   17  C   UNL     1      43.318  -9.422   8.161  1.00  0.00     0.069 A 
HETATM   18  C   UNL     1      43.751  -8.429   9.038  1.00  0.00     0.037 A 
HETATM   19  C   UNL     1      43.265  -7.122   8.909  1.00  0.00     0.004 A 
HETATM   20  C   UNL     1      42.336  -6.807   7.915  1.00  0.00     0.017 A 
BRANCH  17  21
HETATM   21  O   UNL     1      43.715 -10.728   8.164  1.00  0.00    -0.351 OA
BRANCH  21  22
HETATM   22  C   UNL     1      45.008 -11.014   7.628  1.00  0.00     0.175 C 
BRANCH  22  23
HETATM   23  C   UNL     1      44.837 -12.134   6.606  1.00  0.00     0.022 C 
HETATM   24  C   UNL     1      43.683 -13.056   6.954  1.00  0.00     0.007 C 
ENDBRANCH  22  23
ENDBRANCH  21  22
ENDBRANCH  17  21
ENDBRANCH  12  15
ENDBRANCH   9  11
ENDBRANCH   7   9
ENDBRANCH   1   7
BRANCH   3  25
HETATM   25  O   UNL     1      38.948 -14.044   2.747  1.00  0.00    -0.360 OA
HETATM   26  H   UNL     1      38.252 -13.685   2.174  1.00  0.00     0.217 HD
ENDBRANCH   3  25
BRANCH   4  27
HETATM   27  C   UNL     1      41.776 -14.603   3.255  1.00  0.00     0.183 A 
HETATM   28  O   UNL     1      42.651 -15.011   4.229  1.00  0.00    -0.288 OA
HETATM   29  C   UNL     1      43.003 -16.275   3.869  1.00  0.00     0.112 A 
HETATM   30  C   UNL     1      42.352 -16.566   2.684  1.00  0.00     0.094 A 
HETATM   31  C   UNL     1      43.849 -17.140   4.561  1.00  0.00    -0.025 A 
HETATM   32  N   UNL     1      41.597 -15.489   2.286  1.00  0.00    -0.221 NA
HETATM   33  C   UNL     1      42.531 -17.830   2.107  1.00  0.00     0.041 A 
HETATM   34  C   UNL     1      43.353 -18.762   2.770  1.00  0.00    -0.059 A 
HETATM   35  C   UNL     1      44.003 -18.408   3.966  1.00  0.00     0.016 A 
HETATM   36  C   UNL     1      43.552 -20.127   2.173  1.00  0.00     0.048 C 
HETATM   37  C   UNL     1      44.527 -16.796   5.847  1.00  0.00     0.051 C 
ENDBRANCH   4  27
TORSDOF 9
ENDMDL
MODEL 9
REMARK VINA RESULT:      -8.5      2.717     10.011
REMARK  9 active torsions:
REMARK  status: ('A' for Active; 'I' for Inactive)
REMARK    1  A    between atoms: C_2  and  C_3 
REMARK    2  A    between atoms: C_3  and  O_4 
REMARK    3  A    between atoms: O_4  and  C_5 
REMARK    4  A    between atoms: C_7  and  C_8 
REMARK       I    between atoms: C_8  and  N_9 
REMARK    5  A    between atoms: N_9  and  C_10 
REMARK    6  A    between atoms: C_10  and  N_11 
REMARK    7  A    between atoms: N_11  and  C_12 
REMARK    8  A    between atoms: C_14  and  O_15 
REMARK    9  A    between atoms: C_16  and  C_17 
ROOT
HETATM    1  C   UNL     1      39.334 -11.597   4.464  1.00  0.00     0.036 A 
HETATM    2  C   UNL     1      39.612 -11.899   3.132  1.00  0.00     0.067 A 
HETATM    3  C   UNL     1      40.277 -13.082   2.788  1.00  0.00     0.082 A 
HETATM    4  C   UNL     1      40.674 -14.001   3.770  1.00  0.00     0.050 A 
HETATM    5  C   UNL     1      40.326 -13.715   5.103  1.00  0.00     0.021 A 
HETATM    6  C   UNL     1      39.644 -12.538   5.446  1.00  0.00     0.030 A 
ENDROOT
BRANCH   1   7
HETATM    7  N   UNL     1      38.709 -10.394   4.856  1.00  0.00    -0.333 N 
HETATM    8  H   UNL     1      37.696 -10.349   4.737  1.00  0.00     0.168 HD
BRANCH   7   9
HETATM    9  C   UNL     1      39.232  -9.349   5.583  1.00  0.00     0.179 C 
HETATM   10  S   UNL     1      38.546  -7.858   5.921  1.00  0.00    -0.040 SA
BRANCH   9  11
HETATM   11  N   UNL     1      40.498  -9.548   6.089  1.00  0.00    -0.299 N 
HETATM   12  C   UNL     1      41.709  -9.651   5.420  1.00  0.00     0.257 C 
HETATM   13  O   UNL     1      41.911  -9.204   4.296  1.00  0.00    -0.267 OA
HETATM   14  H   UNL     1      40.488  -9.735   7.083  1.00  0.00     0.171 HD
BRANCH  12  15
HETATM   15  C   UNL     1      42.808 -10.259   6.221  1.00  0.00     0.035 A 
HETATM   16  C   UNL     1      42.988  -9.919   7.568  1.00  0.00     0.053 A 
HETATM   17  C   UNL     1      44.057 -10.440   8.297  1.00  0.00     0.069 A 
HETATM   18  C   UNL     1      44.924 -11.349   7.691  1.00  0.00     0.037 A 
HETATM   19  C   UNL     1      44.723 -11.724   6.357  1.00  0.00     0.004 A 
HETATM   20  C   UNL     1      43.668 -11.182   5.621  1.00  0.00     0.017 A 
BRANCH  17  21
HETATM   21  O   UNL     1      44.127  -9.998   9.587  1.00  0.00    -0.351 OA
BRANCH  21  22
HETATM   22  C   UNL     1      42.941  -9.428  10.142  1.00  0.00     0.175 C 
BRANCH  22  23
HETATM   23  C   UNL     1      43.356  -8.178  10.912  1.00  0.00     0.022 C 
HETATM   24  C   UNL     1      43.372  -8.409  12.412  1.00  0.00     0.007 C 
ENDBRANCH  22  23
ENDBRANCH  21  22
ENDBRANCH  17  21
ENDBRANCH  12  15
ENDBRANCH   9  11
ENDBRANCH   7   9
ENDBRANCH   1   7
BRANCH   3  25
HETATM   25  O   UNL     1      40.543 -13.305   1.464  1.00  0.00    -0.360 OA
HETATM   26  H   UNL     1      40.661 -14.256   1.309  1.00  0.00     0.217 HD
ENDBRANCH   3  25
BRANCH   4  27
HETATM   27  C   UNL     1      41.466 -15.202   3.493  1.00  0.00     0.183 A 
HETATM   28  O   UNL     1      42.470 -15.511   4.374  1.00  0.00    -0.288 OA
HETATM   29  C   UNL     1      42.959 -16.704   3.937  1.00  0.00     0.112 A 
HETATM   30  C   UNL     1      42.252 -17.049   2.799  1.00  0.00     0.094 A 
HETATM   31  C   UNL     1      43.972 -17.461   4.521  1.00  0.00    -0.025 A 
HETATM   32  N   UNL     1      41.325 -16.077   2.508  1.00  0.00    -0.221 NA
HETATM   33  C   UNL     1      42.549 -18.260   2.160  1.00  0.00     0.041 A 
HETATM   34  C   UNL     1      43.546 -19.087   2.715  1.00  0.00    -0.059 A 
HETATM   35  C   UNL     1      44.244 -18.679   3.866  1.00  0.00     0.016 A 
HETATM   36  C   UNL     1      43.875 -20.393   2.051  1.00  0.00     0.048 C 
HETATM   37  C   UNL     1      44.707 -17.062   5.759  1.00  0.00     0.051 C 
ENDBRANCH   4  27
TORSDOF 9
ENDMDL
MODEL 10
REMARK VINA RESULT:      -8.5      4.451      9.031
REMARK  9 active torsions:
REMARK  status: ('A' for Active; 'I' for Inactive)
REMARK    1  A    between atoms: C_2  and  C_3 
REMARK    2  A    between atoms: C_3  and  O_4 
REMARK    3  A    between atoms: O_4  and  C_5 
REMARK    4  A    between atoms: C_7  and  C_8 
REMARK       I    between atoms: C_8  and  N_9 
REMARK    5  A    between atoms: N_9  and  C_10 
REMARK    6  A    between atoms: C_10  and  N_11 
REMARK    7  A    between atoms: N_11  and  C_12 
REMARK    8  A    between atoms: C_14  and  O_15 
REMARK    9  A    between atoms: C_16  and  C_17 
ROOT
HETATM    1  C   UNL     1      41.572 -10.157   5.375  1.00  0.00     0.036 A 
HETATM    2  C   UNL     1      42.318 -10.125   4.198  1.00  0.00     0.067 A 
HETATM    3  C   UNL     1      41.797 -10.640   3.005  1.00  0.00     0.082 A 
HETATM    4  C   UNL     1      40.509 -11.193   2.956  1.00  0.00     0.050 A 
HETATM    5  C   UNL     1      39.743 -11.156   4.136  1.00  0.00     0.021 A 
HETATM    6  C   UNL     1      40.259 -10.623   5.328  1.00  0.00     0.030 A 
ENDROOT
BRANCH   1   7
HETATM    7  N   UNL     1      42.078  -9.693   6.607  1.00  0.00    -0.333 N 
HETATM    8  H   UNL     1      41.641  -8.853   6.991  1.00  0.00     0.168 HD
BRANCH   7   9
HETATM    9  C   UNL     1      42.928 -10.328   7.484  1.00  0.00     0.179 C 
HETATM   10  S   UNL     1      43.970  -9.656   8.612  1.00  0.00    -0.040 SA
BRANCH   9  11
HETATM   11  N   UNL     1      42.937 -11.704   7.415  1.00  0.00    -0.299 N 
HETATM   12  C   UNL     1      43.828 -12.550   6.771  1.00  0.00     0.257 C 
HETATM   13  O   UNL     1      44.974 -12.236   6.469  1.00  0.00    -0.267 OA
HETATM   14  H   UNL     1      42.108 -12.113   7.826  1.00  0.00     0.171 HD
BRANCH  12  15
HETATM   15  C   UNL     1      43.324 -13.936   6.562  1.00  0.00     0.035 A 
HETATM   16  C   UNL     1      42.981 -14.389   5.281  1.00  0.00     0.053 A 
HETATM   17  C   UNL     1      42.447 -15.666   5.098  1.00  0.00     0.069 A 
HETATM   18  C   UNL     1      42.302 -16.514   6.194  1.00  0.00     0.037 A 
HETATM   19  C   UNL     1      42.682 -16.080   7.470  1.00  0.00     0.004 A 
HETATM   20  C   UNL     1      43.192 -14.793   7.656  1.00  0.00     0.017 A 
BRANCH  17  21
HETATM   21  O   UNL     1      42.130 -15.961   3.803  1.00  0.00    -0.351 OA
BRANCH  21  22
HETATM   22  C   UNL     1      43.145 -15.744   2.821  1.00  0.00     0.175 C 
BRANCH  22  23
HETATM   23  C   UNL     1      43.144 -16.955   1.893  1.00  0.00     0.022 C 
HETATM   24  C   UNL     1      43.479 -18.240   2.628  1.00  0.00     0.007 C 
ENDBRANCH  22  23
ENDBRANCH  21  22
ENDBRANCH  17  21
ENDBRANCH  12  15
ENDBRANCH   9  11
ENDBRANCH   7   9
ENDBRANCH   1   7
BRANCH   3  25
HETATM   25  O   UNL     1      42.591 -10.602   1.890  1.00  0.00    -0.360 OA
HETATM   26  H   UNL     1      43.498 -10.857   2.125  1.00  0.00     0.217 HD
ENDBRANCH   3  25
BRANCH   4  27
HETATM   27  C   UNL     1      39.943 -11.845   1.772  1.00  0.00     0.183 A 
HETATM   28  O   UNL     1      38.913 -11.206   1.133  1.00  0.00    -0.288 OA
HETATM   29  C   UNL     1      38.661 -11.970   0.034  1.00  0.00     0.112 A 
HETATM   30  C   UNL     1      39.527 -13.048   0.072  1.00  0.00     0.094 A 
HETATM   31  C   UNL     1      37.722 -11.721  -0.964  1.00  0.00    -0.025 A 
HETATM   32  N   UNL     1      40.319 -12.976   1.193  1.00  0.00    -0.221 NA
HETATM   33  C   UNL     1      39.487 -13.984  -0.970  1.00  0.00     0.041 A 
HETATM   34  C   UNL     1      38.578 -13.777  -2.026  1.00  0.00    -0.059 A 
HETATM   35  C   UNL     1      37.709 -12.670  -2.005  1.00  0.00     0.016 A 
HETATM   36  C   UNL     1      38.524 -14.764  -3.157  1.00  0.00     0.048 C 
HETATM   37  C   UNL     1      36.809 -10.538  -0.978  1.00  0.00     0.051 C 
ENDBRANCH   4  27
TORSDOF 9
ENDMDL
