MODEL 1
REMARK VINA RESULT:      -9.2      0.000      0.000
REMARK  2 active torsions:
REMARK  status: ('A' for Active; 'I' for Inactive)
REMARK       I    between atoms: N_4  and  C_5 
REMARK       I    between atoms: C_5  and  N_6 
REMARK    1  A    between atoms: N_6  and  C_7 
REMARK    2  A    between atoms: C_20  and  C_21 
ROOT
HETATM    1  C   UNL     1      39.997 -10.419   3.962  1.00  0.00     0.011 C 
HETATM    2  C   UNL     1      39.004 -10.929   2.918  1.00  0.00     0.002 C 
HETATM    3  C   UNL     1      39.041 -12.452   2.818  1.00  0.00     0.132 C 
HETATM    4  N   UNL     1      40.041 -12.719   1.799  1.00  0.00    -0.325 N 
HETATM    5  C   UNL     1      41.028 -13.687   1.831  1.00  0.00     0.323 C 
HETATM    6  N   UNL     1      40.790 -14.699   2.735  1.00  0.00    -0.309 N 
HETATM    7  O   UNL     1      42.019 -13.619   1.106  1.00  0.00    -0.247 OA
HETATM    8  C   UNL     1      40.106 -11.623   0.839  1.00  0.00     0.125 C 
HETATM    9  C   UNL     1      39.370 -10.445   1.508  1.00  0.00     0.036 C 
HETATM   10  H   UNL     1      39.818 -14.846   2.956  1.00  0.00     0.170 HD
ENDROOT
BRANCH   6  11
HETATM   11  C   UNL     1      41.696 -15.691   3.160  1.00  0.00     0.038 A 
HETATM   12  C   UNL     1      41.848 -16.922   2.515  1.00  0.00     0.062 A 
HETATM   13  C   UNL     1      42.788 -17.846   2.979  1.00  0.00     0.070 A 
HETATM   14  C   UNL     1      43.586 -17.549   4.083  1.00  0.00     0.096 A 
HETATM   15  N   UNL     1      42.949 -19.055   2.304  1.00  0.00    -0.323 N 
HETATM   16  O   UNL     1      44.549 -18.387   4.575  1.00  0.00    -0.335 OA
HETATM   17  C   UNL     1      43.454 -16.317   4.718  1.00  0.00     0.041 A 
HETATM   18  C   UNL     1      44.490 -19.727   4.094  1.00  0.00     0.217 C 
HETATM   19  C   UNL     1      43.829 -20.008   2.736  1.00  0.00     0.251 C 
HETATM   20  C   UNL     1      43.810 -20.583   5.160  1.00  0.00     0.050 C 
HETATM   21  O   UNL     1      44.009 -21.046   2.102  1.00  0.00    -0.270 OA
HETATM   22  C   UNL     1      42.512 -15.391   4.258  1.00  0.00     0.032 A 
HETATM   23  H   UNL     1      42.440 -19.247   1.451  1.00  0.00     0.169 HD
ENDBRANCH   6  11
BRANCH   8  24
HETATM   24  C   UNL     1      39.547 -12.045  -0.508  1.00  0.00     0.003 A 
HETATM   25  C   UNL     1      40.343 -12.177  -1.653  1.00  0.00     0.124 A 
HETATM   26  F   UNL     1      41.660 -11.930  -1.600  1.00  0.00    -0.205 F 
HETATM   27  C   UNL     1      39.803 -12.555  -2.882  1.00  0.00     0.043 A 
HETATM   28  C   UNL     1      38.435 -12.785  -2.996  1.00  0.00     0.003 A 
HETATM   29  C   UNL     1      37.615 -12.630  -1.879  1.00  0.00     0.001 A 
HETATM   30  C   UNL     1      38.166 -12.262  -0.648  1.00  0.00     0.012 A 
ENDBRANCH   8  24
TORSDOF 2
ENDMDL
MODEL 2
REMARK VINA RESULT:      -8.7      3.141      8.307
REMARK  2 active torsions:
REMARK  status: ('A' for Active; 'I' for Inactive)
REMARK       I    between atoms: N_4  and  C_5 
REMARK       I    between atoms: C_5  and  N_6 
REMARK    1  A    between atoms: N_6  and  C_7 
REMARK    2  A    between atoms: C_20  and  C_21 
ROOT
HETATM    1  C   UNL     1      43.167 -14.241   7.236  1.00  0.00     0.011 C 
HETATM    2  C   UNL     1      44.074 -15.264   6.554  1.00  0.00     0.002 C 
HETATM    3  C   UNL     1      43.983 -15.157   5.033  1.00  0.00     0.132 C 
HETATM    4  N   UNL     1      42.911 -16.069   4.675  1.00  0.00    -0.325 N 
HETATM    5  C   UNL     1      41.898 -15.850   3.759  1.00  0.00     0.323 C 
HETATM    6  N   UNL     1      42.162 -14.834   2.867  1.00  0.00    -0.309 N 
HETATM    7  O   UNL     1      40.866 -16.517   3.771  1.00  0.00    -0.247 OA
HETATM    8  C   UNL     1      42.820 -17.163   5.636  1.00  0.00     0.125 C 
HETATM    9  C   UNL     1      43.634 -16.703   6.861  1.00  0.00     0.036 C 
HETATM   10  H   UNL     1      43.140 -14.653   2.712  1.00  0.00     0.170 HD
ENDROOT
BRANCH   6  11
HETATM   11  C   UNL     1      41.254 -14.227   1.977  1.00  0.00     0.038 A 
HETATM   12  C   UNL     1      40.845 -14.813   0.776  1.00  0.00     0.062 A 
HETATM   13  C   UNL     1      39.919 -14.161  -0.044  1.00  0.00     0.070 A 
HETATM   14  C   UNL     1      39.389 -12.926   0.330  1.00  0.00     0.096 A 
HETATM   15  N   UNL     1      39.498 -14.775  -1.223  1.00  0.00    -0.323 N 
HETATM   16  O   UNL     1      38.456 -12.245  -0.401  1.00  0.00    -0.335 OA
HETATM   17  C   UNL     1      39.777 -12.347   1.535  1.00  0.00     0.041 A 
HETATM   18  C   UNL     1      38.273 -12.710  -1.736  1.00  0.00     0.217 C 
HETATM   19  C   UNL     1      38.621 -14.167  -2.077  1.00  0.00     0.251 C 
HETATM   20  C   UNL     1      39.051 -11.786  -2.671  1.00  0.00     0.050 C 
HETATM   21  O   UNL     1      38.209 -14.739  -3.084  1.00  0.00    -0.270 OA
HETATM   22  C   UNL     1      40.706 -12.994   2.355  1.00  0.00     0.032 A 
HETATM   23  H   UNL     1      39.806 -15.709  -1.462  1.00  0.00     0.169 HD
ENDBRANCH   6  11
BRANCH   8  24
HETATM   24  C   UNL     1      43.277 -18.471   5.018  1.00  0.00     0.003 A 
HETATM   25  C   UNL     1      43.457 -19.642   5.765  1.00  0.00     0.124 A 
HETATM   26  F   UNL     1      43.226 -19.651   7.086  1.00  0.00    -0.205 F 
HETATM   27  C   UNL     1      43.890 -20.830   5.175  1.00  0.00     0.043 A 
HETATM   28  C   UNL     1      44.180 -20.861   3.814  1.00  0.00     0.003 A 
HETATM   29  C   UNL     1      44.040 -19.702   3.053  1.00  0.00     0.001 A 
HETATM   30  C   UNL     1      43.595 -18.518   3.650  1.00  0.00     0.012 A 
ENDBRANCH   8  24
TORSDOF 2
ENDMDL
MODEL 3
REMARK VINA RESULT:      -8.3      2.172      3.671
REMARK  2 active torsions:
REMARK  status: ('A' for Active; 'I' for Inactive)
REMARK       I    between atoms: N_4  and  C_5 
REMARK       I    between atoms: C_5  and  N_6 
REMARK    1  A    between atoms: N_6  and  C_7 
REMARK    2  A    between atoms: C_20  and  C_21 
ROOT
HETATM    1  C   UNL     1      38.574 -15.335  -2.798  1.00  0.00     0.011 C 
HETATM    2  C   UNL     1      38.975 -13.869  -2.958  1.00  0.00     0.002 C 
HETATM    3  C   UNL     1      40.184 -13.528  -2.089  1.00  0.00     0.132 C 
HETATM    4  N   UNL     1      39.608 -13.093  -0.829  1.00  0.00    -0.325 N 
HETATM    5  C   UNL     1      40.034 -13.426   0.444  1.00  0.00     0.323 C 
HETATM    6  N   UNL     1      41.324 -13.904   0.494  1.00  0.00    -0.309 N 
HETATM    7  O   UNL     1      39.299 -13.297   1.421  1.00  0.00    -0.247 OA
HETATM    8  C   UNL     1      38.293 -12.498  -1.041  1.00  0.00     0.125 C 
HETATM    9  C   UNL     1      37.872 -12.925  -2.461  1.00  0.00     0.036 C 
HETATM   10  H   UNL     1      41.917 -13.597  -0.261  1.00  0.00     0.170 HD
ENDROOT
BRANCH   6  11
HETATM   11  C   UNL     1      41.958 -14.530   1.586  1.00  0.00     0.038 A 
HETATM   12  C   UNL     1      42.309 -15.883   1.600  1.00  0.00     0.062 A 
HETATM   13  C   UNL     1      42.961 -16.427   2.711  1.00  0.00     0.070 A 
HETATM   14  C   UNL     1      43.272 -15.628   3.810  1.00  0.00     0.096 A 
HETATM   15  N   UNL     1      43.333 -17.771   2.694  1.00  0.00    -0.323 N 
HETATM   16  O   UNL     1      43.937 -16.080   4.916  1.00  0.00    -0.335 OA
HETATM   17  C   UNL     1      42.943 -14.275   3.794  1.00  0.00     0.041 A 
HETATM   18  C   UNL     1      44.026 -17.498   5.034  1.00  0.00     0.217 C 
HETATM   19  C   UNL     1      43.941 -18.361   3.766  1.00  0.00     0.251 C 
HETATM   20  C   UNL     1      42.955 -17.959   6.019  1.00  0.00     0.050 C 
HETATM   21  O   UNL     1      44.319 -19.530   3.722  1.00  0.00    -0.270 OA
HETATM   22  C   UNL     1      42.288 -13.728   2.686  1.00  0.00     0.032 A 
HETATM   23  H   UNL     1      43.191 -18.340   1.870  1.00  0.00     0.169 HD
ENDBRANCH   6  11
BRANCH   8  24
HETATM   24  C   UNL     1      38.330 -10.998  -0.808  1.00  0.00     0.003 A 
HETATM   25  C   UNL     1      37.616 -10.372   0.221  1.00  0.00     0.124 A 
HETATM   26  F   UNL     1      36.853 -11.091   1.058  1.00  0.00    -0.205 F 
HETATM   27  C   UNL     1      37.657  -8.990   0.407  1.00  0.00     0.043 A 
HETATM   28  C   UNL     1      38.403  -8.197  -0.460  1.00  0.00     0.003 A 
HETATM   29  C   UNL     1      39.098  -8.792  -1.511  1.00  0.00     0.001 A 
HETATM   30  C   UNL     1      39.060 -10.179  -1.685  1.00  0.00     0.012 A 
ENDBRANCH   8  24
TORSDOF 2
ENDMDL
MODEL 4
REMARK VINA RESULT:      -8.3      4.446      8.406
REMARK  2 active torsions:
REMARK  status: ('A' for Active; 'I' for Inactive)
REMARK       I    between atoms: N_4  and  C_5 
REMARK       I    between atoms: C_5  and  N_6 
REMARK    1  A    between atoms: N_6  and  C_7 
REMARK    2  A    between atoms: C_20  and  C_21 
ROOT
HETATM    1  C   UNL     1      40.016 -14.391   1.276  1.00  0.00     0.011 C 
HETATM    2  C   UNL     1      40.079 -15.597   2.214  1.00  0.00     0.002 C 
HETATM    3  C   UNL     1      40.227 -15.158   3.670  1.00  0.00     0.132 C 
HETATM    4  N   UNL     1      41.663 -15.092   3.878  1.00  0.00    -0.325 N 
HETATM    5  C   UNL     1      42.366 -14.105   4.545  1.00  0.00     0.323 C 
HETATM    6  N   UNL     1      41.589 -13.336   5.383  1.00  0.00    -0.309 N 
HETATM    7  O   UNL     1      43.574 -13.954   4.380  1.00  0.00    -0.247 OA
HETATM    8  C   UNL     1      42.355 -16.042   3.015  1.00  0.00     0.125 C 
HETATM    9  C   UNL     1      41.323 -16.456   1.947  1.00  0.00     0.036 C 
HETATM   10  H   UNL     1      40.754 -13.789   5.718  1.00  0.00     0.170 HD
ENDROOT
BRANCH   6  11
HETATM   11  C   UNL     1      41.955 -12.130   6.014  1.00  0.00     0.038 A 
HETATM   12  C   UNL     1      43.222 -11.901   6.560  1.00  0.00     0.062 A 
HETATM   13  C   UNL     1      43.521 -10.669   7.147  1.00  0.00     0.070 A 
HETATM   14  C   UNL     1      42.564  -9.655   7.189  1.00  0.00     0.096 A 
HETATM   15  N   UNL     1      44.800 -10.446   7.656  1.00  0.00    -0.323 N 
HETATM   16  O   UNL     1      42.792  -8.414   7.716  1.00  0.00    -0.335 OA
HETATM   17  C   UNL     1      41.307  -9.870   6.630  1.00  0.00     0.041 A 
HETATM   18  C   UNL     1      43.970  -8.299   8.511  1.00  0.00     0.217 C 
HETATM   19  C   UNL     1      45.134  -9.272   8.271  1.00  0.00     0.251 C 
HETATM   20  C   UNL     1      43.559  -8.374   9.980  1.00  0.00     0.050 C 
HETATM   21  O   UNL     1      46.279  -9.061   8.665  1.00  0.00    -0.270 OA
HETATM   22  C   UNL     1      41.004 -11.103   6.045  1.00  0.00     0.032 A 
HETATM   23  H   UNL     1      45.529 -11.140   7.554  1.00  0.00     0.169 HD
ENDBRANCH   6  11
BRANCH   8  24
HETATM   24  C   UNL     1      42.935 -17.190   3.822  1.00  0.00     0.003 A 
HETATM   25  C   UNL     1      43.547 -18.302   3.230  1.00  0.00     0.124 A 
HETATM   26  F   UNL     1      43.645 -18.397   1.896  1.00  0.00    -0.205 F 
HETATM   27  C   UNL     1      44.061 -19.349   3.994  1.00  0.00     0.043 A 
HETATM   28  C   UNL     1      43.949 -19.314   5.381  1.00  0.00     0.003 A 
HETATM   29  C   UNL     1      43.317 -18.234   5.994  1.00  0.00     0.001 A 
HETATM   30  C   UNL     1      42.813 -17.183   5.222  1.00  0.00     0.012 A 
ENDBRANCH   8  24
TORSDOF 2
ENDMDL
MODEL 5
REMARK VINA RESULT:      -8.2      3.429      8.191
REMARK  2 active torsions:
REMARK  status: ('A' for Active; 'I' for Inactive)
REMARK       I    between atoms: N_4  and  C_5 
REMARK       I    between atoms: C_5  and  N_6 
REMARK    1  A    between atoms: N_6  and  C_7 
REMARK    2  A    between atoms: C_20  and  C_21 
ROOT
HETATM    1  C   UNL     1      43.073 -10.820   6.353  1.00  0.00     0.011 C 
HETATM    2  C   UNL     1      43.922 -12.053   6.043  1.00  0.00     0.002 C 
HETATM    3  C   UNL     1      43.706 -12.526   4.607  1.00  0.00     0.132 C 
HETATM    4  N   UNL     1      42.609 -13.473   4.704  1.00  0.00    -0.325 N 
HETATM    5  C   UNL     1      41.524 -13.585   3.854  1.00  0.00     0.323 C 
HETATM    6  N   UNL     1      41.713 -12.991   2.626  1.00  0.00    -0.309 N 
HETATM    7  O   UNL     1      40.497 -14.167   4.197  1.00  0.00    -0.247 OA
HETATM    8  C   UNL     1      42.598 -14.118   6.012  1.00  0.00     0.125 C 
HETATM    9  C   UNL     1      43.510 -13.254   6.905  1.00  0.00     0.036 C 
HETATM   10  H   UNL     1      42.675 -12.912   2.340  1.00  0.00     0.170 HD
ENDROOT
BRANCH   6  11
HETATM   11  C   UNL     1      40.734 -12.739   1.644  1.00  0.00     0.038 A 
HETATM   12  C   UNL     1      40.731 -13.347   0.386  1.00  0.00     0.062 A 
HETATM   13  C   UNL     1      39.710 -13.067  -0.527  1.00  0.00     0.070 A 
HETATM   14  C   UNL     1      38.684 -12.185  -0.192  1.00  0.00     0.096 A 
HETATM   15  N   UNL     1      39.706 -13.708  -1.765  1.00  0.00    -0.323 N 
HETATM   16  O   UNL     1      37.636 -11.887  -1.017  1.00  0.00    -0.335 OA
HETATM   17  C   UNL     1      38.670 -11.591   1.067  1.00  0.00     0.041 A 
HETATM   18  C   UNL     1      37.801 -12.284  -2.376  1.00  0.00     0.217 C 
HETATM   19  C   UNL     1      38.751 -13.445  -2.707  1.00  0.00     0.251 C 
HETATM   20  C   UNL     1      38.223 -11.056  -3.180  1.00  0.00     0.050 C 
HETATM   21  O   UNL     1      38.719 -14.057  -3.773  1.00  0.00    -0.270 OA
HETATM   22  C   UNL     1      39.692 -11.866   1.982  1.00  0.00     0.032 A 
HETATM   23  H   UNL     1      40.394 -14.415  -1.988  1.00  0.00     0.169 HD
ENDBRANCH   6  11
BRANCH   8  24
HETATM   24  C   UNL     1      43.004 -15.577   5.904  1.00  0.00     0.003 A 
HETATM   25  C   UNL     1      42.994 -16.451   6.999  1.00  0.00     0.124 A 
HETATM   26  F   UNL     1      42.616 -16.021   8.212  1.00  0.00    -0.205 F 
HETATM   27  C   UNL     1      43.384 -17.784   6.876  1.00  0.00     0.043 A 
HETATM   28  C   UNL     1      43.821 -18.267   5.646  1.00  0.00     0.003 A 
HETATM   29  C   UNL     1      43.871 -17.410   4.547  1.00  0.00     0.001 A 
HETATM   30  C   UNL     1      43.468 -16.077   4.677  1.00  0.00     0.012 A 
ENDBRANCH   8  24
TORSDOF 2
ENDMDL
MODEL 6
REMARK VINA RESULT:      -8.1     15.191     16.866
REMARK  2 active torsions:
REMARK  status: ('A' for Active; 'I' for Inactive)
REMARK       I    between atoms: N_4  and  C_5 
REMARK       I    between atoms: C_5  and  N_6 
REMARK    1  A    between atoms: N_6  and  C_7 
REMARK    2  A    between atoms: C_20  and  C_21 
ROOT
HETATM    1  C   UNL     1      47.163 -28.186   0.587  1.00  0.00     0.011 C 
HETATM    2  C   UNL     1      46.400 -28.032  -0.729  1.00  0.00     0.002 C 
HETATM    3  C   UNL     1      44.906 -28.281  -0.534  1.00  0.00     0.132 C 
HETATM    4  N   UNL     1      44.749 -29.706  -0.766  1.00  0.00    -0.325 N 
HETATM    5  C   UNL     1      43.983 -30.593  -0.031  1.00  0.00     0.323 C 
HETATM    6  N   UNL     1      43.019 -29.989   0.744  1.00  0.00    -0.309 N 
HETATM    7  O   UNL     1      44.175 -31.806  -0.086  1.00  0.00    -0.247 OA
HETATM    8  C   UNL     1      45.760 -30.193  -1.699  1.00  0.00     0.125 C 
HETATM    9  C   UNL     1      46.831 -29.086  -1.758  1.00  0.00     0.036 C 
HETATM   10  H   UNL     1      42.714 -29.087   0.412  1.00  0.00     0.170 HD
ENDROOT
BRANCH   6  11
HETATM   11  C   UNL     1      42.245 -30.587   1.759  1.00  0.00     0.038 A 
HETATM   12  C   UNL     1      42.572 -30.519   3.117  1.00  0.00     0.062 A 
HETATM   13  C   UNL     1      41.741 -31.115   4.069  1.00  0.00     0.070 A 
HETATM   14  C   UNL     1      40.577 -31.775   3.678  1.00  0.00     0.096 A 
HETATM   15  N   UNL     1      42.065 -31.009   5.422  1.00  0.00    -0.323 N 
HETATM   16  O   UNL     1      39.698 -32.352   4.553  1.00  0.00    -0.335 OA
HETATM   17  C   UNL     1      40.235 -31.829   2.330  1.00  0.00     0.041 A 
HETATM   18  C   UNL     1      40.186 -32.522   5.881  1.00  0.00     0.217 C 
HETATM   19  C   UNL     1      41.305 -31.602   6.391  1.00  0.00     0.251 C 
HETATM   20  C   UNL     1      40.631 -33.975   6.040  1.00  0.00     0.050 C 
HETATM   21  O   UNL     1      41.564 -31.455   7.584  1.00  0.00    -0.270 OA
HETATM   22  C   UNL     1      41.067 -31.237   1.374  1.00  0.00     0.032 A 
HETATM   23  H   UNL     1      42.858 -30.459   5.725  1.00  0.00     0.169 HD
ENDBRANCH   6  11
BRANCH   8  24
HETATM   24  C   UNL     1      45.139 -30.555  -3.035  1.00  0.00     0.003 A 
HETATM   25  C   UNL     1      44.648 -29.596  -3.930  1.00  0.00     0.124 A 
HETATM   26  F   UNL     1      44.710 -28.290  -3.631  1.00  0.00    -0.205 F 
HETATM   27  C   UNL     1      44.071 -29.956  -5.148  1.00  0.00     0.043 A 
HETATM   28  C   UNL     1      43.949 -31.300  -5.485  1.00  0.00     0.003 A 
HETATM   29  C   UNL     1      44.400 -32.277  -4.599  1.00  0.00     0.001 A 
HETATM   30  C   UNL     1      44.988 -31.908  -3.385  1.00  0.00     0.012 A 
ENDBRANCH   8  24
TORSDOF 2
ENDMDL
MODEL 7
REMARK VINA RESULT:      -8.0      5.261      7.836
REMARK  2 active torsions:
REMARK  status: ('A' for Active; 'I' for Inactive)
REMARK       I    between atoms: N_4  and  C_5 
REMARK       I    between atoms: C_5  and  N_6 
REMARK    1  A    between atoms: N_6  and  C_7 
REMARK    2  A    between atoms: C_20  and  C_21 
ROOT
HETATM    1  C   UNL     1      46.570  -9.441   7.896  1.00  0.00     0.011 C 
HETATM    2  C   UNL     1      45.516  -9.329   8.998  1.00  0.00     0.002 C 
HETATM    3  C   UNL     1      44.575 -10.532   8.987  1.00  0.00     0.132 C 
HETATM    4  N   UNL     1      43.496 -10.134   8.101  1.00  0.00    -0.325 N 
HETATM    5  C   UNL     1      42.888 -10.903   7.126  1.00  0.00     0.323 C 
HETATM    6  N   UNL     1      43.086 -12.258   7.280  1.00  0.00    -0.309 N 
HETATM    7  O   UNL     1      42.239 -10.392   6.216  1.00  0.00    -0.247 OA
HETATM    8  C   UNL     1      43.315  -8.686   8.126  1.00  0.00     0.125 C 
HETATM    9  C   UNL     1      44.594  -8.123   8.776  1.00  0.00     0.036 C 
HETATM   10  H   UNL     1      43.275 -12.552   8.224  1.00  0.00     0.170 HD
ENDROOT
BRANCH   6  11
HETATM   11  C   UNL     1      42.795 -13.271   6.344  1.00  0.00     0.038 A 
HETATM   12  C   UNL     1      43.570 -14.425   6.194  1.00  0.00     0.062 A 
HETATM   13  C   UNL     1      43.203 -15.400   5.262  1.00  0.00     0.070 A 
HETATM   14  C   UNL     1      42.061 -15.237   4.480  1.00  0.00     0.096 A 
HETATM   15  N   UNL     1      43.970 -16.560   5.149  1.00  0.00    -0.323 N 
HETATM   16  O   UNL     1      41.620 -16.160   3.573  1.00  0.00    -0.335 OA
HETATM   17  C   UNL     1      41.274 -14.099   4.639  1.00  0.00     0.041 A 
HETATM   18  C   UNL     1      42.563 -17.175   3.233  1.00  0.00     0.217 C 
HETATM   19  C   UNL     1      43.675 -17.529   4.231  1.00  0.00     0.251 C 
HETATM   20  C   UNL     1      43.199 -16.801   1.896  1.00  0.00     0.050 C 
HETATM   21  O   UNL     1      44.320 -18.574   4.177  1.00  0.00    -0.270 OA
HETATM   22  C   UNL     1      41.640 -13.120   5.568  1.00  0.00     0.032 A 
HETATM   23  H   UNL     1      44.750 -16.731   5.770  1.00  0.00     0.169 HD
ENDBRANCH   6  11
BRANCH   8  24
HETATM   24  C   UNL     1      42.021  -8.311   8.826  1.00  0.00     0.003 A 
HETATM   25  C   UNL     1      40.923  -7.763   8.151  1.00  0.00     0.124 A 
HETATM   26  F   UNL     1      40.975  -7.545   6.829  1.00  0.00    -0.205 F 
HETATM   27  C   UNL     1      39.750  -7.415   8.820  1.00  0.00     0.043 A 
HETATM   28  C   UNL     1      39.662  -7.587  10.198  1.00  0.00     0.003 A 
HETATM   29  C   UNL     1      40.752  -8.101  10.899  1.00  0.00     0.001 A 
HETATM   30  C   UNL     1      41.921  -8.457  10.220  1.00  0.00     0.012 A 
ENDBRANCH   8  24
TORSDOF 2
ENDMDL
MODEL 8
REMARK VINA RESULT:      -8.0      3.645      8.129
REMARK  2 active torsions:
REMARK  status: ('A' for Active; 'I' for Inactive)
REMARK       I    between atoms: N_4  and  C_5 
REMARK       I    between atoms: C_5  and  N_6 
REMARK    1  A    between atoms: N_6  and  C_7 
REMARK    2  A    between atoms: C_20  and  C_21 
ROOT
HETATM    1  C   UNL     1      42.418 -16.787   6.160  1.00  0.00     0.011 C 
HETATM    2  C   UNL     1      41.958 -15.525   6.889  1.00  0.00     0.002 C 
HETATM    3  C   UNL     1      40.978 -14.721   6.038  1.00  0.00     0.132 C 
HETATM    4  N   UNL     1      41.822 -13.814   5.282  1.00  0.00    -0.325 N 
HETATM    5  C   UNL     1      41.712 -13.491   3.941  1.00  0.00     0.323 C 
HETATM    6  N   UNL     1      40.480 -13.778   3.397  1.00  0.00    -0.309 N 
HETATM    7  O   UNL     1      42.651 -12.997   3.321  1.00  0.00    -0.247 OA
HETATM    8  C   UNL     1      43.037 -13.498   6.025  1.00  0.00     0.125 C 
HETATM    9  C   UNL     1      43.126 -14.560   7.139  1.00  0.00     0.036 C 
HETATM   10  H   UNL     1      39.720 -13.797   4.060  1.00  0.00     0.170 HD
ENDROOT
BRANCH   6  11
HETATM   11  C   UNL     1      40.132 -13.779   2.031  1.00  0.00     0.038 A 
HETATM   12  C   UNL     1      39.762 -12.628   1.330  1.00  0.00     0.062 A 
HETATM   13  C   UNL     1      39.457 -12.704  -0.032  1.00  0.00     0.070 A 
HETATM   14  C   UNL     1      39.525 -13.923  -0.705  1.00  0.00     0.096 A 
HETATM   15  N   UNL     1      39.121 -11.540  -0.723  1.00  0.00    -0.323 N 
HETATM   16  O   UNL     1      39.274 -14.070  -2.041  1.00  0.00    -0.335 OA
HETATM   17  C   UNL     1      39.913 -15.070  -0.017  1.00  0.00     0.041 A 
HETATM   18  C   UNL     1      38.629 -12.962  -2.664  1.00  0.00     0.217 C 
HETATM   19  C   UNL     1      38.781 -11.563  -2.047  1.00  0.00     0.251 C 
HETATM   20  C   UNL     1      37.142 -13.288  -2.788  1.00  0.00     0.050 C 
HETATM   21  O   UNL     1      38.544 -10.527  -2.663  1.00  0.00    -0.270 OA
HETATM   22  C   UNL     1      40.215 -14.998   1.346  1.00  0.00     0.032 A 
HETATM   23  H   UNL     1      39.153 -10.637  -0.268  1.00  0.00     0.169 HD
ENDBRANCH   6  11
BRANCH   8  24
HETATM   24  C   UNL     1      43.022 -12.061   6.510  1.00  0.00     0.003 A 
HETATM   25  C   UNL     1      44.141 -11.438   7.077  1.00  0.00     0.124 A 
HETATM   26  F   UNL     1      45.296 -12.106   7.216  1.00  0.00    -0.205 F 
HETATM   27  C   UNL     1      44.097 -10.119   7.528  1.00  0.00     0.043 A 
HETATM   28  C   UNL     1      42.911  -9.397   7.441  1.00  0.00     0.003 A 
HETATM   29  C   UNL     1      41.773 -10.002   6.909  1.00  0.00     0.001 A 
HETATM   30  C   UNL     1      41.828 -11.322   6.450  1.00  0.00     0.012 A 
ENDBRANCH   8  24
TORSDOF 2
ENDMDL
MODEL 9
REMARK VINA RESULT:      -7.9     15.074     17.264
REMARK  2 active torsions:
REMARK  status: ('A' for Active; 'I' for Inactive)
REMARK       I    between atoms: N_4  and  C_5 
REMARK       I    between atoms: C_5  and  N_6 
REMARK    1  A    between atoms: N_6  and  C_7 
REMARK    2  A    between atoms: C_20  and  C_21 
ROOT
HETATM    1  C   UNL     1      45.071 -27.968  -1.802  1.00  0.00     0.011 C 
HETATM    2  C   UNL     1      46.275 -28.826  -1.414  1.00  0.00     0.002 C 
HETATM    3  C   UNL     1      45.847 -30.037  -0.586  1.00  0.00     0.132 C 
HETATM    4  N   UNL     1      45.908 -29.569   0.787  1.00  0.00    -0.325 N 
HETATM    5  C   UNL     1      44.986 -29.803   1.791  1.00  0.00     0.323 C 
HETATM    6  N   UNL     1      44.148 -30.868   1.543  1.00  0.00    -0.309 N 
HETATM    7  O   UNL     1      44.943 -29.102   2.800  1.00  0.00    -0.247 OA
HETATM    8  C   UNL     1      46.918 -28.527   0.935  1.00  0.00     0.125 C 
HETATM    9  C   UNL     1      47.241 -28.061  -0.499  1.00  0.00     0.036 C 
HETATM   10  H   UNL     1      44.525 -31.564   0.920  1.00  0.00     0.170 HD
ENDROOT
BRANCH   6  11
HETATM   11  C   UNL     1      42.979 -31.213   2.249  1.00  0.00     0.038 A 
HETATM   12  C   UNL     1      42.903 -31.245   3.645  1.00  0.00     0.062 A 
HETATM   13  C   UNL     1      41.699 -31.570   4.275  1.00  0.00     0.070 A 
HETATM   14  C   UNL     1      40.562 -31.859   3.522  1.00  0.00     0.096 A 
HETATM   15  N   UNL     1      41.633 -31.565   5.668  1.00  0.00    -0.323 N 
HETATM   16  O   UNL     1      39.342 -32.153   4.066  1.00  0.00    -0.335 OA
HETATM   17  C   UNL     1      40.625 -31.810   2.132  1.00  0.00     0.041 A 
HETATM   18  C   UNL     1      39.356 -32.459   5.458  1.00  0.00     0.217 C 
HETATM   19  C   UNL     1      40.491 -31.909   6.335  1.00  0.00     0.251 C 
HETATM   20  C   UNL     1      39.308 -33.979   5.609  1.00  0.00     0.050 C 
HETATM   21  O   UNL     1      40.423 -31.845   7.561  1.00  0.00    -0.270 OA
HETATM   22  C   UNL     1      41.829 -31.488   1.498  1.00  0.00     0.032 A 
HETATM   23  H   UNL     1      42.426 -31.273   6.225  1.00  0.00     0.169 HD
ENDBRANCH   6  11
BRANCH   8  24
HETATM   24  C   UNL     1      48.110 -29.033   1.728  1.00  0.00     0.003 A 
HETATM   25  C   UNL     1      49.049 -29.928   1.200  1.00  0.00     0.124 A 
HETATM   26  F   UNL     1      48.927 -30.383  -0.056  1.00  0.00    -0.205 F 
HETATM   27  C   UNL     1      50.130 -30.387   1.953  1.00  0.00     0.043 A 
HETATM   28  C   UNL     1      50.278 -29.973   3.273  1.00  0.00     0.003 A 
HETATM   29  C   UNL     1      49.341 -29.107   3.834  1.00  0.00     0.001 A 
HETATM   30  C   UNL     1      48.266 -28.643   3.068  1.00  0.00     0.012 A 
ENDBRANCH   8  24
TORSDOF 2
ENDMDL
MODEL 10
REMARK VINA RESULT:      -7.8      4.560      7.556
REMARK  2 active torsions:
REMARK  status: ('A' for Active; 'I' for Inactive)
REMARK       I    between atoms: N_4  and  C_5 
REMARK       I    between atoms: C_5  and  N_6 
REMARK    1  A    between atoms: N_6  and  C_7 
REMARK    2  A    between atoms: C_20  and  C_21 
ROOT
HETATM    1  C   UNL     1      38.980 -10.696   0.929  1.00  0.00     0.011 C 
HETATM    2  C   UNL     1      38.962 -12.177   1.307  1.00  0.00     0.002 C 
HETATM    3  C   UNL     1      39.312 -12.376   2.780  1.00  0.00     0.132 C 
HETATM    4  N   UNL     1      40.756 -12.531   2.787  1.00  0.00    -0.325 N 
HETATM    5  C   UNL     1      41.653 -11.965   3.674  1.00  0.00     0.323 C 
HETATM    6  N   UNL     1      41.078 -11.529   4.848  1.00  0.00    -0.309 N 
HETATM    7  O   UNL     1      42.849 -11.871   3.407  1.00  0.00    -0.247 OA
HETATM    8  C   UNL     1      41.219 -13.113   1.532  1.00  0.00     0.125 C 
HETATM    9  C   UNL     1      40.040 -12.966   0.550  1.00  0.00     0.036 C 
HETATM   10  H   UNL     1      40.224 -12.000   5.099  1.00  0.00     0.170 HD
ENDROOT
BRANCH   6  11
HETATM   11  C   UNL     1      41.672 -10.718   5.836  1.00  0.00     0.038 A 
HETATM   12  C   UNL     1      42.518 -11.214   6.831  1.00  0.00     0.062 A 
HETATM   13  C   UNL     1      43.092 -10.343   7.762  1.00  0.00     0.070 A 
HETATM   14  C   UNL     1      42.832  -8.974   7.704  1.00  0.00     0.096 A 
HETATM   15  N   UNL     1      43.961 -10.850   8.728  1.00  0.00    -0.323 N 
HETATM   16  O   UNL     1      43.382  -8.058   8.557  1.00  0.00    -0.335 OA
HETATM   17  C   UNL     1      42.006  -8.472   6.702  1.00  0.00     0.041 A 
HETATM   18  C   UNL     1      43.999  -8.604   9.720  1.00  0.00     0.217 C 
HETATM   19  C   UNL     1      44.521 -10.048   9.682  1.00  0.00     0.251 C 
HETATM   20  C   UNL     1      43.022  -8.462  10.885  1.00  0.00     0.050 C 
HETATM   21  O   UNL     1      45.331 -10.491  10.494  1.00  0.00    -0.270 OA
HETATM   22  C   UNL     1      41.427  -9.341   5.772  1.00  0.00     0.032 A 
HETATM   23  H   UNL     1      44.226 -11.826   8.728  1.00  0.00     0.169 HD
ENDBRANCH   6  11
BRANCH   8  24
HETATM   24  C   UNL     1      41.706 -14.536   1.739  1.00  0.00     0.003 A 
HETATM   25  C   UNL     1      40.851 -15.589   2.088  1.00  0.00     0.124 A 
HETATM   26  F   UNL     1      39.538 -15.373   2.258  1.00  0.00    -0.205 F 
HETATM   27  C   UNL     1      41.325 -16.885   2.285  1.00  0.00     0.043 A 
HETATM   28  C   UNL     1      42.685 -17.151   2.158  1.00  0.00     0.003 A 
HETATM   29  C   UNL     1      43.563 -16.116   1.842  1.00  0.00     0.001 A 
HETATM   30  C   UNL     1      43.078 -14.820   1.636  1.00  0.00     0.012 A 
ENDBRANCH   8  24
TORSDOF 2
ENDMDL
