MODEL 1
REMARK VINA RESULT:      -7.9      0.000      0.000
REMARK  3 active torsions:
REMARK  status: ('A' for Active; 'I' for Inactive)
REMARK    1  A    between atoms: C_3  and  N_4 
REMARK       I    between atoms: N_4  and  C_5 
REMARK       I    between atoms: C_5  and  N_6 
REMARK    2  A    between atoms: N_6  and  C_7 
REMARK    3  A    between atoms: C_7  and  C_8 
ROOT
HETATM    1  C   UNL     1      43.039 -16.010   3.881  1.00  0.00    -0.036 A 
HETATM    2  C   UNL     1      42.607 -16.352   2.592  1.00  0.00     0.011 A 
HETATM    3  C   UNL     1      42.832 -17.635   2.076  1.00  0.00     0.023 A 
HETATM    4  C   UNL     1      43.498 -18.597   2.839  1.00  0.00     0.044 A 
HETATM    5  C   UNL     1      43.728 -19.908   2.310  1.00  0.00     0.099 C 
HETATM    6  N   UNL     1      43.917 -20.972   1.885  1.00  0.00    -0.191 NA
HETATM    7  C   UNL     1      43.941 -18.270   4.120  1.00  0.00     0.023 A 
HETATM    8  C   UNL     1      43.714 -16.989   4.635  1.00  0.00     0.011 A 
ENDROOT
BRANCH   1   9
HETATM    9  C   UNL     1      42.840 -14.631   4.488  1.00  0.00     0.115 C 
HETATM   10  C   UNL     1      41.539 -13.979   4.015  1.00  0.00     0.037 C 
BRANCH   9  11
HETATM   11  N   UNL     1      43.095 -14.554   5.925  1.00  0.00    -0.335 N 
HETATM   12  C   UNL     1      43.527 -13.592   6.782  1.00  0.00     0.321 C 
HETATM   13  N   UNL     1      43.961 -12.426   6.233  1.00  0.00    -0.307 N 
HETATM   14  O   UNL     1      43.506 -13.864   7.977  1.00  0.00    -0.247 OA
HETATM   15  H   UNL     1      44.379 -12.546   5.327  1.00  0.00     0.170 HD
HETATM   16  H   UNL     1      42.746 -15.342   6.459  1.00  0.00     0.165 HD
BRANCH  13  17
HETATM   17  C   UNL     1      44.378 -11.259   6.921  1.00  0.00     0.059 A 
HETATM   18  C   UNL     1      43.564 -10.209   7.369  1.00  0.00    -0.032 A 
HETATM   19  C   UNL     1      42.086 -10.097   7.121  1.00  0.00     0.050 C 
HETATM   20  C   UNL     1      44.166  -9.161   8.089  1.00  0.00     0.028 A 
HETATM   21  C   UNL     1      45.539  -9.154   8.278  1.00  0.00     0.117 A 
HETATM   22  N   UNL     1      46.356 -10.107   7.798  1.00  0.00    -0.271 NA
HETATM   23  C   UNL     1      45.758 -11.125   7.138  1.00  0.00     0.146 A 
ENDBRANCH  13  17
ENDBRANCH   9  11
ENDBRANCH   1   9
TORSDOF 3
ENDMDL
MODEL 2
REMARK VINA RESULT:      -7.6      1.005      1.624
REMARK  3 active torsions:
REMARK  status: ('A' for Active; 'I' for Inactive)
REMARK    1  A    between atoms: C_3  and  N_4 
REMARK       I    between atoms: N_4  and  C_5 
REMARK       I    between atoms: C_5  and  N_6 
REMARK    2  A    between atoms: N_6  and  C_7 
REMARK    3  A    between atoms: C_7  and  C_8 
ROOT
HETATM    1  C   UNL     1      43.102 -15.903   3.847  1.00  0.00    -0.036 A 
HETATM    2  C   UNL     1      42.841 -16.208   2.504  1.00  0.00     0.011 A 
HETATM    3  C   UNL     1      43.028 -17.506   2.013  1.00  0.00     0.023 A 
HETATM    4  C   UNL     1      43.484 -18.522   2.857  1.00  0.00     0.044 A 
HETATM    5  C   UNL     1      43.675 -19.850   2.353  1.00  0.00     0.099 C 
HETATM    6  N   UNL     1      43.832 -20.927   1.950  1.00  0.00    -0.191 NA
HETATM    7  C   UNL     1      43.755 -18.234   4.194  1.00  0.00     0.023 A 
HETATM    8  C   UNL     1      43.566 -16.937   4.683  1.00  0.00     0.011 A 
ENDROOT
BRANCH   1   9
HETATM    9  C   UNL     1      42.936 -14.511   4.433  1.00  0.00     0.115 C 
HETATM   10  C   UNL     1      41.628 -13.853   3.985  1.00  0.00     0.037 C 
BRANCH   9  11
HETATM   11  N   UNL     1      43.233 -14.409   5.861  1.00  0.00    -0.335 N 
HETATM   12  C   UNL     1      43.418 -13.391   6.741  1.00  0.00     0.321 C 
HETATM   13  N   UNL     1      43.472 -12.132   6.228  1.00  0.00    -0.307 N 
HETATM   14  O   UNL     1      43.538 -13.695   7.923  1.00  0.00    -0.247 OA
HETATM   15  H   UNL     1      43.859 -12.099   5.301  1.00  0.00     0.170 HD
HETATM   16  H   UNL     1      43.152 -15.280   6.372  1.00  0.00     0.165 HD
BRANCH  13  17
HETATM   17  C   UNL     1      43.576 -10.917   6.950  1.00  0.00     0.059 A 
HETATM   18  C   UNL     1      44.746 -10.341   7.464  1.00  0.00    -0.032 A 
HETATM   19  C   UNL     1      46.112 -10.964   7.408  1.00  0.00     0.050 C 
HETATM   20  C   UNL     1      44.646  -9.092   8.105  1.00  0.00     0.028 A 
HETATM   21  C   UNL     1      43.404  -8.500   8.272  1.00  0.00     0.117 A 
HETATM   22  N   UNL     1      42.256  -9.061   7.855  1.00  0.00    -0.271 NA
HETATM   23  C   UNL     1      42.373 -10.245   7.212  1.00  0.00     0.146 A 
ENDBRANCH  13  17
ENDBRANCH   9  11
ENDBRANCH   1   9
TORSDOF 3
ENDMDL
MODEL 3
REMARK VINA RESULT:      -7.4      3.335      5.252
REMARK  3 active torsions:
REMARK  status: ('A' for Active; 'I' for Inactive)
REMARK    1  A    between atoms: C_3  and  N_4 
REMARK       I    between atoms: N_4  and  C_5 
REMARK       I    between atoms: C_5  and  N_6 
REMARK    2  A    between atoms: N_6  and  C_7 
REMARK    3  A    between atoms: C_7  and  C_8 
ROOT
HETATM    1  C   UNL     1      43.069 -16.086   4.165  1.00  0.00    -0.036 A 
HETATM    2  C   UNL     1      42.585 -16.370   2.881  1.00  0.00     0.011 A 
HETATM    3  C   UNL     1      42.799 -17.623   2.293  1.00  0.00     0.023 A 
HETATM    4  C   UNL     1      43.507 -18.613   2.978  1.00  0.00     0.044 A 
HETATM    5  C   UNL     1      43.727 -19.895   2.376  1.00  0.00     0.099 C 
HETATM    6  N   UNL     1      43.908 -20.935   1.892  1.00  0.00    -0.191 NA
HETATM    7  C   UNL     1      44.002 -18.344   4.254  1.00  0.00     0.023 A 
HETATM    8  C   UNL     1      43.785 -17.092   4.840  1.00  0.00     0.011 A 
ENDROOT
BRANCH   1   9
HETATM    9  C   UNL     1      42.883 -14.741   4.847  1.00  0.00     0.115 C 
HETATM   10  C   UNL     1      43.590 -14.683   6.202  1.00  0.00     0.037 C 
BRANCH   9  11
HETATM   11  N   UNL     1      43.091 -13.582   3.979  1.00  0.00    -0.335 N 
HETATM   12  C   UNL     1      42.289 -12.748   3.268  1.00  0.00     0.321 C 
HETATM   13  N   UNL     1      40.969 -13.071   3.199  1.00  0.00    -0.307 N 
HETATM   14  O   UNL     1      42.826 -11.784   2.734  1.00  0.00    -0.247 OA
HETATM   15  H   UNL     1      40.802 -14.061   3.225  1.00  0.00     0.170 HD
HETATM   16  H   UNL     1      44.030 -13.200   4.003  1.00  0.00     0.165 HD
BRANCH  13  17
HETATM   17  C   UNL     1      39.935 -12.317   2.589  1.00  0.00     0.059 A 
HETATM   18  C   UNL     1      39.437 -12.471   1.287  1.00  0.00    -0.032 A 
HETATM   19  C   UNL     1      39.979 -13.427   0.263  1.00  0.00     0.050 C 
HETATM   20  C   UNL     1      38.360 -11.659   0.887  1.00  0.00     0.028 A 
HETATM   21  C   UNL     1      37.868 -10.692   1.750  1.00  0.00     0.117 A 
HETATM   22  N   UNL     1      38.370 -10.471   2.976  1.00  0.00    -0.271 NA
HETATM   23  C   UNL     1      39.383 -11.283   3.359  1.00  0.00     0.146 A 
ENDBRANCH  13  17
ENDBRANCH   9  11
ENDBRANCH   1   9
TORSDOF 3
ENDMDL
MODEL 4
REMARK VINA RESULT:      -7.4      4.135      6.698
REMARK  3 active torsions:
REMARK  status: ('A' for Active; 'I' for Inactive)
REMARK    1  A    between atoms: C_3  and  N_4 
REMARK       I    between atoms: N_4  and  C_5 
REMARK       I    between atoms: C_5  and  N_6 
REMARK    2  A    between atoms: N_6  and  C_7 
REMARK    3  A    between atoms: C_7  and  C_8 
ROOT
HETATM    1  C   UNL     1      42.957 -15.681   3.386  1.00  0.00    -0.036 A 
HETATM    2  C   UNL     1      43.317 -16.522   4.448  1.00  0.00     0.011 A 
HETATM    3  C   UNL     1      43.573 -17.882   4.233  1.00  0.00     0.023 A 
HETATM    4  C   UNL     1      43.468 -18.426   2.951  1.00  0.00     0.044 A 
HETATM    5  C   UNL     1      43.730 -19.818   2.732  1.00  0.00     0.099 C 
HETATM    6  N   UNL     1      43.940 -20.945   2.549  1.00  0.00    -0.191 NA
HETATM    7  C   UNL     1      43.105 -17.605   1.884  1.00  0.00     0.023 A 
HETATM    8  C   UNL     1      42.851 -16.246   2.101  1.00  0.00     0.011 A 
ENDROOT
BRANCH   1   9
HETATM    9  C   UNL     1      42.651 -14.203   3.561  1.00  0.00     0.115 C 
HETATM   10  C   UNL     1      43.536 -13.325   2.673  1.00  0.00     0.037 C 
BRANCH   9  11
HETATM   11  N   UNL     1      41.227 -13.869   3.554  1.00  0.00    -0.335 N 
HETATM   12  C   UNL     1      40.289 -13.646   2.597  1.00  0.00     0.321 C 
HETATM   13  N   UNL     1      40.724 -13.583   1.309  1.00  0.00    -0.307 N 
HETATM   14  O   UNL     1      39.133 -13.502   2.977  1.00  0.00    -0.247 OA
HETATM   15  H   UNL     1      41.656 -13.219   1.223  1.00  0.00     0.170 HD
HETATM   16  H   UNL     1      40.770 -13.952   4.455  1.00  0.00     0.165 HD
BRANCH  13  17
HETATM   17  C   UNL     1      39.930 -13.442   0.144  1.00  0.00     0.059 A 
HETATM   18  C   UNL     1      39.315 -12.270  -0.319  1.00  0.00    -0.032 A 
HETATM   19  C   UNL     1      39.324 -10.950   0.398  1.00  0.00     0.050 C 
HETATM   20  C   UNL     1      38.612 -12.324  -1.537  1.00  0.00     0.028 A 
HETATM   21  C   UNL     1      38.487 -13.530  -2.208  1.00  0.00     0.117 A 
HETATM   22  N   UNL     1      39.002 -14.685  -1.754  1.00  0.00    -0.271 NA
HETATM   23  C   UNL     1      39.703 -14.610  -0.599  1.00  0.00     0.146 A 
ENDBRANCH  13  17
ENDBRANCH   9  11
ENDBRANCH   1   9
TORSDOF 3
ENDMDL
MODEL 5
REMARK VINA RESULT:      -7.1      5.026      7.630
REMARK  3 active torsions:
REMARK  status: ('A' for Active; 'I' for Inactive)
REMARK    1  A    between atoms: C_3  and  N_4 
REMARK       I    between atoms: N_4  and  C_5 
REMARK       I    between atoms: C_5  and  N_6 
REMARK    2  A    between atoms: N_6  and  C_7 
REMARK    3  A    between atoms: C_7  and  C_8 
ROOT
HETATM    1  C   UNL     1      42.096 -14.437   2.779  1.00  0.00    -0.036 A 
HETATM    2  C   UNL     1      43.092 -14.831   1.874  1.00  0.00     0.011 A 
HETATM    3  C   UNL     1      43.524 -16.161   1.816  1.00  0.00     0.023 A 
HETATM    4  C   UNL     1      42.971 -17.122   2.667  1.00  0.00     0.044 A 
HETATM    5  C   UNL     1      43.415 -18.483   2.607  1.00  0.00     0.099 C 
HETATM    6  N   UNL     1      43.771 -19.587   2.562  1.00  0.00    -0.191 NA
HETATM    7  C   UNL     1      41.985 -16.745   3.578  1.00  0.00     0.023 A 
HETATM    8  C   UNL     1      41.553 -15.416   3.633  1.00  0.00     0.011 A 
ENDROOT
BRANCH   1   9
HETATM    9  C   UNL     1      41.599 -13.006   2.901  1.00  0.00     0.115 C 
HETATM   10  C   UNL     1      42.148 -12.313   4.150  1.00  0.00     0.037 C 
BRANCH   9  11
HETATM   11  N   UNL     1      41.673 -12.227   1.666  1.00  0.00    -0.335 N 
HETATM   12  C   UNL     1      41.004 -12.219   0.484  1.00  0.00     0.321 C 
HETATM   13  N   UNL     1      40.112 -13.225   0.272  1.00  0.00    -0.307 N 
HETATM   14  O   UNL     1      41.273 -11.316  -0.300  1.00  0.00    -0.247 OA
HETATM   15  H   UNL     1      40.373 -14.085   0.720  1.00  0.00     0.170 HD
HETATM   16  H   UNL     1      42.256 -11.399   1.723  1.00  0.00     0.165 HD
BRANCH  13  17
HETATM   17  C   UNL     1      39.246 -13.381  -0.839  1.00  0.00     0.059 A 
HETATM   18  C   UNL     1      38.143 -12.580  -1.165  1.00  0.00    -0.032 A 
HETATM   19  C   UNL     1      37.626 -11.442  -0.331  1.00  0.00     0.050 C 
HETATM   20  C   UNL     1      37.440 -12.867  -2.350  1.00  0.00     0.028 A 
HETATM   21  C   UNL     1      37.806 -13.958  -3.122  1.00  0.00     0.117 A 
HETATM   22  N   UNL     1      38.813 -14.788  -2.799  1.00  0.00    -0.271 NA
HETATM   23  C   UNL     1      39.499 -14.479  -1.674  1.00  0.00     0.146 A 
ENDBRANCH  13  17
ENDBRANCH   9  11
ENDBRANCH   1   9
TORSDOF 3
ENDMDL
MODEL 6
REMARK VINA RESULT:      -7.1      2.898      4.124
REMARK  3 active torsions:
REMARK  status: ('A' for Active; 'I' for Inactive)
REMARK    1  A    between atoms: C_3  and  N_4 
REMARK       I    between atoms: N_4  and  C_5 
REMARK       I    between atoms: C_5  and  N_6 
REMARK    2  A    between atoms: N_6  and  C_7 
REMARK    3  A    between atoms: C_7  and  C_8 
ROOT
HETATM    1  C   UNL     1      43.057 -16.663   5.105  1.00  0.00    -0.036 A 
HETATM    2  C   UNL     1      43.777 -17.797   5.504  1.00  0.00     0.011 A 
HETATM    3  C   UNL     1      44.011 -18.851   4.611  1.00  0.00     0.023 A 
HETATM    4  C   UNL     1      43.524 -18.789   3.303  1.00  0.00     0.044 A 
HETATM    5  C   UNL     1      43.764 -19.867   2.390  1.00  0.00     0.099 C 
HETATM    6  N   UNL     1      43.955 -20.739   1.647  1.00  0.00    -0.191 NA
HETATM    7  C   UNL     1      42.801 -17.670   2.892  1.00  0.00     0.023 A 
HETATM    8  C   UNL     1      42.570 -16.618   3.785  1.00  0.00     0.011 A 
ENDROOT
BRANCH   1   9
HETATM    9  C   UNL     1      42.757 -15.497   6.033  1.00  0.00     0.115 C 
HETATM   10  C   UNL     1      43.245 -15.760   7.459  1.00  0.00     0.037 C 
BRANCH   9  11
HETATM   11  N   UNL     1      43.087 -14.181   5.488  1.00  0.00    -0.335 N 
HETATM   12  C   UNL     1      42.399 -13.038   5.232  1.00  0.00     0.321 C 
HETATM   13  N   UNL     1      41.047 -13.085   5.381  1.00  0.00    -0.307 N 
HETATM   14  O   UNL     1      43.052 -12.066   4.871  1.00  0.00    -0.247 OA
HETATM   15  H   UNL     1      40.657 -13.988   5.176  1.00  0.00     0.170 HD
HETATM   16  H   UNL     1      44.080 -13.998   5.399  1.00  0.00     0.165 HD
BRANCH  13  17
HETATM   17  C   UNL     1      40.134 -12.009   5.251  1.00  0.00     0.059 A 
HETATM   18  C   UNL     1      39.701 -11.412   4.058  1.00  0.00    -0.032 A 
HETATM   19  C   UNL     1      40.202 -11.763   2.686  1.00  0.00     0.050 C 
HETATM   20  C   UNL     1      38.740 -10.388   4.138  1.00  0.00     0.028 A 
HETATM   21  C   UNL     1      38.299  -9.951   5.378  1.00  0.00     0.117 A 
HETATM   22  N   UNL     1      38.748 -10.452   6.541  1.00  0.00    -0.271 NA
HETATM   23  C   UNL     1      39.647 -11.459   6.446  1.00  0.00     0.146 A 
ENDBRANCH  13  17
ENDBRANCH   9  11
ENDBRANCH   1   9
TORSDOF 3
ENDMDL
MODEL 7
REMARK VINA RESULT:      -7.0      2.300      3.038
REMARK  3 active torsions:
REMARK  status: ('A' for Active; 'I' for Inactive)
REMARK    1  A    between atoms: C_3  and  N_4 
REMARK       I    between atoms: N_4  and  C_5 
REMARK       I    between atoms: C_5  and  N_6 
REMARK    2  A    between atoms: N_6  and  C_7 
REMARK    3  A    between atoms: C_7  and  C_8 
ROOT
HETATM    1  C   UNL     1      41.903 -15.294   2.564  1.00  0.00    -0.036 A 
HETATM    2  C   UNL     1      42.802 -16.031   1.781  1.00  0.00     0.011 A 
HETATM    3  C   UNL     1      43.467 -17.146   2.309  1.00  0.00     0.023 A 
HETATM    4  C   UNL     1      43.246 -17.539   3.631  1.00  0.00     0.044 A 
HETATM    5  C   UNL     1      43.927 -18.680   4.170  1.00  0.00     0.099 C 
HETATM    6  N   UNL     1      44.476 -19.603   4.611  1.00  0.00    -0.191 NA
HETATM    7  C   UNL     1      42.360 -16.812   4.425  1.00  0.00     0.023 A 
HETATM    8  C   UNL     1      41.696 -15.700   3.895  1.00  0.00     0.011 A 
ENDROOT
BRANCH   1   9
HETATM    9  C   UNL     1      41.167 -14.066   2.053  1.00  0.00     0.115 C 
HETATM   10  C   UNL     1      39.742 -13.983   2.602  1.00  0.00     0.037 C 
BRANCH   9  11
HETATM   11  N   UNL     1      41.937 -12.824   2.111  1.00  0.00    -0.335 N 
HETATM   12  C   UNL     1      42.483 -12.068   3.099  1.00  0.00     0.321 C 
HETATM   13  N   UNL     1      42.187 -12.420   4.380  1.00  0.00    -0.307 N 
HETATM   14  O   UNL     1      43.181 -11.122   2.752  1.00  0.00    -0.247 OA
HETATM   15  H   UNL     1      41.276 -12.829   4.477  1.00  0.00     0.170 HD
HETATM   16  H   UNL     1      42.280 -12.497   1.214  1.00  0.00     0.165 HD
BRANCH  13  17
HETATM   17  C   UNL     1      42.699 -11.837   5.566  1.00  0.00     0.059 A 
HETATM   18  C   UNL     1      43.524 -12.453   6.518  1.00  0.00    -0.032 A 
HETATM   19  C   UNL     1      43.952 -13.893   6.487  1.00  0.00     0.050 C 
HETATM   20  C   UNL     1      43.976 -11.682   7.605  1.00  0.00     0.028 A 
HETATM   21  C   UNL     1      43.548 -10.372   7.746  1.00  0.00     0.117 A 
HETATM   22  N   UNL     1      42.701  -9.775   6.890  1.00  0.00    -0.271 NA
HETATM   23  C   UNL     1      42.302 -10.519   5.833  1.00  0.00     0.146 A 
ENDBRANCH  13  17
ENDBRANCH   9  11
ENDBRANCH   1   9
TORSDOF 3
ENDMDL
MODEL 8
REMARK VINA RESULT:      -7.0      3.566      6.975
REMARK  3 active torsions:
REMARK  status: ('A' for Active; 'I' for Inactive)
REMARK    1  A    between atoms: C_3  and  N_4 
REMARK       I    between atoms: N_4  and  C_5 
REMARK       I    between atoms: C_5  and  N_6 
REMARK    2  A    between atoms: N_6  and  C_7 
REMARK    3  A    between atoms: C_7  and  C_8 
ROOT
HETATM    1  C   UNL     1      41.441 -14.481   4.124  1.00  0.00    -0.036 A 
HETATM    2  C   UNL     1      40.483 -15.403   3.681  1.00  0.00     0.011 A 
HETATM    3  C   UNL     1      40.063 -15.416   2.344  1.00  0.00     0.023 A 
HETATM    4  C   UNL     1      40.592 -14.503   1.429  1.00  0.00     0.044 A 
HETATM    5  C   UNL     1      40.163 -14.517   0.062  1.00  0.00     0.099 C 
HETATM    6  N   UNL     1      39.817 -14.524  -1.046  1.00  0.00    -0.191 NA
HETATM    7  C   UNL     1      41.542 -13.575   1.856  1.00  0.00     0.023 A 
HETATM    8  C   UNL     1      41.960 -13.564   3.191  1.00  0.00     0.011 A 
ENDROOT
BRANCH   1   9
HETATM    9  C   UNL     1      41.921 -14.407   5.564  1.00  0.00     0.115 C 
HETATM   10  C   UNL     1      40.825 -14.803   6.555  1.00  0.00     0.037 C 
BRANCH   9  11
HETATM   11  N   UNL     1      43.231 -15.009   5.803  1.00  0.00    -0.335 N 
HETATM   12  C   UNL     1      43.803 -16.216   5.552  1.00  0.00     0.321 C 
HETATM   13  N   UNL     1      42.991 -17.196   5.071  1.00  0.00    -0.307 N 
HETATM   14  O   UNL     1      44.999 -16.325   5.798  1.00  0.00    -0.247 OA
HETATM   15  H   UNL     1      42.045 -17.123   5.401  1.00  0.00     0.170 HD
HETATM   16  H   UNL     1      43.949 -14.357   6.098  1.00  0.00     0.165 HD
BRANCH  13  17
HETATM   17  C   UNL     1      43.371 -18.499   4.663  1.00  0.00     0.059 A 
HETATM   18  C   UNL     1      43.455 -18.977   3.347  1.00  0.00    -0.032 A 
HETATM   19  C   UNL     1      43.069 -18.201   2.120  1.00  0.00     0.050 C 
HETATM   20  C   UNL     1      43.911 -20.293   3.147  1.00  0.00     0.028 A 
HETATM   21  C   UNL     1      44.199 -21.097   4.238  1.00  0.00     0.117 A 
HETATM   22  N   UNL     1      44.060 -20.692   5.512  1.00  0.00    -0.271 NA
HETATM   23  C   UNL     1      43.652 -19.414   5.688  1.00  0.00     0.146 A 
ENDBRANCH  13  17
ENDBRANCH   9  11
ENDBRANCH   1   9
TORSDOF 3
ENDMDL
MODEL 9
REMARK VINA RESULT:      -6.8      4.118      7.997
REMARK  3 active torsions:
REMARK  status: ('A' for Active; 'I' for Inactive)
REMARK    1  A    between atoms: C_3  and  N_4 
REMARK       I    between atoms: N_4  and  C_5 
REMARK       I    between atoms: C_5  and  N_6 
REMARK    2  A    between atoms: N_6  and  C_7 
REMARK    3  A    between atoms: C_7  and  C_8 
ROOT
HETATM    1  C   UNL     1      41.317 -13.145   1.083  1.00  0.00    -0.036 A 
HETATM    2  C   UNL     1      41.235 -11.767   0.836  1.00  0.00     0.011 A 
HETATM    3  C   UNL     1      40.426 -11.269  -0.194  1.00  0.00     0.023 A 
HETATM    4  C   UNL     1      39.689 -12.141  -0.998  1.00  0.00     0.044 A 
HETATM    5  C   UNL     1      38.863 -11.631  -2.051  1.00  0.00     0.099 C 
HETATM    6  N   UNL     1      38.192 -11.222  -2.906  1.00  0.00    -0.191 NA
HETATM    7  C   UNL     1      39.765 -13.515  -0.770  1.00  0.00     0.023 A 
HETATM    8  C   UNL     1      40.572 -14.010   0.260  1.00  0.00     0.011 A 
ENDROOT
BRANCH   1   9
HETATM    9  C   UNL     1      42.190 -13.745   2.173  1.00  0.00     0.115 C 
HETATM   10  C   UNL     1      43.036 -12.683   2.878  1.00  0.00     0.037 C 
BRANCH   9  11
HETATM   11  N   UNL     1      41.504 -14.689   3.053  1.00  0.00    -0.335 N 
HETATM   12  C   UNL     1      41.723 -15.966   3.462  1.00  0.00     0.321 C 
HETATM   13  N   UNL     1      42.740 -16.642   2.861  1.00  0.00    -0.307 N 
HETATM   14  O   UNL     1      40.973 -16.409   4.325  1.00  0.00    -0.247 OA
HETATM   15  H   UNL     1      42.890 -16.364   1.907  1.00  0.00     0.170 HD
HETATM   16  H   UNL     1      40.765 -14.283   3.615  1.00  0.00     0.165 HD
BRANCH  13  17
HETATM   17  C   UNL     1      43.205 -17.944   3.173  1.00  0.00     0.059 A 
HETATM   18  C   UNL     1      43.896 -18.336   4.329  1.00  0.00    -0.032 A 
HETATM   19  C   UNL     1      44.345 -17.409   5.423  1.00  0.00     0.050 C 
HETATM   20  C   UNL     1      44.221 -19.696   4.479  1.00  0.00     0.028 A 
HETATM   21  C   UNL     1      43.918 -20.594   3.468  1.00  0.00     0.117 A 
HETATM   22  N   UNL     1      43.322 -20.237   2.317  1.00  0.00    -0.271 NA
HETATM   23  C   UNL     1      42.985 -18.931   2.202  1.00  0.00     0.146 A 
ENDBRANCH  13  17
ENDBRANCH   9  11
ENDBRANCH   1   9
TORSDOF 3
ENDMDL
MODEL 10
REMARK VINA RESULT:      -6.8     16.010     17.989
REMARK  3 active torsions:
REMARK  status: ('A' for Active; 'I' for Inactive)
REMARK    1  A    between atoms: C_3  and  N_4 
REMARK       I    between atoms: N_4  and  C_5 
REMARK       I    between atoms: C_5  and  N_6 
REMARK    2  A    between atoms: N_6  and  C_7 
REMARK    3  A    between atoms: C_7  and  C_8 
ROOT
HETATM    1  C   UNL     1      50.345 -30.727   0.452  1.00  0.00    -0.036 A 
HETATM    2  C   UNL     1      50.098 -30.090  -0.772  1.00  0.00     0.011 A 
HETATM    3  C   UNL     1      50.825 -30.431  -1.920  1.00  0.00     0.023 A 
HETATM    4  C   UNL     1      51.816 -31.414  -1.861  1.00  0.00     0.044 A 
HETATM    5  C   UNL     1      52.560 -31.763  -3.036  1.00  0.00     0.099 C 
HETATM    6  N   UNL     1      53.165 -32.049  -3.984  1.00  0.00    -0.191 NA
HETATM    7  C   UNL     1      52.079 -32.053  -0.650  1.00  0.00     0.023 A 
HETATM    8  C   UNL     1      51.351 -31.712   0.494  1.00  0.00     0.011 A 
ENDROOT
BRANCH   1   9
HETATM    9  C   UNL     1      49.602 -30.387   1.733  1.00  0.00     0.115 C 
HETATM   10  C   UNL     1      50.464 -30.622   2.975  1.00  0.00     0.037 C 
BRANCH   9  11
HETATM   11  N   UNL     1      48.879 -29.117   1.701  1.00  0.00    -0.335 N 
HETATM   12  C   UNL     1      47.574 -28.747   1.624  1.00  0.00     0.321 C 
HETATM   13  N   UNL     1      46.664 -29.734   1.400  1.00  0.00    -0.307 N 
HETATM   14  O   UNL     1      47.329 -27.552   1.744  1.00  0.00    -0.247 OA
HETATM   15  H   UNL     1      47.028 -30.489   0.847  1.00  0.00     0.170 HD
HETATM   16  H   UNL     1      49.442 -28.305   1.928  1.00  0.00     0.165 HD
BRANCH  13  17
HETATM   17  C   UNL     1      45.254 -29.604   1.361  1.00  0.00     0.059 A 
HETATM   18  C   UNL     1      44.475 -29.207   0.265  1.00  0.00    -0.032 A 
HETATM   19  C   UNL     1      45.018 -28.761  -1.063  1.00  0.00     0.050 C 
HETATM   20  C   UNL     1      43.076 -29.197   0.412  1.00  0.00     0.028 A 
HETATM   21  C   UNL     1      42.509 -29.510   1.638  1.00  0.00     0.117 A 
HETATM   22  N   UNL     1      43.230 -29.824   2.727  1.00  0.00    -0.271 NA
HETATM   23  C   UNL     1      44.573 -29.861   2.560  1.00  0.00     0.146 A 
ENDBRANCH  13  17
ENDBRANCH   9  11
ENDBRANCH   1   9
TORSDOF 3
ENDMDL
