MODEL 1
REMARK VINA RESULT:     -10.8      0.000      0.000
REMARK  6 active torsions:
REMARK  status: ('A' for Active; 'I' for Inactive)
REMARK    1  A    between atoms: C_8  and  C_9 
REMARK    2  A    between atoms: C_9  and  C_10 
REMARK    3  A    between atoms: C_10  and  N_11 
REMARK       I    between atoms: N_11  and  C_12 
REMARK    4  A    between atoms: C_12  and  C_13 
REMARK    5  A    between atoms: C_18  and  C_19 
REMARK    6  A    between atoms: C_29  and  C_30 
ROOT
HETATM    1  C   UNL     1      44.374 -11.698   6.709  1.00  0.00     0.148 A 
HETATM    2  N   UNL     1      44.248 -11.314   5.417  1.00  0.00    -0.165 NA
HETATM    3  N   UNL     1      43.554 -12.322   4.861  1.00  0.00    -0.240 N 
HETATM    4  C   UNL     1      43.283 -13.352   5.716  1.00  0.00     0.123 A 
HETATM    5  N   UNL     1      42.692 -14.484   5.286  1.00  0.00    -0.366 N 
HETATM    6  C   UNL     1      42.531 -14.793   3.867  1.00  0.00     0.118 C 
HETATM    7  C   UNL     1      43.365 -13.845   2.977  1.00  0.00     0.066 C 
HETATM    8  C   UNL     1      43.271 -12.381   3.441  1.00  0.00     0.221 C 
HETATM    9  C   UNL     1      43.753 -12.957   6.938  1.00  0.00     0.088 A 
HETATM   10  H   UNL     1      42.499 -15.251   5.929  1.00  0.00     0.161 HD
ENDROOT
BRANCH   1  11
HETATM   11  C   UNL     1      45.104 -10.901   7.706  1.00  0.00     0.272 C 
HETATM   12  N   UNL     1      44.406 -10.701   8.877  1.00  0.00    -0.355 N 
HETATM   13  H   UNL     1      43.582 -11.288   8.990  1.00  0.00     0.162 HD
HETATM   14  O   UNL     1      46.230 -10.456   7.507  1.00  0.00    -0.266 OA
BRANCH  12  15
HETATM   15  C   UNL     1      45.020 -10.062  10.020  1.00  0.00     0.127 C 
BRANCH  15  16
HETATM   16  C   UNL     1      44.228  -8.862  10.537  1.00  0.00     0.060 C 
BRANCH  16  17
HETATM   17  C   UNL     1      43.233  -9.237  11.593  1.00  0.00    -0.029 A 
HETATM   18  C   UNL     1      42.951  -8.530  12.807  1.00  0.00    -0.002 A 
HETATM   19  C   UNL     1      43.456  -7.355  13.402  1.00  0.00     0.014 A 
HETATM   20  C   UNL     1      41.944  -9.230  13.473  1.00  0.00     0.042 A 
HETATM   21  C   UNL     1      42.937  -6.925  14.629  1.00  0.00     0.001 A 
HETATM   22  C   UNL     1      41.930  -7.646  15.266  1.00  0.00     0.002 A 
HETATM   23  C   UNL     1      41.414  -8.815  14.699  1.00  0.00     0.030 A 
HETATM   24  N   UNL     1      41.629 -10.322  12.698  1.00  0.00    -0.365 N 
HETATM   25  H   UNL     1      40.926 -11.007  12.934  1.00  0.00     0.165 HD
HETATM   26  C   UNL     1      42.401 -10.339  11.569  1.00  0.00     0.096 A 
ENDBRANCH  16  17
ENDBRANCH  15  16
ENDBRANCH  12  15
ENDBRANCH   1  11
BRANCH   8  27
HETATM   27  C   UNL     1      41.926 -11.760   3.148  1.00  0.00     0.409 C 
HETATM   28  F   UNL     1      41.095 -11.792   4.212  1.00  0.00    -0.169 F 
HETATM   29  F   UNL     1      42.091 -10.449   2.828  1.00  0.00    -0.169 F 
HETATM   30  F   UNL     1      41.284 -12.329   2.106  1.00  0.00    -0.169 F 
ENDBRANCH   8  27
BRANCH   6  31
HETATM   31  C   UNL     1      42.913 -16.249   3.652  1.00  0.00    -0.033 A 
HETATM   32  C   UNL     1      43.388 -17.032   4.724  1.00  0.00     0.049 A 
HETATM   33  C   UNL     1      43.685 -18.357   4.490  1.00  0.00     0.105 A 
HETATM   34  C   UNL     1      43.525 -18.926   3.251  1.00  0.00     0.105 A 
HETATM   35  O   UNL     1      44.144 -19.241   5.415  1.00  0.00    -0.323 OA
HETATM   36  O   UNL     1      43.863 -20.243   3.238  1.00  0.00    -0.323 OA
HETATM   37  C   UNL     1      43.060 -18.200   2.175  1.00  0.00     0.040 A 
HETATM   38  C   UNL     1      44.247 -20.438   4.615  1.00  0.00     0.352 A 
HETATM   39  C   UNL     1      42.752 -16.850   2.381  1.00  0.00     0.012 A 
ENDBRANCH   6  31
TORSDOF 6
ENDMDL
MODEL 2
REMARK VINA RESULT:     -10.0      2.449      2.797
REMARK  6 active torsions:
REMARK  status: ('A' for Active; 'I' for Inactive)
REMARK    1  A    between atoms: C_8  and  C_9 
REMARK    2  A    between atoms: C_9  and  C_10 
REMARK    3  A    between atoms: C_10  and  N_11 
REMARK       I    between atoms: N_11  and  C_12 
REMARK    4  A    between atoms: C_12  and  C_13 
REMARK    5  A    between atoms: C_18  and  C_19 
REMARK    6  A    between atoms: C_29  and  C_30 
ROOT
HETATM    1  C   UNL     1      40.203 -11.782   5.875  1.00  0.00     0.148 A 
HETATM    2  N   UNL     1      41.076 -11.316   4.949  1.00  0.00    -0.165 NA
HETATM    3  N   UNL     1      41.280 -12.380   4.154  1.00  0.00    -0.240 N 
HETATM    4  C   UNL     1      40.631 -13.512   4.558  1.00  0.00     0.123 A 
HETATM    5  N   UNL     1      40.820 -14.690   3.932  1.00  0.00    -0.366 N 
HETATM    6  C   UNL     1      41.895 -14.899   2.963  1.00  0.00     0.118 C 
HETATM    7  C   UNL     1      42.920 -13.743   2.987  1.00  0.00     0.066 C 
HETATM    8  C   UNL     1      42.239 -12.366   3.067  1.00  0.00     0.221 C 
HETATM    9  C   UNL     1      39.880 -13.147   5.640  1.00  0.00     0.088 A 
HETATM   10  H   UNL     1      40.338 -15.532   4.242  1.00  0.00     0.161 HD
ENDROOT
BRANCH   1  11
HETATM   11  C   UNL     1      39.711 -10.956   6.988  1.00  0.00     0.272 C 
HETATM   12  N   UNL     1      40.667 -10.125   7.527  1.00  0.00    -0.355 N 
HETATM   13  H   UNL     1      41.515 -10.030   6.973  1.00  0.00     0.162 HD
HETATM   14  O   UNL     1      38.554 -11.009   7.393  1.00  0.00    -0.266 OA
BRANCH  12  15
HETATM   15  C   UNL     1      40.329  -9.143   8.534  1.00  0.00     0.127 C 
BRANCH  15  16
HETATM   16  C   UNL     1      41.453  -8.901   9.542  1.00  0.00     0.060 C 
BRANCH  16  17
HETATM   17  C   UNL     1      41.022  -9.138  10.957  1.00  0.00    -0.029 A 
HETATM   18  C   UNL     1      41.646  -8.642  12.147  1.00  0.00    -0.002 A 
HETATM   19  C   UNL     1      42.779  -7.843  12.404  1.00  0.00     0.014 A 
HETATM   20  C   UNL     1      40.895  -9.096  13.232  1.00  0.00     0.042 A 
HETATM   21  C   UNL     1      43.115  -7.528  13.726  1.00  0.00     0.001 A 
HETATM   22  C   UNL     1      42.343  -7.996  14.786  1.00  0.00     0.002 A 
HETATM   23  C   UNL     1      41.216  -8.790  14.559  1.00  0.00     0.030 A 
HETATM   24  N   UNL     1      39.858  -9.843  12.723  1.00  0.00    -0.365 N 
HETATM   25  H   UNL     1      39.150 -10.294  13.284  1.00  0.00     0.165 HD
HETATM   26  C   UNL     1      39.927  -9.879  11.358  1.00  0.00     0.096 A 
ENDBRANCH  16  17
ENDBRANCH  15  16
ENDBRANCH  12  15
ENDBRANCH   1  11
BRANCH   8  27
HETATM   27  C   UNL     1      41.561 -11.973   1.776  1.00  0.00     0.409 C 
HETATM   28  F   UNL     1      40.220 -11.881   1.899  1.00  0.00    -0.169 F 
HETATM   29  F   UNL     1      41.996 -10.744   1.390  1.00  0.00    -0.169 F 
HETATM   30  F   UNL     1      41.825 -12.810   0.750  1.00  0.00    -0.169 F 
ENDBRANCH   8  27
BRANCH   6  31
HETATM   31  C   UNL     1      42.549 -16.239   3.261  1.00  0.00    -0.033 A 
HETATM   32  C   UNL     1      42.348 -17.342   2.407  1.00  0.00     0.049 A 
HETATM   33  C   UNL     1      42.992 -18.524   2.697  1.00  0.00     0.105 A 
HETATM   34  C   UNL     1      43.821 -18.648   3.784  1.00  0.00     0.105 A 
HETATM   35  O   UNL     1      42.906 -19.671   1.973  1.00  0.00    -0.323 OA
HETATM   36  O   UNL     1      44.365 -19.891   3.882  1.00  0.00    -0.323 OA
HETATM   37  C   UNL     1      44.052 -17.595   4.643  1.00  0.00     0.040 A 
HETATM   38  C   UNL     1      43.787 -20.532   2.725  1.00  0.00     0.352 A 
HETATM   39  C   UNL     1      43.408 -16.381   4.377  1.00  0.00     0.012 A 
ENDBRANCH   6  31
TORSDOF 6
ENDMDL
MODEL 3
REMARK VINA RESULT:      -9.9      2.756      3.634
REMARK  6 active torsions:
REMARK  status: ('A' for Active; 'I' for Inactive)
REMARK    1  A    between atoms: C_8  and  C_9 
REMARK    2  A    between atoms: C_9  and  C_10 
REMARK    3  A    between atoms: C_10  and  N_11 
REMARK       I    between atoms: N_11  and  C_12 
REMARK    4  A    between atoms: C_12  and  C_13 
REMARK    5  A    between atoms: C_18  and  C_19 
REMARK    6  A    between atoms: C_29  and  C_30 
ROOT
HETATM    1  C   UNL     1      40.079 -11.600   5.707  1.00  0.00     0.148 A 
HETATM    2  N   UNL     1      40.946 -11.152   4.768  1.00  0.00    -0.165 NA
HETATM    3  N   UNL     1      41.165 -12.239   4.007  1.00  0.00    -0.240 N 
HETATM    4  C   UNL     1      40.531 -13.366   4.447  1.00  0.00     0.123 A 
HETATM    5  N   UNL     1      40.736 -14.561   3.859  1.00  0.00    -0.366 N 
HETATM    6  C   UNL     1      41.815 -14.787   2.898  1.00  0.00     0.118 C 
HETATM    7  C   UNL     1      42.824 -13.617   2.887  1.00  0.00     0.066 C 
HETATM    8  C   UNL     1      42.126 -12.247   2.921  1.00  0.00     0.221 C 
HETATM    9  C   UNL     1      39.773 -12.976   5.516  1.00  0.00     0.088 A 
HETATM   10  H   UNL     1      40.264 -15.399   4.196  1.00  0.00     0.161 HD
ENDROOT
BRANCH   1  11
HETATM   11  C   UNL     1      39.574 -10.745   6.792  1.00  0.00     0.272 C 
HETATM   12  N   UNL     1      40.050  -9.454   6.749  1.00  0.00    -0.355 N 
HETATM   13  H   UNL     1      40.512  -9.196   5.880  1.00  0.00     0.162 HD
HETATM   14  O   UNL     1      38.801 -11.153   7.654  1.00  0.00    -0.266 OA
BRANCH  12  15
HETATM   15  C   UNL     1      39.554  -8.438   7.651  1.00  0.00     0.127 C 
BRANCH  15  16
HETATM   16  C   UNL     1      40.660  -7.741   8.441  1.00  0.00     0.060 C 
BRANCH  16  17
HETATM   17  C   UNL     1      41.346  -8.656   9.409  1.00  0.00    -0.029 A 
HETATM   18  C   UNL     1      42.749  -8.932   9.495  1.00  0.00    -0.002 A 
HETATM   19  C   UNL     1      43.882  -8.502   8.775  1.00  0.00     0.014 A 
HETATM   20  C   UNL     1      42.934  -9.824  10.552  1.00  0.00     0.042 A 
HETATM   21  C   UNL     1      45.150  -8.973   9.137  1.00  0.00     0.001 A 
HETATM   22  C   UNL     1      45.301  -9.862  10.199  1.00  0.00     0.002 A 
HETATM   23  C   UNL     1      44.194 -10.305  10.928  1.00  0.00     0.030 A 
HETATM   24  N   UNL     1      41.694 -10.085  11.085  1.00  0.00    -0.365 N 
HETATM   25  H   UNL     1      41.526 -10.698  11.869  1.00  0.00     0.165 HD
HETATM   26  C   UNL     1      40.731  -9.393  10.403  1.00  0.00     0.096 A 
ENDBRANCH  16  17
ENDBRANCH  15  16
ENDBRANCH  12  15
ENDBRANCH   1  11
BRANCH   8  27
HETATM   27  C   UNL     1      41.444 -11.905   1.617  1.00  0.00     0.409 C 
HETATM   28  F   UNL     1      41.854 -10.723   1.110  1.00  0.00    -0.169 F 
HETATM   29  F   UNL     1      41.747 -12.848   0.686  1.00  0.00    -0.169 F 
HETATM   30  F   UNL     1      40.098 -11.873   1.703  1.00  0.00    -0.169 F 
ENDBRANCH   8  27
BRANCH   6  31
HETATM   31  C   UNL     1      42.486 -16.107   3.241  1.00  0.00    -0.033 A 
HETATM   32  C   UNL     1      42.342 -17.226   2.395  1.00  0.00     0.049 A 
HETATM   33  C   UNL     1      43.000 -18.390   2.726  1.00  0.00     0.105 A 
HETATM   34  C   UNL     1      43.790 -18.481   3.846  1.00  0.00     0.105 A 
HETATM   35  O   UNL     1      42.968 -19.548   2.015  1.00  0.00    -0.323 OA
HETATM   36  O   UNL     1      44.357 -19.710   3.982  1.00  0.00    -0.323 OA
HETATM   37  C   UNL     1      43.963 -17.412   4.698  1.00  0.00     0.040 A 
HETATM   38  C   UNL     1      43.838 -20.378   2.813  1.00  0.00     0.352 A 
HETATM   39  C   UNL     1      43.304 -16.216   4.390  1.00  0.00     0.012 A 
ENDBRANCH   6  31
TORSDOF 6
ENDMDL
MODEL 4
REMARK VINA RESULT:      -9.8      1.826      2.222
REMARK  6 active torsions:
REMARK  status: ('A' for Active; 'I' for Inactive)
REMARK    1  A    between atoms: C_8  and  C_9 
REMARK    2  A    between atoms: C_9  and  C_10 
REMARK    3  A    between atoms: C_10  and  N_11 
REMARK       I    between atoms: N_11  and  C_12 
REMARK    4  A    between atoms: C_12  and  C_13 
REMARK    5  A    between atoms: C_18  and  C_19 
REMARK    6  A    between atoms: C_29  and  C_30 
ROOT
HETATM    1  C   UNL     1      41.743 -10.497   6.014  1.00  0.00     0.148 A 
HETATM    2  N   UNL     1      42.323 -10.270   4.811  1.00  0.00    -0.165 NA
HETATM    3  N   UNL     1      42.147 -11.433   4.160  1.00  0.00    -0.240 N 
HETATM    4  C   UNL     1      41.540 -12.404   4.903  1.00  0.00     0.123 A 
HETATM    5  N   UNL     1      41.391 -13.658   4.433  1.00  0.00    -0.366 N 
HETATM    6  C   UNL     1      42.073 -14.129   3.229  1.00  0.00     0.118 C 
HETATM    7  C   UNL     1      43.173 -13.145   2.773  1.00  0.00     0.066 C 
HETATM    8  C   UNL     1      42.708 -11.680   2.846  1.00  0.00     0.221 C 
HETATM    9  C   UNL     1      41.215 -11.815   6.094  1.00  0.00     0.088 A 
HETATM   10  H   UNL     1      40.942 -14.379   4.996  1.00  0.00     0.161 HD
ENDROOT
BRANCH   1  11
HETATM   11  C   UNL     1      41.722  -9.492   7.087  1.00  0.00     0.272 C 
HETATM   12  N   UNL     1      41.954 -10.013   8.341  1.00  0.00    -0.355 N 
HETATM   13  H   UNL     1      42.310 -10.966   8.350  1.00  0.00     0.162 HD
HETATM   14  O   UNL     1      41.516  -8.301   6.877  1.00  0.00    -0.266 OA
BRANCH  12  15
HETATM   15  C   UNL     1      42.109  -9.156   9.495  1.00  0.00     0.127 C 
BRANCH  15  16
HETATM   16  C   UNL     1      42.725  -9.869  10.698  1.00  0.00     0.060 C 
BRANCH  16  17
HETATM   17  C   UNL     1      41.956  -9.639  11.964  1.00  0.00    -0.029 A 
HETATM   18  C   UNL     1      42.273  -8.718  13.014  1.00  0.00    -0.002 A 
HETATM   19  C   UNL     1      43.315  -7.794  13.231  1.00  0.00     0.014 A 
HETATM   20  C   UNL     1      41.273  -8.828  13.981  1.00  0.00     0.042 A 
HETATM   21  C   UNL     1      43.319  -7.019  14.396  1.00  0.00     0.001 A 
HETATM   22  C   UNL     1      42.305  -7.152  15.341  1.00  0.00     0.002 A 
HETATM   23  C   UNL     1      41.261  -8.061  15.151  1.00  0.00     0.030 A 
HETATM   24  N   UNL     1      40.386  -9.782  13.540  1.00  0.00    -0.365 N 
HETATM   25  H   UNL     1      39.557 -10.067  14.041  1.00  0.00     0.165 HD
HETATM   26  C   UNL     1      40.789 -10.280  12.331  1.00  0.00     0.096 A 
ENDBRANCH  16  17
ENDBRANCH  15  16
ENDBRANCH  12  15
ENDBRANCH   1  11
BRANCH   8  27
HETATM   27  C   UNL     1      41.703 -11.332   1.773  1.00  0.00     0.409 C 
HETATM   28  F   UNL     1      41.626 -12.272   0.808  1.00  0.00    -0.169 F 
HETATM   29  F   UNL     1      40.463 -11.243   2.324  1.00  0.00    -0.169 F 
HETATM   30  F   UNL     1      41.940 -10.145   1.176  1.00  0.00    -0.169 F 
ENDBRANCH   8  27
BRANCH   6  31
HETATM   31  C   UNL     1      42.638 -15.512   3.515  1.00  0.00    -0.033 A 
HETATM   32  C   UNL     1      42.506 -16.550   2.570  1.00  0.00     0.049 A 
HETATM   33  C   UNL     1      43.067 -17.775   2.856  1.00  0.00     0.105 A 
HETATM   34  C   UNL     1      43.749 -18.003   4.025  1.00  0.00     0.105 A 
HETATM   35  O   UNL     1      43.032 -18.870   2.051  1.00  0.00    -0.323 OA
HETATM   36  O   UNL     1      44.233 -19.271   4.105  1.00  0.00    -0.323 OA
HETATM   37  C   UNL     1      43.907 -17.016   4.975  1.00  0.00     0.040 A 
HETATM   38  C   UNL     1      43.782 -19.813   2.846  1.00  0.00     0.352 A 
HETATM   39  C   UNL     1      43.345 -15.761   4.715  1.00  0.00     0.012 A 
ENDBRANCH   6  31
TORSDOF 6
ENDMDL
MODEL 5
REMARK VINA RESULT:      -9.7      3.784      4.940
REMARK  6 active torsions:
REMARK  status: ('A' for Active; 'I' for Inactive)
REMARK    1  A    between atoms: C_8  and  C_9 
REMARK    2  A    between atoms: C_9  and  C_10 
REMARK    3  A    between atoms: C_10  and  N_11 
REMARK       I    between atoms: N_11  and  C_12 
REMARK    4  A    between atoms: C_12  and  C_13 
REMARK    5  A    between atoms: C_18  and  C_19 
REMARK    6  A    between atoms: C_29  and  C_30 
ROOT
HETATM    1  C   UNL     1      43.147 -12.516   6.039  1.00  0.00     0.148 A 
HETATM    2  N   UNL     1      42.524 -13.705   6.217  1.00  0.00    -0.165 NA
HETATM    3  N   UNL     1      42.318 -14.136   4.960  1.00  0.00    -0.240 N 
HETATM    4  C   UNL     1      42.723 -13.258   3.995  1.00  0.00     0.123 A 
HETATM    5  N   UNL     1      42.487 -13.493   2.690  1.00  0.00    -0.366 N 
HETATM    6  C   UNL     1      41.581 -14.547   2.234  1.00  0.00     0.118 C 
HETATM    7  C   UNL     1      40.738 -15.117   3.396  1.00  0.00     0.066 C 
HETATM    8  C   UNL     1      41.577 -15.346   4.665  1.00  0.00     0.221 C 
HETATM    9  C   UNL     1      43.315 -12.220   4.658  1.00  0.00     0.088 A 
HETATM   10  H   UNL     1      42.786 -12.831   1.975  1.00  0.00     0.161 HD
ENDROOT
BRANCH   1  11
HETATM   11  C   UNL     1      43.544 -11.653   7.162  1.00  0.00     0.272 C 
HETATM   12  N   UNL     1      42.637 -10.656   7.445  1.00  0.00    -0.355 N 
HETATM   13  H   UNL     1      41.731 -10.761   6.995  1.00  0.00     0.162 HD
HETATM   14  O   UNL     1      44.589 -11.813   7.785  1.00  0.00    -0.266 OA
BRANCH  12  15
HETATM   15  C   UNL     1      42.793  -9.802   8.601  1.00  0.00     0.127 C 
BRANCH  15  16
HETATM   16  C   UNL     1      41.558  -8.951   8.894  1.00  0.00     0.060 C 
BRANCH  16  17
HETATM   17  C   UNL     1      40.976  -9.222  10.248  1.00  0.00    -0.029 A 
HETATM   18  C   UNL     1      41.564  -8.919  11.519  1.00  0.00    -0.002 A 
HETATM   19  C   UNL     1      42.778  -8.329  11.926  1.00  0.00     0.014 A 
HETATM   20  C   UNL     1      40.663  -9.327  12.503  1.00  0.00     0.042 A 
HETATM   21  C   UNL     1      43.044  -8.168  13.291  1.00  0.00     0.001 A 
HETATM   22  C   UNL     1      42.122  -8.585  14.248  1.00  0.00     0.002 A 
HETATM   23  C   UNL     1      40.912  -9.174  13.872  1.00  0.00     0.030 A 
HETATM   24  N   UNL     1      39.573  -9.863  11.858  1.00  0.00    -0.365 N 
HETATM   25  H   UNL     1      38.759 -10.237  12.324  1.00  0.00     0.165 HD
HETATM   26  C   UNL     1      39.752  -9.809  10.503  1.00  0.00     0.096 A 
ENDBRANCH  16  17
ENDBRANCH  15  16
ENDBRANCH  12  15
ENDBRANCH   1  11
BRANCH   8  27
HETATM   27  C   UNL     1      42.520 -16.520   4.538  1.00  0.00     0.409 C 
HETATM   28  F   UNL     1      43.813 -16.142   4.453  1.00  0.00    -0.169 F 
HETATM   29  F   UNL     1      42.420 -17.303   5.645  1.00  0.00    -0.169 F 
HETATM   30  F   UNL     1      42.252 -17.317   3.483  1.00  0.00    -0.169 F 
ENDBRANCH   8  27
BRANCH   6  31
HETATM   31  C   UNL     1      40.706 -13.976   1.129  1.00  0.00    -0.033 A 
HETATM   32  C   UNL     1      40.293 -14.784   0.051  1.00  0.00     0.049 A 
HETATM   33  C   UNL     1      39.470 -14.234  -0.906  1.00  0.00     0.105 A 
HETATM   34  C   UNL     1      39.041 -12.932  -0.829  1.00  0.00     0.105 A 
HETATM   35  O   UNL     1      38.982 -14.880  -1.998  1.00  0.00    -0.323 OA
HETATM   36  O   UNL     1      38.228 -12.592  -1.865  1.00  0.00    -0.323 OA
HETATM   37  C   UNL     1      39.416 -12.106   0.209  1.00  0.00     0.040 A 
HETATM   38  C   UNL     1      38.188 -13.834  -2.598  1.00  0.00     0.352 A 
HETATM   39  C   UNL     1      40.256 -12.636   1.195  1.00  0.00     0.012 A 
ENDBRANCH   6  31
TORSDOF 6
ENDMDL
MODEL 6
REMARK VINA RESULT:      -9.6      4.295      5.729
REMARK  6 active torsions:
REMARK  status: ('A' for Active; 'I' for Inactive)
REMARK    1  A    between atoms: C_8  and  C_9 
REMARK    2  A    between atoms: C_9  and  C_10 
REMARK    3  A    between atoms: C_10  and  N_11 
REMARK       I    between atoms: N_11  and  C_12 
REMARK    4  A    between atoms: C_12  and  C_13 
REMARK    5  A    between atoms: C_18  and  C_19 
REMARK    6  A    between atoms: C_29  and  C_30 
ROOT
HETATM    1  C   UNL     1      39.948 -11.577   5.587  1.00  0.00     0.148 A 
HETATM    2  N   UNL     1      40.104 -12.920   5.671  1.00  0.00    -0.165 NA
HETATM    3  N   UNL     1      40.655 -13.242   4.489  1.00  0.00    -0.240 N 
HETATM    4  C   UNL     1      40.804 -12.185   3.636  1.00  0.00     0.123 A 
HETATM    5  N   UNL     1      41.240 -12.359   2.373  1.00  0.00    -0.366 N 
HETATM    6  C   UNL     1      41.340 -13.679   1.753  1.00  0.00     0.118 C 
HETATM    7  C   UNL     1      40.620 -14.760   2.591  1.00  0.00     0.066 C 
HETATM    8  C   UNL     1      40.907 -14.614   4.095  1.00  0.00     0.221 C 
HETATM    9  C   UNL     1      40.407 -11.080   4.336  1.00  0.00     0.088 A 
HETATM   10  H   UNL     1      41.343 -11.567   1.740  1.00  0.00     0.161 HD
ENDROOT
BRANCH   1  11
HETATM   11  C   UNL     1      39.341 -10.780   6.663  1.00  0.00     0.272 C 
HETATM   12  N   UNL     1      40.004  -9.602   6.924  1.00  0.00    -0.355 N 
HETATM   13  H   UNL     1      40.689  -9.331   6.222  1.00  0.00     0.162 HD
HETATM   14  O   UNL     1      38.336 -11.139   7.269  1.00  0.00    -0.266 OA
BRANCH  12  15
HETATM   15  C   UNL     1      39.472  -8.627   7.850  1.00  0.00     0.127 C 
BRANCH  15  16
HETATM   16  C   UNL     1      40.555  -7.865   8.612  1.00  0.00     0.060 C 
BRANCH  16  17
HETATM   17  C   UNL     1      41.330  -8.741   9.548  1.00  0.00    -0.029 A 
HETATM   18  C   UNL     1      42.744  -8.970   9.548  1.00  0.00    -0.002 A 
HETATM   19  C   UNL     1      43.814  -8.517   8.750  1.00  0.00     0.014 A 
HETATM   20  C   UNL     1      43.026  -9.837  10.604  1.00  0.00     0.042 A 
HETATM   21  C   UNL     1      45.117  -8.941   9.036  1.00  0.00     0.001 A 
HETATM   22  C   UNL     1      45.365  -9.806  10.101  1.00  0.00     0.002 A 
HETATM   23  C   UNL     1      44.322 -10.271  10.906  1.00  0.00     0.030 A 
HETATM   24  N   UNL     1      41.831 -10.128  11.220  1.00  0.00    -0.365 N 
HETATM   25  H   UNL     1      41.734 -10.733  12.023  1.00  0.00     0.165 HD
HETATM   26  C   UNL     1      40.805  -9.479  10.591  1.00  0.00     0.096 A 
ENDBRANCH  16  17
ENDBRANCH  15  16
ENDBRANCH  12  15
ENDBRANCH   1  11
BRANCH   8  27
HETATM   27  C   UNL     1      42.316 -15.014   4.464  1.00  0.00     0.409 C 
HETATM   28  F   UNL     1      42.387 -15.624   5.666  1.00  0.00    -0.169 F 
HETATM   29  F   UNL     1      42.788 -15.906   3.552  1.00  0.00    -0.169 F 
HETATM   30  F   UNL     1      43.186 -13.982   4.472  1.00  0.00    -0.169 F 
ENDBRANCH   8  27
BRANCH   6  31
HETATM   31  C   UNL     1      40.772 -13.587   0.345  1.00  0.00    -0.033 A 
HETATM   32  C   UNL     1      40.006 -14.643  -0.190  1.00  0.00     0.049 A 
HETATM   33  C   UNL     1      39.480 -14.498  -1.455  1.00  0.00     0.105 A 
HETATM   34  C   UNL     1      39.678 -13.359  -2.194  1.00  0.00     0.105 A 
HETATM   35  O   UNL     1      38.719 -15.417  -2.106  1.00  0.00    -0.323 OA
HETATM   36  O   UNL     1      39.065 -13.415  -3.407  1.00  0.00    -0.323 OA
HETATM   37  C   UNL     1      40.415 -12.300  -1.710  1.00  0.00     0.040 A 
HETATM   38  C   UNL     1      38.452 -14.719  -3.341  1.00  0.00     0.352 A 
HETATM   39  C   UNL     1      40.966 -12.418  -0.428  1.00  0.00     0.012 A 
ENDBRANCH   6  31
TORSDOF 6
ENDMDL
MODEL 7
REMARK VINA RESULT:      -9.5      3.567      4.465
REMARK  6 active torsions:
REMARK  status: ('A' for Active; 'I' for Inactive)
REMARK    1  A    between atoms: C_8  and  C_9 
REMARK    2  A    between atoms: C_9  and  C_10 
REMARK    3  A    between atoms: C_10  and  N_11 
REMARK       I    between atoms: N_11  and  C_12 
REMARK    4  A    between atoms: C_12  and  C_13 
REMARK    5  A    between atoms: C_18  and  C_19 
REMARK    6  A    between atoms: C_29  and  C_30 
ROOT
HETATM    1  C   UNL     1      43.507 -11.688   6.437  1.00  0.00     0.148 A 
HETATM    2  N   UNL     1      42.871 -12.743   6.999  1.00  0.00    -0.165 NA
HETATM    3  N   UNL     1      42.737 -13.604   5.976  1.00  0.00    -0.240 N 
HETATM    4  C   UNL     1      43.199 -13.129   4.782  1.00  0.00     0.123 A 
HETATM    5  N   UNL     1      43.038 -13.826   3.640  1.00  0.00    -0.366 N 
HETATM    6  C   UNL     1      42.158 -14.989   3.549  1.00  0.00     0.118 C 
HETATM    7  C   UNL     1      41.246 -15.114   4.790  1.00  0.00     0.066 C 
HETATM    8  C   UNL     1      42.010 -14.852   6.100  1.00  0.00     0.221 C 
HETATM    9  C   UNL     1      43.755 -11.910   5.054  1.00  0.00     0.088 A 
HETATM   10  H   UNL     1      43.381 -13.462   2.751  1.00  0.00     0.161 HD
ENDROOT
BRANCH   1  11
HETATM   11  C   UNL     1      43.841 -10.470   7.190  1.00  0.00     0.272 C 
HETATM   12  N   UNL     1      45.043 -10.543   7.859  1.00  0.00    -0.355 N 
HETATM   13  H   UNL     1      45.636 -11.325   7.591  1.00  0.00     0.162 HD
HETATM   14  O   UNL     1      43.112  -9.483   7.216  1.00  0.00    -0.266 OA
BRANCH  12  15
HETATM   15  C   UNL     1      45.599  -9.393   8.536  1.00  0.00     0.127 C 
BRANCH  15  16
HETATM   16  C   UNL     1      45.621  -9.539  10.057  1.00  0.00     0.060 C 
BRANCH  16  17
HETATM   17  C   UNL     1      44.249  -9.667  10.645  1.00  0.00    -0.029 A 
HETATM   18  C   UNL     1      43.216  -8.674  10.659  1.00  0.00    -0.002 A 
HETATM   19  C   UNL     1      43.119  -7.349  10.187  1.00  0.00     0.014 A 
HETATM   20  C   UNL     1      42.107  -9.235  11.292  1.00  0.00     0.042 A 
HETATM   21  C   UNL     1      41.925  -6.640  10.362  1.00  0.00     0.001 A 
HETATM   22  C   UNL     1      40.835  -7.230  10.996  1.00  0.00     0.002 A 
HETATM   23  C   UNL     1      40.905  -8.541  11.475  1.00  0.00     0.030 A 
HETATM   24  N   UNL     1      42.451 -10.516  11.654  1.00  0.00    -0.365 N 
HETATM   25  H   UNL     1      41.836 -11.161  12.129  1.00  0.00     0.165 HD
HETATM   26  C   UNL     1      43.737 -10.785  11.275  1.00  0.00     0.096 A 
ENDBRANCH  16  17
ENDBRANCH  15  16
ENDBRANCH  12  15
ENDBRANCH   1  11
BRANCH   8  27
HETATM   27  C   UNL     1      42.955 -15.974   6.460  1.00  0.00     0.409 C 
HETATM   28  F   UNL     1      42.951 -16.254   7.781  1.00  0.00    -0.169 F 
HETATM   29  F   UNL     1      42.569 -17.114   5.826  1.00  0.00    -0.169 F 
HETATM   30  F   UNL     1      44.232 -15.745   6.090  1.00  0.00    -0.169 F 
ENDBRANCH   8  27
BRANCH   6  31
HETATM   31  C   UNL     1      41.350 -14.873   2.266  1.00  0.00    -0.033 A 
HETATM   32  C   UNL     1      41.486 -13.745   1.431  1.00  0.00     0.049 A 
HETATM   33  C   UNL     1      40.762 -13.702   0.260  1.00  0.00     0.105 A 
HETATM   34  C   UNL     1      39.925 -14.725  -0.111  1.00  0.00     0.105 A 
HETATM   35  O   UNL     1      40.787 -12.693  -0.650  1.00  0.00    -0.323 OA
HETATM   36  O   UNL     1      39.316 -14.490  -1.304  1.00  0.00    -0.323 OA
HETATM   37  C   UNL     1      39.764 -15.849   0.671  1.00  0.00     0.040 A 
HETATM   38  C   UNL     1      39.874 -13.204  -1.644  1.00  0.00     0.352 A 
HETATM   39  C   UNL     1      40.484 -15.920   1.870  1.00  0.00     0.012 A 
ENDBRANCH   6  31
TORSDOF 6
ENDMDL
MODEL 8
REMARK VINA RESULT:      -9.5      5.095      9.624
REMARK  6 active torsions:
REMARK  status: ('A' for Active; 'I' for Inactive)
REMARK    1  A    between atoms: C_8  and  C_9 
REMARK    2  A    between atoms: C_9  and  C_10 
REMARK    3  A    between atoms: C_10  and  N_11 
REMARK       I    between atoms: N_11  and  C_12 
REMARK    4  A    between atoms: C_12  and  C_13 
REMARK    5  A    between atoms: C_18  and  C_19 
REMARK    6  A    between atoms: C_29  and  C_30 
ROOT
HETATM    1  C   UNL     1      40.115 -12.224   2.708  1.00  0.00     0.148 A 
HETATM    2  N   UNL     1      40.219 -12.174   4.058  1.00  0.00    -0.165 NA
HETATM    3  N   UNL     1      41.280 -12.958   4.315  1.00  0.00    -0.240 N 
HETATM    4  C   UNL     1      41.819 -13.550   3.208  1.00  0.00     0.123 A 
HETATM    5  N   UNL     1      42.817 -14.450   3.309  1.00  0.00    -0.366 N 
HETATM    6  C   UNL     1      43.216 -15.037   4.587  1.00  0.00     0.118 C 
HETATM    7  C   UNL     1      42.187 -14.737   5.700  1.00  0.00     0.066 C 
HETATM    8  C   UNL     1      41.702 -13.278   5.664  1.00  0.00     0.221 C 
HETATM    9  C   UNL     1      41.122 -13.053   2.142  1.00  0.00     0.088 A 
HETATM   10  H   UNL     1      43.210 -14.892   2.479  1.00  0.00     0.161 HD
ENDROOT
BRANCH   1  11
HETATM   11  C   UNL     1      39.054 -11.525   1.968  1.00  0.00     0.272 C 
HETATM   12  N   UNL     1      39.469 -10.354   1.375  1.00  0.00    -0.355 N 
HETATM   13  H   UNL     1      40.478 -10.223   1.344  1.00  0.00     0.162 HD
HETATM   14  O   UNL     1      37.906 -11.952   1.891  1.00  0.00    -0.266 OA
BRANCH  12  15
HETATM   15  C   UNL     1      38.600  -9.608   0.492  1.00  0.00     0.127 C 
BRANCH  15  16
HETATM   16  C   UNL     1      39.043  -9.652  -0.970  1.00  0.00     0.060 C 
BRANCH  16  17
HETATM   17  C   UNL     1      38.351 -10.727  -1.752  1.00  0.00    -0.029 A 
HETATM   18  C   UNL     1      38.755 -12.094  -1.889  1.00  0.00    -0.002 A 
HETATM   19  C   UNL     1      39.838 -12.854  -1.403  1.00  0.00     0.014 A 
HETATM   20  C   UNL     1      37.805 -12.731  -2.689  1.00  0.00     0.042 A 
HETATM   21  C   UNL     1      39.931 -14.212  -1.729  1.00  0.00     0.001 A 
HETATM   22  C   UNL     1      38.964 -14.818  -2.528  1.00  0.00     0.002 A 
HETATM   23  C   UNL     1      37.881 -14.087  -3.024  1.00  0.00     0.030 A 
HETATM   24  N   UNL     1      36.864 -11.788  -3.029  1.00  0.00    -0.365 N 
HETATM   25  H   UNL     1      36.053 -11.970  -3.603  1.00  0.00     0.165 HD
HETATM   26  C   UNL     1      37.185 -10.578  -2.476  1.00  0.00     0.096 A 
ENDBRANCH  16  17
ENDBRANCH  15  16
ENDBRANCH  12  15
ENDBRANCH   1  11
BRANCH   8  27
HETATM   27  C   UNL     1      42.755 -12.300   6.129  1.00  0.00     0.409 C 
HETATM   28  F   UNL     1      42.229 -11.228   6.758  1.00  0.00    -0.169 F 
HETATM   29  F   UNL     1      43.575 -12.908   7.028  1.00  0.00    -0.169 F 
HETATM   30  F   UNL     1      43.549 -11.848   5.136  1.00  0.00    -0.169 F 
ENDBRANCH   8  27
BRANCH   6  31
HETATM   31  C   UNL     1      43.407 -16.532   4.383  1.00  0.00    -0.033 A 
HETATM   32  C   UNL     1      43.196 -17.116   3.118  1.00  0.00     0.049 A 
HETATM   33  C   UNL     1      43.418 -18.468   2.972  1.00  0.00     0.105 A 
HETATM   34  C   UNL     1      43.842 -19.248   4.020  1.00  0.00     0.105 A 
HETATM   35  O   UNL     1      43.267 -19.176   1.822  1.00  0.00    -0.323 OA
HETATM   36  O   UNL     1      44.012 -20.549   3.661  1.00  0.00    -0.323 OA
HETATM   37  C   UNL     1      44.065 -18.719   5.273  1.00  0.00     0.040 A 
HETATM   38  C   UNL     1      43.654 -20.495   2.265  1.00  0.00     0.352 A 
HETATM   39  C   UNL     1      43.844 -17.348   5.453  1.00  0.00     0.012 A 
ENDBRANCH   6  31
TORSDOF 6
ENDMDL
MODEL 9
REMARK VINA RESULT:      -9.2      3.984      5.078
REMARK  6 active torsions:
REMARK  status: ('A' for Active; 'I' for Inactive)
REMARK    1  A    between atoms: C_8  and  C_9 
REMARK    2  A    between atoms: C_9  and  C_10 
REMARK    3  A    between atoms: C_10  and  N_11 
REMARK       I    between atoms: N_11  and  C_12 
REMARK    4  A    between atoms: C_12  and  C_13 
REMARK    5  A    between atoms: C_18  and  C_19 
REMARK    6  A    between atoms: C_29  and  C_30 
ROOT
HETATM    1  C   UNL     1      41.494 -11.479   5.542  1.00  0.00     0.148 A 
HETATM    2  N   UNL     1      40.928 -12.695   5.728  1.00  0.00    -0.165 NA
HETATM    3  N   UNL     1      41.147 -13.319   4.557  1.00  0.00    -0.240 N 
HETATM    4  C   UNL     1      41.768 -12.545   3.619  1.00  0.00     0.123 A 
HETATM    5  N   UNL     1      41.960 -12.987   2.361  1.00  0.00    -0.366 N 
HETATM    6  C   UNL     1      41.310 -14.190   1.845  1.00  0.00     0.118 C 
HETATM    7  C   UNL     1      40.191 -14.685   2.789  1.00  0.00     0.066 C 
HETATM    8  C   UNL     1      40.615 -14.636   4.267  1.00  0.00     0.221 C 
HETATM    9  C   UNL     1      42.058 -11.363   4.242  1.00  0.00     0.088 A 
HETATM   10  H   UNL     1      42.419 -12.401   1.664  1.00  0.00     0.161 HD
ENDROOT
BRANCH   1  11
HETATM   11  C   UNL     1      41.470 -10.428   6.570  1.00  0.00     0.272 C 
HETATM   12  N   UNL     1      42.709  -9.893   6.847  1.00  0.00    -0.355 N 
HETATM   13  H   UNL     1      43.438 -10.132   6.179  1.00  0.00     0.162 HD
HETATM   14  O   UNL     1      40.438 -10.066   7.127  1.00  0.00    -0.266 OA
BRANCH  12  15
HETATM   15  C   UNL     1      42.857  -8.754   7.726  1.00  0.00     0.127 C 
BRANCH  15  16
HETATM   16  C   UNL     1      44.057  -8.871   8.666  1.00  0.00     0.060 C 
BRANCH  16  17
HETATM   17  C   UNL     1      43.694  -9.445  10.001  1.00  0.00    -0.029 A 
HETATM   18  C   UNL     1      43.190  -8.737  11.140  1.00  0.00    -0.002 A 
HETATM   19  C   UNL     1      42.892  -7.384  11.405  1.00  0.00     0.014 A 
HETATM   20  C   UNL     1      42.974  -9.673  12.151  1.00  0.00     0.042 A 
HETATM   21  C   UNL     1      42.390  -7.021  12.660  1.00  0.00     0.001 A 
HETATM   22  C   UNL     1      42.184  -7.982  13.648  1.00  0.00     0.002 A 
HETATM   23  C   UNL     1      42.473  -9.329  13.411  1.00  0.00     0.030 A 
HETATM   24  N   UNL     1      43.337 -10.902  11.651  1.00  0.00    -0.365 N 
HETATM   25  H   UNL     1      43.282 -11.768  12.166  1.00  0.00     0.165 HD
HETATM   26  C   UNL     1      43.776 -10.776  10.361  1.00  0.00     0.096 A 
ENDBRANCH  16  17
ENDBRANCH  15  16
ENDBRANCH  12  15
ENDBRANCH   1  11
BRANCH   8  27
HETATM   27  C   UNL     1      41.627 -15.700   4.621  1.00  0.00     0.409 C 
HETATM   28  F   UNL     1      41.431 -16.215   5.853  1.00  0.00    -0.169 F 
HETATM   29  F   UNL     1      41.520 -16.737   3.748  1.00  0.00    -0.169 F 
HETATM   30  F   UNL     1      42.906 -15.274   4.550  1.00  0.00    -0.169 F 
ENDBRANCH   8  27
BRANCH   6  31
HETATM   31  C   UNL     1      40.780 -13.884   0.453  1.00  0.00    -0.033 A 
HETATM   32  C   UNL     1      39.992 -14.827  -0.238  1.00  0.00     0.049 A 
HETATM   33  C   UNL     1      39.501 -14.490  -1.480  1.00  0.00     0.105 A 
HETATM   34  C   UNL     1      39.755 -13.268  -2.051  1.00  0.00     0.105 A 
HETATM   35  O   UNL     1      38.725 -15.282  -2.267  1.00  0.00    -0.323 OA
HETATM   36  O   UNL     1      39.169 -13.133  -3.271  1.00  0.00    -0.323 OA
HETATM   37  C   UNL     1      40.516 -12.313  -1.410  1.00  0.00     0.040 A 
HETATM   38  C   UNL     1      38.511 -14.411  -3.398  1.00  0.00     0.352 A 
HETATM   39  C   UNL     1      41.031 -12.628  -0.147  1.00  0.00     0.012 A 
ENDBRANCH   6  31
TORSDOF 6
ENDMDL
MODEL 10
REMARK VINA RESULT:      -9.1      5.386     10.092
REMARK  6 active torsions:
REMARK  status: ('A' for Active; 'I' for Inactive)
REMARK    1  A    between atoms: C_8  and  C_9 
REMARK    2  A    between atoms: C_9  and  C_10 
REMARK    3  A    between atoms: C_10  and  N_11 
REMARK       I    between atoms: N_11  and  C_12 
REMARK    4  A    between atoms: C_12  and  C_13 
REMARK    5  A    between atoms: C_18  and  C_19 
REMARK    6  A    between atoms: C_29  and  C_30 
ROOT
HETATM    1  C   UNL     1      40.612 -12.497   2.059  1.00  0.00     0.148 A 
HETATM    2  N   UNL     1      40.546 -12.567   3.410  1.00  0.00    -0.165 NA
HETATM    3  N   UNL     1      41.531 -13.426   3.722  1.00  0.00    -0.240 N 
HETATM    4  C   UNL     1      42.181 -13.950   2.641  1.00  0.00     0.123 A 
HETATM    5  N   UNL     1      43.118 -14.908   2.781  1.00  0.00    -0.366 N 
HETATM    6  C   UNL     1      43.326 -15.623   4.039  1.00  0.00     0.118 C 
HETATM    7  C   UNL     1      42.177 -15.364   5.040  1.00  0.00     0.066 C 
HETATM    8  C   UNL     1      41.764 -13.883   5.079  1.00  0.00     0.221 C 
HETATM    9  C   UNL     1      41.647 -13.328   1.547  1.00  0.00     0.088 A 
HETATM   10  H   UNL     1      43.594 -15.298   1.969  1.00  0.00     0.161 HD
ENDROOT
BRANCH   1  11
HETATM   11  C   UNL     1      39.685 -11.681   1.261  1.00  0.00     0.272 C 
HETATM   12  N   UNL     1      38.839 -12.421   0.465  1.00  0.00    -0.355 N 
HETATM   13  H   UNL     1      38.814 -13.416   0.675  1.00  0.00     0.162 HD
HETATM   14  O   UNL     1      39.672 -10.455   1.304  1.00  0.00    -0.266 OA
BRANCH  12  15
HETATM   15  C   UNL     1      37.769 -11.797  -0.281  1.00  0.00     0.127 C 
BRANCH  15  16
HETATM   16  C   UNL     1      37.664 -12.298  -1.721  1.00  0.00     0.060 C 
BRANCH  16  17
HETATM   17  C   UNL     1      37.630 -11.183  -2.721  1.00  0.00    -0.029 A 
HETATM   18  C   UNL     1      38.750 -10.480  -3.272  1.00  0.00    -0.002 A 
HETATM   19  C   UNL     1      40.146 -10.558  -3.092  1.00  0.00     0.014 A 
HETATM   20  C   UNL     1      38.249  -9.541  -4.175  1.00  0.00     0.042 A 
HETATM   21  C   UNL     1      40.984  -9.702  -3.816  1.00  0.00     0.001 A 
HETATM   22  C   UNL     1      40.452  -8.777  -4.712  1.00  0.00     0.002 A 
HETATM   23  C   UNL     1      39.072  -8.679  -4.908  1.00  0.00     0.030 A 
HETATM   24  N   UNL     1      36.879  -9.664  -4.170  1.00  0.00    -0.365 N 
HETATM   25  H   UNL     1      36.253  -9.109  -4.735  1.00  0.00     0.165 HD
HETATM   26  C   UNL     1      36.496 -10.644  -3.296  1.00  0.00     0.096 A 
ENDBRANCH  16  17
ENDBRANCH  15  16
ENDBRANCH  12  15
ENDBRANCH   1  11
BRANCH   8  27
HETATM   27  C   UNL     1      42.790 -13.007   5.757  1.00  0.00     0.409 C 
HETATM   28  F   UNL     1      42.235 -11.955   6.396  1.00  0.00    -0.169 F 
HETATM   29  F   UNL     1      43.448 -13.728   6.704  1.00  0.00    -0.169 F 
HETATM   30  F   UNL     1      43.733 -12.530   4.918  1.00  0.00    -0.169 F 
ENDBRANCH   8  27
BRANCH   6  31
HETATM   31  C   UNL     1      43.477 -17.103   3.725  1.00  0.00    -0.033 A 
HETATM   32  C   UNL     1      43.931 -18.003   4.709  1.00  0.00     0.049 A 
HETATM   33  C   UNL     1      44.015 -19.340   4.390  1.00  0.00     0.105 A 
HETATM   34  C   UNL     1      43.664 -19.811   3.149  1.00  0.00     0.105 A 
HETATM   35  O   UNL     1      44.427 -20.330   5.226  1.00  0.00    -0.323 OA
HETATM   36  O   UNL     1      43.809 -21.159   3.046  1.00  0.00    -0.323 OA
HETATM   37  C   UNL     1      43.210 -18.968   2.157  1.00  0.00     0.040 A 
HETATM   38  C   UNL     1      44.285 -21.483   4.369  1.00  0.00     0.352 A 
HETATM   39  C   UNL     1      43.117 -17.603   2.451  1.00  0.00     0.012 A 
ENDBRANCH   6  31
TORSDOF 6
ENDMDL
