MODEL 1
REMARK VINA RESULT:      -9.9      0.000      0.000
REMARK  8 active torsions:
REMARK  status: ('A' for Active; 'I' for Inactive)
REMARK    1  A    between atoms: C_4  and  C_5 
REMARK    2  A    between atoms: C_5  and  N_6 
REMARK    3  A    between atoms: C_5  and  C_31 
REMARK       I    between atoms: N_6  and  C_7 
REMARK    4  A    between atoms: N_6  and  C_21 
REMARK    5  A    between atoms: C_7  and  C_8 
REMARK    6  A    between atoms: C_11  and  C_12 
REMARK    7  A    between atoms: C_21  and  C_22 
REMARK       I    between atoms: C_31  and  N_32 
REMARK    8  A    between atoms: N_32  and  C_33 
ROOT
HETATM    1  N   UNL     1      42.723 -12.123   6.743  1.00  0.00    -0.323 N 
HETATM    2  C   UNL     1      43.754 -13.061   6.682  1.00  0.00     0.271 C 
HETATM    3  O   UNL     1      44.928 -12.705   6.562  1.00  0.00    -0.266 OA
ENDROOT
BRANCH   1   4
HETATM    4  C   UNL     1      43.046 -10.683   6.905  1.00  0.00     0.237 C 
BRANCH   4   5
HETATM    5  C   UNL     1      41.820  -9.820   6.938  1.00  0.00     0.085 A 
HETATM    6  O   UNL     1      41.237  -9.648   8.163  1.00  0.00    -0.317 OA
HETATM    7  C   UNL     1      40.139  -8.865   7.983  1.00  0.00     0.049 A 
HETATM    8  C   UNL     1      39.344  -8.552   9.187  1.00  0.00     0.076 C 
HETATM    9  C   UNL     1      40.007  -8.530   6.655  1.00  0.00     0.035 A 
HETATM   10  C   UNL     1      41.088  -9.143   5.980  1.00  0.00     0.038 A 
ENDBRANCH   4   5
BRANCH   4  11
HETATM   11  C   UNL     1      44.004 -10.330   8.078  1.00  0.00     0.247 C 
HETATM   12  N   UNL     1      43.547 -10.637   9.346  1.00  0.00    -0.354 N 
HETATM   13  H   UNL     1      42.533 -10.699   9.425  1.00  0.00     0.162 HD
HETATM   14  O   UNL     1      45.073  -9.746   7.896  1.00  0.00    -0.271 OA
BRANCH  12  15
HETATM   15  C   UNL     1      44.267 -10.262  10.555  1.00  0.00     0.084 C 
HETATM   16  C   UNL     1      44.382  -8.737  10.683  1.00  0.00     0.025 C 
HETATM   17  C   UNL     1      43.047  -8.073  11.023  1.00  0.00     0.002 C 
HETATM   18  C   UNL     1      42.406  -8.692  12.261  1.00  0.00     0.000 C 
HETATM   19  C   UNL     1      42.257 -10.204  12.128  1.00  0.00     0.002 C 
HETATM   20  C   UNL     1      43.588 -10.874  11.787  1.00  0.00     0.025 C 
ENDBRANCH  12  15
ENDBRANCH   4  11
ENDBRANCH   1   4
BRANCH   1  21
HETATM   21  C   UNL     1      41.423 -12.399   6.126  1.00  0.00     0.166 C 
BRANCH  21  22
HETATM   22  C   UNL     1      41.453 -12.819   4.671  1.00  0.00    -0.037 A 
HETATM   23  C   UNL     1      40.623 -13.886   4.279  1.00  0.00     0.048 A 
HETATM   24  C   UNL     1      40.625 -14.273   2.956  1.00  0.00     0.105 A 
HETATM   25  C   UNL     1      41.409 -13.645   2.020  1.00  0.00     0.105 A 
HETATM   26  O   UNL     1      39.883 -15.281   2.424  1.00  0.00    -0.323 OA
HETATM   27  O   UNL     1      41.264 -14.180   0.779  1.00  0.00    -0.323 OA
HETATM   28  C   UNL     1      42.228 -12.591   2.356  1.00  0.00     0.040 A 
HETATM   29  C   UNL     1      40.298 -15.219   1.043  1.00  0.00     0.352 A 
HETATM   30  C   UNL     1      42.240 -12.171   3.692  1.00  0.00     0.012 A 
ENDBRANCH  21  22
ENDBRANCH   1  21
BRANCH   2  31
HETATM   31  C   UNL     1      43.425 -14.469   6.622  1.00  0.00     0.101 C 
HETATM   32  N   UNL     1      43.808 -15.241   5.547  1.00  0.00    -0.351 N 
HETATM   33  H   UNL     1      44.329 -14.879   4.759  1.00  0.00     0.166 HD
HETATM   34  C   UNL     1      43.274 -16.506   5.627  1.00  0.00     0.043 C 
HETATM   35  C   UNL     1      42.663 -16.584   6.867  1.00  0.00     0.033 C 
HETATM   36  C   UNL     1      42.775 -15.319   7.497  1.00  0.00     0.037 C 
BRANCH  34  37
HETATM   37  C   UNL     1      43.365 -17.476   4.533  1.00  0.00    -0.009 A 
HETATM   38  C   UNL     1      42.802 -17.214   3.276  1.00  0.00     0.013 A 
HETATM   39  C   UNL     1      42.849 -18.171   2.259  1.00  0.00     0.001 A 
HETATM   40  C   UNL     1      43.463 -19.402   2.485  1.00  0.00     0.000 A 
HETATM   41  C   UNL     1      44.037 -19.672   3.725  1.00  0.00     0.001 A 
HETATM   42  C   UNL     1      43.990 -18.714   4.741  1.00  0.00     0.013 A 
ENDBRANCH  34  37
ENDBRANCH   2  31
TORSDOF 8
ENDMDL
MODEL 2
REMARK VINA RESULT:      -9.8      3.547      7.255
REMARK  8 active torsions:
REMARK  status: ('A' for Active; 'I' for Inactive)
REMARK    1  A    between atoms: C_4  and  C_5 
REMARK    2  A    between atoms: C_5  and  N_6 
REMARK    3  A    between atoms: C_5  and  C_31 
REMARK       I    between atoms: N_6  and  C_7 
REMARK    4  A    between atoms: N_6  and  C_21 
REMARK    5  A    between atoms: C_7  and  C_8 
REMARK    6  A    between atoms: C_11  and  C_12 
REMARK    7  A    between atoms: C_21  and  C_22 
REMARK       I    between atoms: C_31  and  N_32 
REMARK    8  A    between atoms: N_32  and  C_33 
ROOT
HETATM    1  N   UNL     1      40.414 -13.466   2.816  1.00  0.00    -0.323 N 
HETATM    2  C   UNL     1      40.299 -14.751   2.285  1.00  0.00     0.271 C 
HETATM    3  O   UNL     1      39.195 -15.275   2.127  1.00  0.00    -0.266 OA
ENDROOT
BRANCH   1   4
HETATM    4  C   UNL     1      39.202 -12.623   2.972  1.00  0.00     0.237 C 
BRANCH   4   5
HETATM    5  C   UNL     1      39.414 -11.483   3.922  1.00  0.00     0.085 A 
HETATM    6  O   UNL     1      39.067 -11.712   5.226  1.00  0.00    -0.317 OA
HETATM    7  C   UNL     1      39.307 -10.564   5.917  1.00  0.00     0.049 A 
HETATM    8  C   UNL     1      38.994 -10.583   7.360  1.00  0.00     0.076 C 
HETATM    9  C   UNL     1      39.805  -9.598   5.075  1.00  0.00     0.035 A 
HETATM   10  C   UNL     1      39.876 -10.186   3.790  1.00  0.00     0.038 A 
ENDBRANCH   4   5
BRANCH   4  11
HETATM   11  C   UNL     1      38.543 -12.129   1.652  1.00  0.00     0.247 C 
HETATM   12  N   UNL     1      39.113 -12.593   0.481  1.00  0.00    -0.354 N 
HETATM   13  H   UNL     1      40.087 -12.879   0.571  1.00  0.00     0.162 HD
HETATM   14  O   UNL     1      37.617 -11.317   1.647  1.00  0.00    -0.271 OA
BRANCH  12  15
HETATM   15  C   UNL     1      38.694 -12.133  -0.835  1.00  0.00     0.084 C 
HETATM   16  C   UNL     1      39.697 -11.126  -1.417  1.00  0.00     0.025 C 
HETATM   17  C   UNL     1      41.013 -11.783  -1.837  1.00  0.00     0.002 C 
HETATM   18  C   UNL     1      40.783 -12.957  -2.784  1.00  0.00     0.000 C 
HETATM   19  C   UNL     1      39.814 -13.978  -2.198  1.00  0.00     0.002 C 
HETATM   20  C   UNL     1      38.497 -13.328  -1.776  1.00  0.00     0.025 C 
ENDBRANCH  12  15
ENDBRANCH   4  11
ENDBRANCH   1   4
BRANCH   1  21
HETATM   21  C   UNL     1      41.526 -13.119   3.705  1.00  0.00     0.166 C 
BRANCH  21  22
HETATM   22  C   UNL     1      41.808 -14.094   4.828  1.00  0.00    -0.037 A 
HETATM   23  C   UNL     1      43.142 -14.501   5.024  1.00  0.00     0.048 A 
HETATM   24  C   UNL     1      43.421 -15.378   6.051  1.00  0.00     0.105 A 
HETATM   25  C   UNL     1      42.438 -15.856   6.881  1.00  0.00     0.105 A 
HETATM   26  O   UNL     1      44.652 -15.862   6.367  1.00  0.00    -0.323 OA
HETATM   27  O   UNL     1      42.923 -16.706   7.824  1.00  0.00    -0.323 OA
HETATM   28  C   UNL     1      41.123 -15.477   6.733  1.00  0.00     0.040 A 
HETATM   29  C   UNL     1      44.327 -16.708   7.490  1.00  0.00     0.352 A 
HETATM   30  C   UNL     1      40.810 -14.582   5.703  1.00  0.00     0.012 A 
ENDBRANCH  21  22
ENDBRANCH   1  21
BRANCH   2  31
HETATM   31  C   UNL     1      41.498 -15.526   2.048  1.00  0.00     0.101 C 
HETATM   32  N   UNL     1      41.639 -16.792   2.572  1.00  0.00    -0.351 N 
HETATM   33  H   UNL     1      40.931 -17.242   3.138  1.00  0.00     0.166 HD
HETATM   34  C   UNL     1      42.902 -17.288   2.344  1.00  0.00     0.043 C 
HETATM   35  C   UNL     1      43.527 -16.371   1.517  1.00  0.00     0.033 C 
HETATM   36  C   UNL     1      42.643 -15.281   1.314  1.00  0.00     0.037 C 
BRANCH  34  37
HETATM   37  C   UNL     1      43.386 -18.532   2.947  1.00  0.00    -0.009 A 
HETATM   38  C   UNL     1      43.371 -19.741   2.236  1.00  0.00     0.013 A 
HETATM   39  C   UNL     1      43.785 -20.930   2.842  1.00  0.00     0.001 A 
HETATM   40  C   UNL     1      44.221 -20.926   4.166  1.00  0.00     0.000 A 
HETATM   41  C   UNL     1      44.253 -19.730   4.880  1.00  0.00     0.001 A 
HETATM   42  C   UNL     1      43.840 -18.541   4.273  1.00  0.00     0.013 A 
ENDBRANCH  34  37
ENDBRANCH   2  31
TORSDOF 8
ENDMDL
MODEL 3
REMARK VINA RESULT:      -9.5      1.494      2.189
REMARK  8 active torsions:
REMARK  status: ('A' for Active; 'I' for Inactive)
REMARK    1  A    between atoms: C_4  and  C_5 
REMARK    2  A    between atoms: C_5  and  N_6 
REMARK    3  A    between atoms: C_5  and  C_31 
REMARK       I    between atoms: N_6  and  C_7 
REMARK    4  A    between atoms: N_6  and  C_21 
REMARK    5  A    between atoms: C_7  and  C_8 
REMARK    6  A    between atoms: C_11  and  C_12 
REMARK    7  A    between atoms: C_21  and  C_22 
REMARK       I    between atoms: C_31  and  N_32 
REMARK    8  A    between atoms: N_32  and  C_33 
ROOT
HETATM    1  N   UNL     1      42.990 -13.371   5.351  1.00  0.00    -0.323 N 
HETATM    2  C   UNL     1      43.369 -14.024   6.525  1.00  0.00     0.271 C 
HETATM    3  O   UNL     1      43.749 -13.388   7.510  1.00  0.00    -0.266 OA
ENDROOT
BRANCH   1   4
HETATM    4  C   UNL     1      42.812 -11.897   5.354  1.00  0.00     0.237 C 
BRANCH   4   5
HETATM    5  C   UNL     1      41.447 -11.484   5.815  1.00  0.00     0.085 A 
HETATM    6  O   UNL     1      41.221 -10.137   5.900  1.00  0.00    -0.317 OA
HETATM    7  C   UNL     1      39.950  -9.967   6.355  1.00  0.00     0.049 A 
HETATM    8  C   UNL     1      39.490  -8.575   6.532  1.00  0.00     0.076 C 
HETATM    9  C   UNL     1      39.352 -11.189   6.564  1.00  0.00     0.035 A 
HETATM   10  C   UNL     1      40.314 -12.167   6.217  1.00  0.00     0.038 A 
ENDBRANCH   4   5
BRANCH   4  11
HETATM   11  C   UNL     1      43.915 -11.081   6.087  1.00  0.00     0.247 C 
HETATM   12  N   UNL     1      43.538 -10.486   7.277  1.00  0.00    -0.354 N 
HETATM   13  H   UNL     1      42.537 -10.317   7.364  1.00  0.00     0.162 HD
HETATM   14  O   UNL     1      45.035 -10.913   5.603  1.00  0.00    -0.271 OA
BRANCH  12  15
HETATM   15  C   UNL     1      44.412  -9.592   8.023  1.00  0.00     0.084 C 
HETATM   16  C   UNL     1      43.686  -8.293   8.401  1.00  0.00     0.025 C 
HETATM   17  C   UNL     1      42.630  -8.505   9.487  1.00  0.00     0.002 C 
HETATM   18  C   UNL     1      43.212  -9.199  10.715  1.00  0.00     0.000 C 
HETATM   19  C   UNL     1      43.905 -10.508  10.351  1.00  0.00     0.002 C 
HETATM   20  C   UNL     1      44.961 -10.304   9.265  1.00  0.00     0.025 C 
ENDBRANCH  12  15
ENDBRANCH   4  11
ENDBRANCH   1   4
BRANCH   1  21
HETATM   21  C   UNL     1      43.285 -13.954   4.040  1.00  0.00     0.166 C 
BRANCH  21  22
HETATM   22  C   UNL     1      42.147 -13.956   3.042  1.00  0.00    -0.037 A 
HETATM   23  C   UNL     1      42.276 -13.146   1.898  1.00  0.00     0.048 A 
HETATM   24  C   UNL     1      41.257 -13.146   0.969  1.00  0.00     0.105 A 
HETATM   25  C   UNL     1      40.130 -13.912   1.133  1.00  0.00     0.105 A 
HETATM   26  O   UNL     1      41.233 -12.422  -0.181  1.00  0.00    -0.323 OA
HETATM   27  O   UNL     1      39.249 -13.766   0.108  1.00  0.00    -0.323 OA
HETATM   28  C   UNL     1      39.965 -14.727   2.231  1.00  0.00     0.040 A 
HETATM   29  C   UNL     1      39.954 -12.817  -0.720  1.00  0.00     0.352 A 
HETATM   30  C   UNL     1      40.988 -14.753   3.186  1.00  0.00     0.012 A 
ENDBRANCH  21  22
ENDBRANCH   1  21
BRANCH   2  31
HETATM   31  C   UNL     1      43.444 -15.469   6.535  1.00  0.00     0.101 C 
HETATM   32  N   UNL     1      43.715 -16.173   5.382  1.00  0.00    -0.351 N 
HETATM   33  H   UNL     1      43.875 -15.732   4.486  1.00  0.00     0.166 HD
HETATM   34  C   UNL     1      43.601 -17.528   5.587  1.00  0.00     0.043 C 
HETATM   35  C   UNL     1      43.404 -17.692   6.948  1.00  0.00     0.033 C 
HETATM   36  C   UNL     1      43.327 -16.408   7.543  1.00  0.00     0.037 C 
BRANCH  34  37
HETATM   37  C   UNL     1      43.655 -18.503   4.496  1.00  0.00    -0.009 A 
HETATM   38  C   UNL     1      43.344 -18.139   3.177  1.00  0.00     0.013 A 
HETATM   39  C   UNL     1      43.347 -19.092   2.155  1.00  0.00     0.001 A 
HETATM   40  C   UNL     1      43.662 -20.420   2.437  1.00  0.00     0.000 A 
HETATM   41  C   UNL     1      43.984 -20.793   3.740  1.00  0.00     0.001 A 
HETATM   42  C   UNL     1      43.982 -19.839   4.761  1.00  0.00     0.013 A 
ENDBRANCH  34  37
ENDBRANCH   2  31
TORSDOF 8
ENDMDL
MODEL 4
REMARK VINA RESULT:      -9.4      2.186      3.180
REMARK  8 active torsions:
REMARK  status: ('A' for Active; 'I' for Inactive)
REMARK    1  A    between atoms: C_4  and  C_5 
REMARK    2  A    between atoms: C_5  and  N_6 
REMARK    3  A    between atoms: C_5  and  C_31 
REMARK       I    between atoms: N_6  and  C_7 
REMARK    4  A    between atoms: N_6  and  C_21 
REMARK    5  A    between atoms: C_7  and  C_8 
REMARK    6  A    between atoms: C_11  and  C_12 
REMARK    7  A    between atoms: C_21  and  C_22 
REMARK       I    between atoms: C_31  and  N_32 
REMARK    8  A    between atoms: N_32  and  C_33 
ROOT
HETATM    1  N   UNL     1      42.014 -13.030   4.490  1.00  0.00    -0.323 N 
HETATM    2  C   UNL     1      43.170 -13.328   3.769  1.00  0.00     0.271 C 
HETATM    3  O   UNL     1      44.102 -12.523   3.704  1.00  0.00    -0.266 OA
ENDROOT
BRANCH   1   4
HETATM    4  C   UNL     1      41.987 -11.844   5.382  1.00  0.00     0.237 C 
BRANCH   4   5
HETATM    5  C   UNL     1      40.602 -11.308   5.584  1.00  0.00     0.085 A 
HETATM    6  O   UNL     1      40.242 -10.253   4.791  1.00  0.00    -0.317 OA
HETATM    7  C   UNL     1      38.974  -9.898   5.138  1.00  0.00     0.049 A 
HETATM    8  C   UNL     1      38.380  -8.763   4.405  1.00  0.00     0.076 C 
HETATM    9  C   UNL     1      38.512 -10.713   6.146  1.00  0.00     0.035 A 
HETATM   10  C   UNL     1      39.557 -11.621   6.434  1.00  0.00     0.038 A 
ENDBRANCH   4   5
BRANCH   4  11
HETATM   11  C   UNL     1      42.725 -12.000   6.743  1.00  0.00     0.247 C 
HETATM   12  N   UNL     1      42.963 -10.830   7.440  1.00  0.00    -0.354 N 
HETATM   13  H   UNL     1      42.986  -9.992   6.861  1.00  0.00     0.162 HD
HETATM   14  O   UNL     1      43.137 -13.090   7.141  1.00  0.00    -0.271 OA
BRANCH  12  15
HETATM   15  C   UNL     1      43.745 -10.789   8.667  1.00  0.00     0.084 C 
HETATM   16  C   UNL     1      45.251 -10.806   8.366  1.00  0.00     0.025 C 
HETATM   17  C   UNL     1      45.744  -9.491   7.762  1.00  0.00     0.002 C 
HETATM   18  C   UNL     1      45.359  -8.292   8.624  1.00  0.00     0.000 C 
HETATM   19  C   UNL     1      43.859  -8.249   8.898  1.00  0.00     0.002 C 
HETATM   20  C   UNL     1      43.359  -9.561   9.501  1.00  0.00     0.025 C 
ENDBRANCH  12  15
ENDBRANCH   4  11
ENDBRANCH   1   4
BRANCH   1  21
HETATM   21  C   UNL     1      40.701 -13.476   4.017  1.00  0.00     0.166 C 
BRANCH  21  22
HETATM   22  C   UNL     1      40.394 -13.210   2.558  1.00  0.00    -0.037 A 
HETATM   23  C   UNL     1      40.066 -14.311   1.745  1.00  0.00     0.048 A 
HETATM   24  C   UNL     1      39.769 -14.088   0.417  1.00  0.00     0.105 A 
HETATM   25  C   UNL     1      39.784 -12.826  -0.124  1.00  0.00     0.105 A 
HETATM   26  O   UNL     1      39.436 -15.042  -0.492  1.00  0.00    -0.323 OA
HETATM   27  O   UNL     1      39.464 -12.825  -1.445  1.00  0.00    -0.323 OA
HETATM   28  C   UNL     1      40.088 -11.719   0.635  1.00  0.00     0.040 A 
HETATM   29  C   UNL     1      39.248 -14.234  -1.673  1.00  0.00     0.352 A 
HETATM   30  C   UNL     1      40.386 -11.915   1.989  1.00  0.00     0.012 A 
ENDBRANCH  21  22
ENDBRANCH   1  21
BRANCH   2  31
HETATM   31  C   UNL     1      43.217 -14.539   2.979  1.00  0.00     0.101 C 
HETATM   32  N   UNL     1      43.154 -15.779   3.577  1.00  0.00    -0.351 N 
HETATM   33  H   UNL     1      43.070 -15.910   4.577  1.00  0.00     0.166 HD
HETATM   34  C   UNL     1      43.356 -16.785   2.661  1.00  0.00     0.043 C 
HETATM   35  C   UNL     1      43.395 -16.169   1.422  1.00  0.00     0.033 C 
HETATM   36  C   UNL     1      43.287 -14.769   1.617  1.00  0.00     0.037 C 
BRANCH  34  37
HETATM   37  C   UNL     1      43.522 -18.188   3.048  1.00  0.00    -0.009 A 
HETATM   38  C   UNL     1      44.006 -18.542   4.316  1.00  0.00     0.013 A 
HETATM   39  C   UNL     1      44.211 -19.883   4.652  1.00  0.00     0.001 A 
HETATM   40  C   UNL     1      43.933 -20.887   3.726  1.00  0.00     0.000 A 
HETATM   41  C   UNL     1      43.441 -20.550   2.467  1.00  0.00     0.001 A 
HETATM   42  C   UNL     1      43.236 -19.209   2.132  1.00  0.00     0.013 A 
ENDBRANCH  34  37
ENDBRANCH   2  31
TORSDOF 8
ENDMDL
MODEL 5
REMARK VINA RESULT:      -9.2      2.957      7.417
REMARK  8 active torsions:
REMARK  status: ('A' for Active; 'I' for Inactive)
REMARK    1  A    between atoms: C_4  and  C_5 
REMARK    2  A    between atoms: C_5  and  N_6 
REMARK    3  A    between atoms: C_5  and  C_31 
REMARK       I    between atoms: N_6  and  C_7 
REMARK    4  A    between atoms: N_6  and  C_21 
REMARK    5  A    between atoms: C_7  and  C_8 
REMARK    6  A    between atoms: C_11  and  C_12 
REMARK    7  A    between atoms: C_21  and  C_22 
REMARK       I    between atoms: C_31  and  N_32 
REMARK    8  A    between atoms: N_32  and  C_33 
ROOT
HETATM    1  N   UNL     1      40.854 -13.146   2.452  1.00  0.00    -0.323 N 
HETATM    2  C   UNL     1      40.639 -14.513   2.632  1.00  0.00     0.271 C 
HETATM    3  O   UNL     1      39.605 -14.928   3.160  1.00  0.00    -0.266 OA
ENDROOT
BRANCH   1   4
HETATM    4  C   UNL     1      39.741 -12.190   2.675  1.00  0.00     0.237 C 
BRANCH   4   5
HETATM    5  C   UNL     1      40.211 -10.879   3.230  1.00  0.00     0.085 A 
HETATM    6  O   UNL     1      40.097 -10.723   4.585  1.00  0.00    -0.317 OA
HETATM    7  C   UNL     1      40.547  -9.475   4.889  1.00  0.00     0.049 A 
HETATM    8  C   UNL     1      40.507  -9.085   6.312  1.00  0.00     0.076 C 
HETATM    9  C   UNL     1      40.952  -8.825   3.745  1.00  0.00     0.035 A 
HETATM   10  C   UNL     1      40.737  -9.727   2.677  1.00  0.00     0.038 A 
ENDBRANCH   4   5
BRANCH   4  11
HETATM   11  C   UNL     1      38.784 -11.969   1.468  1.00  0.00     0.247 C 
HETATM   12  N   UNL     1      39.159 -12.569   0.280  1.00  0.00    -0.354 N 
HETATM   13  H   UNL     1      40.156 -12.759   0.202  1.00  0.00     0.162 HD
HETATM   14  O   UNL     1      37.791 -11.244   1.546  1.00  0.00    -0.271 OA
BRANCH  12  15
HETATM   15  C   UNL     1      38.439 -12.361  -0.968  1.00  0.00     0.084 C 
HETATM   16  C   UNL     1      38.987 -11.145  -1.729  1.00  0.00     0.025 C 
HETATM   17  C   UNL     1      40.371 -11.401  -2.327  1.00  0.00     0.002 C 
HETATM   18  C   UNL     1      40.391 -12.658  -3.191  1.00  0.00     0.000 C 
HETATM   19  C   UNL     1      39.881 -13.877  -2.431  1.00  0.00     0.002 C 
HETATM   20  C   UNL     1      38.498 -13.629  -1.830  1.00  0.00     0.025 C 
ENDBRANCH  12  15
ENDBRANCH   4  11
ENDBRANCH   1   4
BRANCH   1  21
HETATM   21  C   UNL     1      42.196 -12.574   2.592  1.00  0.00     0.166 C 
BRANCH  21  22
HETATM   22  C   UNL     1      42.761 -12.541   3.996  1.00  0.00    -0.037 A 
HETATM   23  C   UNL     1      43.810 -11.639   4.260  1.00  0.00     0.048 A 
HETATM   24  C   UNL     1      44.328 -11.583   5.536  1.00  0.00     0.105 A 
HETATM   25  C   UNL     1      43.847 -12.378   6.547  1.00  0.00     0.105 A 
HETATM   26  O   UNL     1      45.337 -10.770   5.948  1.00  0.00    -0.323 OA
HETATM   27  O   UNL     1      44.495 -12.170   7.724  1.00  0.00    -0.323 OA
HETATM   28  C   UNL     1      42.817 -13.266   6.337  1.00  0.00     0.040 A 
HETATM   29  C   UNL     1      45.440 -11.151   7.335  1.00  0.00     0.352 A 
HETATM   30  C   UNL     1      42.265 -13.339   5.053  1.00  0.00     0.012 A 
ENDBRANCH  21  22
ENDBRANCH   1  21
BRANCH   2  31
HETATM   31  C   UNL     1      41.703 -15.442   2.319  1.00  0.00     0.101 C 
HETATM   32  N   UNL     1      41.775 -16.672   2.935  1.00  0.00    -0.351 N 
HETATM   33  H   UNL     1      41.104 -16.990   3.622  1.00  0.00     0.166 HD
HETATM   34  C   UNL     1      42.933 -17.332   2.597  1.00  0.00     0.043 C 
HETATM   35  C   UNL     1      43.538 -16.562   1.618  1.00  0.00     0.033 C 
HETATM   36  C   UNL     1      42.760 -15.393   1.428  1.00  0.00     0.037 C 
BRANCH  34  37
HETATM   37  C   UNL     1      43.356 -18.575   3.246  1.00  0.00    -0.009 A 
HETATM   38  C   UNL     1      43.735 -18.602   4.596  1.00  0.00     0.013 A 
HETATM   39  C   UNL     1      44.188 -19.785   5.186  1.00  0.00     0.001 A 
HETATM   40  C   UNL     1      44.265 -20.957   4.435  1.00  0.00     0.000 A 
HETATM   41  C   UNL     1      43.880 -20.948   3.097  1.00  0.00     0.001 A 
HETATM   42  C   UNL     1      43.427 -19.765   2.507  1.00  0.00     0.013 A 
ENDBRANCH  34  37
ENDBRANCH   2  31
TORSDOF 8
ENDMDL
MODEL 6
REMARK VINA RESULT:      -9.1      2.441      8.784
REMARK  8 active torsions:
REMARK  status: ('A' for Active; 'I' for Inactive)
REMARK    1  A    between atoms: C_4  and  C_5 
REMARK    2  A    between atoms: C_5  and  N_6 
REMARK    3  A    between atoms: C_5  and  C_31 
REMARK       I    between atoms: N_6  and  C_7 
REMARK    4  A    between atoms: N_6  and  C_21 
REMARK    5  A    between atoms: C_7  and  C_8 
REMARK    6  A    between atoms: C_11  and  C_12 
REMARK    7  A    between atoms: C_21  and  C_22 
REMARK       I    between atoms: C_31  and  N_32 
REMARK    8  A    between atoms: N_32  and  C_33 
ROOT
HETATM    1  N   UNL     1      40.004 -11.224   6.142  1.00  0.00    -0.323 N 
HETATM    2  C   UNL     1      39.059 -10.675   7.010  1.00  0.00     0.271 C 
HETATM    3  O   UNL     1      37.865 -10.964   6.911  1.00  0.00    -0.266 OA
ENDROOT
BRANCH   1   4
HETATM    4  C   UNL     1      39.618 -12.343   5.247  1.00  0.00     0.237 C 
BRANCH   4   5
HETATM    5  C   UNL     1      39.555 -11.930   3.807  1.00  0.00     0.085 A 
HETATM    6  O   UNL     1      40.746 -11.590   3.225  1.00  0.00    -0.317 OA
HETATM    7  C   UNL     1      40.481 -11.225   1.941  1.00  0.00     0.049 A 
HETATM    8  C   UNL     1      41.633 -10.807   1.119  1.00  0.00     0.076 C 
HETATM    9  C   UNL     1      39.132 -11.327   1.687  1.00  0.00     0.035 A 
HETATM   10  C   UNL     1      38.534 -11.781   2.886  1.00  0.00     0.038 A 
ENDBRANCH   4   5
BRANCH   4  11
HETATM   11  C   UNL     1      40.434 -13.657   5.412  1.00  0.00     0.247 C 
HETATM   12  N   UNL     1      40.978 -14.181   4.253  1.00  0.00    -0.354 N 
HETATM   13  H   UNL     1      40.502 -13.898   3.399  1.00  0.00     0.162 HD
HETATM   14  O   UNL     1      40.528 -14.237   6.494  1.00  0.00    -0.271 OA
BRANCH  12  15
HETATM   15  C   UNL     1      41.665 -15.465   4.216  1.00  0.00     0.084 C 
HETATM   16  C   UNL     1      40.983 -16.430   3.236  1.00  0.00     0.025 C 
HETATM   17  C   UNL     1      41.202 -16.036   1.775  1.00  0.00     0.002 C 
HETATM   18  C   UNL     1      42.682 -15.861   1.451  1.00  0.00     0.000 C 
HETATM   19  C   UNL     1      43.358 -14.876   2.399  1.00  0.00     0.002 C 
HETATM   20  C   UNL     1      43.143 -15.263   3.861  1.00  0.00     0.025 C 
ENDBRANCH  12  15
ENDBRANCH   4  11
ENDBRANCH   1   4
BRANCH   1  21
HETATM   21  C   UNL     1      41.148 -10.433   5.684  1.00  0.00     0.166 C 
BRANCH  21  22
HETATM   22  C   UNL     1      42.439 -10.622   6.453  1.00  0.00    -0.037 A 
HETATM   23  C   UNL     1      42.909  -9.540   7.221  1.00  0.00     0.048 A 
HETATM   24  C   UNL     1      44.074  -9.698   7.941  1.00  0.00     0.105 A 
HETATM   25  C   UNL     1      44.778 -10.876   7.928  1.00  0.00     0.105 A 
HETATM   26  O   UNL     1      44.656  -8.752   8.727  1.00  0.00    -0.323 OA
HETATM   27  O   UNL     1      45.895 -10.822   8.701  1.00  0.00    -0.323 OA
HETATM   28  C   UNL     1      44.350 -11.963   7.201  1.00  0.00     0.040 A 
HETATM   29  C   UNL     1      45.813  -9.471   9.202  1.00  0.00     0.352 A 
HETATM   30  C   UNL     1      43.166 -11.835   6.465  1.00  0.00     0.012 A 
ENDBRANCH  21  22
ENDBRANCH   1  21
BRANCH   2  31
HETATM   31  C   UNL     1      39.471  -9.651   7.946  1.00  0.00     0.101 C 
HETATM   32  N   UNL     1      40.208  -9.969   9.065  1.00  0.00    -0.351 N 
HETATM   33  H   UNL     1      40.499 -10.912   9.290  1.00  0.00     0.166 HD
HETATM   34  C   UNL     1      40.368  -8.875   9.884  1.00  0.00     0.043 C 
HETATM   35  C   UNL     1      39.849  -7.798   9.186  1.00  0.00     0.033 C 
HETATM   36  C   UNL     1      39.308  -8.278   7.967  1.00  0.00     0.037 C 
BRANCH  34  37
HETATM   37  C   UNL     1      40.952  -8.967  11.224  1.00  0.00    -0.009 A 
HETATM   38  C   UNL     1      42.311  -8.702  11.448  1.00  0.00     0.013 A 
HETATM   39  C   UNL     1      42.865  -8.846  12.723  1.00  0.00     0.001 A 
HETATM   40  C   UNL     1      42.067  -9.255  13.790  1.00  0.00     0.000 A 
HETATM   41  C   UNL     1      40.714  -9.510  13.585  1.00  0.00     0.001 A 
HETATM   42  C   UNL     1      40.160  -9.365  12.310  1.00  0.00     0.013 A 
ENDBRANCH  34  37
ENDBRANCH   2  31
TORSDOF 8
ENDMDL
MODEL 7
REMARK VINA RESULT:      -9.1      2.189      8.342
REMARK  8 active torsions:
REMARK  status: ('A' for Active; 'I' for Inactive)
REMARK    1  A    between atoms: C_4  and  C_5 
REMARK    2  A    between atoms: C_5  and  N_6 
REMARK    3  A    between atoms: C_5  and  C_31 
REMARK       I    between atoms: N_6  and  C_7 
REMARK    4  A    between atoms: N_6  and  C_21 
REMARK    5  A    between atoms: C_7  and  C_8 
REMARK    6  A    between atoms: C_11  and  C_12 
REMARK    7  A    between atoms: C_21  and  C_22 
REMARK       I    between atoms: C_31  and  N_32 
REMARK    8  A    between atoms: N_32  and  C_33 
ROOT
HETATM    1  N   UNL     1      43.052 -11.816   6.344  1.00  0.00    -0.323 N 
HETATM    2  C   UNL     1      43.846 -11.359   7.397  1.00  0.00     0.271 C 
HETATM    3  O   UNL     1      44.839 -11.991   7.763  1.00  0.00    -0.266 OA
ENDROOT
BRANCH   1   4
HETATM    4  C   UNL     1      43.527 -12.940   5.499  1.00  0.00     0.237 C 
BRANCH   4   5
HETATM    5  C   UNL     1      43.082 -14.275   6.016  1.00  0.00     0.085 A 
HETATM    6  O   UNL     1      43.642 -15.370   5.417  1.00  0.00    -0.317 OA
HETATM    7  C   UNL     1      43.099 -16.474   6.000  1.00  0.00     0.049 A 
HETATM    8  C   UNL     1      43.559 -17.783   5.498  1.00  0.00     0.076 C 
HETATM    9  C   UNL     1      42.195 -16.102   6.969  1.00  0.00     0.035 A 
HETATM   10  C   UNL     1      42.182 -14.688   6.981  1.00  0.00     0.038 A 
ENDBRANCH   4   5
BRANCH   4  11
HETATM   11  C   UNL     1      43.241 -12.812   3.975  1.00  0.00     0.247 C 
HETATM   12  N   UNL     1      42.444 -13.799   3.424  1.00  0.00    -0.354 N 
HETATM   13  H   UNL     1      42.440 -14.675   3.943  1.00  0.00     0.162 HD
HETATM   14  O   UNL     1      43.751 -11.928   3.286  1.00  0.00    -0.271 OA
BRANCH  12  15
HETATM   15  C   UNL     1      42.181 -13.892   1.995  1.00  0.00     0.084 C 
HETATM   16  C   UNL     1      42.432 -15.315   1.476  1.00  0.00     0.025 C 
HETATM   17  C   UNL     1      41.371 -16.309   1.948  1.00  0.00     0.002 C 
HETATM   18  C   UNL     1      39.960 -15.833   1.614  1.00  0.00     0.000 C 
HETATM   19  C   UNL     1      39.691 -14.433   2.157  1.00  0.00     0.002 C 
HETATM   20  C   UNL     1      40.749 -13.434   1.690  1.00  0.00     0.025 C 
ENDBRANCH  12  15
ENDBRANCH   4  11
ENDBRANCH   1   4
BRANCH   1  21
HETATM   21  C   UNL     1      41.599 -11.632   6.368  1.00  0.00     0.166 C 
BRANCH  21  22
HETATM   22  C   UNL     1      41.012 -10.830   5.225  1.00  0.00    -0.037 A 
HETATM   23  C   UNL     1      39.863 -11.338   4.590  1.00  0.00     0.048 A 
HETATM   24  C   UNL     1      39.304 -10.615   3.558  1.00  0.00     0.105 A 
HETATM   25  C   UNL     1      39.838  -9.420   3.140  1.00  0.00     0.105 A 
HETATM   26  O   UNL     1      38.200 -10.969   2.847  1.00  0.00    -0.323 OA
HETATM   27  O   UNL     1      39.139  -8.871   2.112  1.00  0.00    -0.323 OA
HETATM   28  C   UNL     1      40.954  -8.881   3.739  1.00  0.00     0.040 A 
HETATM   29  C   UNL     1      38.105  -9.861   1.929  1.00  0.00     0.352 A 
HETATM   30  C   UNL     1      41.538  -9.590   4.796  1.00  0.00     0.012 A 
ENDBRANCH  21  22
ENDBRANCH   1  21
BRANCH   2  31
HETATM   31  C   UNL     1      43.418 -10.201   8.152  1.00  0.00     0.101 C 
HETATM   32  N   UNL     1      43.368 -10.232   9.529  1.00  0.00    -0.351 N 
HETATM   33  H   UNL     1      43.622 -11.044  10.077  1.00  0.00     0.166 HD
HETATM   34  C   UNL     1      42.803  -9.083  10.032  1.00  0.00     0.043 C 
HETATM   35  C   UNL     1      42.634  -8.236   8.950  1.00  0.00     0.033 C 
HETATM   36  C   UNL     1      43.038  -8.926   7.779  1.00  0.00     0.037 C 
BRANCH  34  37
HETATM   37  C   UNL     1      42.459  -8.923  11.447  1.00  0.00    -0.009 A 
HETATM   38  C   UNL     1      43.179  -8.053  12.279  1.00  0.00     0.013 A 
HETATM   39  C   UNL     1      42.875  -7.952  13.639  1.00  0.00     0.001 A 
HETATM   40  C   UNL     1      41.845  -8.716  14.184  1.00  0.00     0.000 A 
HETATM   41  C   UNL     1      41.114  -9.575  13.367  1.00  0.00     0.001 A 
HETATM   42  C   UNL     1      41.418  -9.676  12.007  1.00  0.00     0.013 A 
ENDBRANCH  34  37
ENDBRANCH   2  31
TORSDOF 8
ENDMDL
MODEL 8
REMARK VINA RESULT:      -9.0      3.629      8.515
REMARK  8 active torsions:
REMARK  status: ('A' for Active; 'I' for Inactive)
REMARK    1  A    between atoms: C_4  and  C_5 
REMARK    2  A    between atoms: C_5  and  N_6 
REMARK    3  A    between atoms: C_5  and  C_31 
REMARK       I    between atoms: N_6  and  C_7 
REMARK    4  A    between atoms: N_6  and  C_21 
REMARK    5  A    between atoms: C_7  and  C_8 
REMARK    6  A    between atoms: C_11  and  C_12 
REMARK    7  A    between atoms: C_21  and  C_22 
REMARK       I    between atoms: C_31  and  N_32 
REMARK    8  A    between atoms: N_32  and  C_33 
ROOT
HETATM    1  N   UNL     1      40.996 -12.276   2.525  1.00  0.00    -0.323 N 
HETATM    2  C   UNL     1      40.123 -11.798   1.547  1.00  0.00     0.271 C 
HETATM    3  O   UNL     1      39.347 -12.557   0.965  1.00  0.00    -0.266 OA
ENDROOT
BRANCH   1   4
HETATM    4  C   UNL     1      40.835 -13.657   3.044  1.00  0.00     0.237 C 
BRANCH   4   5
HETATM    5  C   UNL     1      41.831 -14.611   2.457  1.00  0.00     0.085 A 
HETATM    6  O   UNL     1      41.658 -15.932   2.771  1.00  0.00    -0.317 OA
HETATM    7  C   UNL     1      42.664 -16.627   2.172  1.00  0.00     0.049 A 
HETATM    8  C   UNL     1      42.678 -18.087   2.384  1.00  0.00     0.076 C 
HETATM    9  C   UNL     1      43.483 -15.769   1.474  1.00  0.00     0.035 A 
HETATM   10  C   UNL     1      42.949 -14.472   1.656  1.00  0.00     0.038 A 
ENDBRANCH   4   5
BRANCH   4  11
HETATM   11  C   UNL     1      40.778 -13.799   4.592  1.00  0.00     0.247 C 
HETATM   12  N   UNL     1      41.812 -14.509   5.174  1.00  0.00    -0.354 N 
HETATM   13  H   UNL     1      42.275 -15.166   4.548  1.00  0.00     0.162 HD
HETATM   14  O   UNL     1      39.832 -13.368   5.254  1.00  0.00    -0.271 OA
BRANCH  12  15
HETATM   15  C   UNL     1      41.844 -14.835   6.593  1.00  0.00     0.084 C 
HETATM   16  C   UNL     1      41.557 -16.325   6.827  1.00  0.00     0.025 C 
HETATM   17  C   UNL     1      42.713 -17.222   6.382  1.00  0.00     0.002 C 
HETATM   18  C   UNL     1      44.035 -16.800   7.015  1.00  0.00     0.000 C 
HETATM   19  C   UNL     1      44.343 -15.329   6.757  1.00  0.00     0.002 C 
HETATM   20  C   UNL     1      43.192 -14.426   7.199  1.00  0.00     0.025 C 
ENDBRANCH  12  15
ENDBRANCH   4  11
ENDBRANCH   1   4
BRANCH   1  21
HETATM   21  C   UNL     1      42.344 -11.718   2.663  1.00  0.00     0.166 C 
BRANCH  21  22
HETATM   22  C   UNL     1      42.744 -11.283   4.057  1.00  0.00    -0.037 A 
HETATM   23  C   UNL     1      43.982 -11.733   4.555  1.00  0.00     0.048 A 
HETATM   24  C   UNL     1      44.371 -11.335   5.817  1.00  0.00     0.105 A 
HETATM   25  C   UNL     1      43.586 -10.515   6.590  1.00  0.00     0.105 A 
HETATM   26  O   UNL     1      45.530 -11.682   6.436  1.00  0.00    -0.323 OA
HETATM   27  O   UNL     1      44.150 -10.245   7.797  1.00  0.00    -0.323 OA
HETATM   28  C   UNL     1      42.374 -10.043   6.140  1.00  0.00     0.040 A 
HETATM   29  C   UNL     1      45.381 -10.991   7.693  1.00  0.00     0.352 A 
HETATM   30  C   UNL     1      41.957 -10.425   4.859  1.00  0.00     0.012 A 
ENDBRANCH  21  22
ENDBRANCH   1  21
BRANCH   2  31
HETATM   31  C   UNL     1      40.230 -10.419   1.119  1.00  0.00     0.101 C 
HETATM   32  N   UNL     1      40.755 -10.098  -0.113  1.00  0.00    -0.351 N 
HETATM   33  H   UNL     1      41.086 -10.789  -0.774  1.00  0.00     0.166 HD
HETATM   34  C   UNL     1      40.892  -8.737  -0.257  1.00  0.00     0.043 C 
HETATM   35  C   UNL     1      40.293  -8.174   0.857  1.00  0.00     0.033 C 
HETATM   36  C   UNL     1      39.860  -9.224   1.707  1.00  0.00     0.037 C 
BRANCH  34  37
HETATM   37  C   UNL     1      41.591  -8.126  -1.389  1.00  0.00    -0.009 A 
HETATM   38  C   UNL     1      41.155  -8.323  -2.708  1.00  0.00     0.013 A 
HETATM   39  C   UNL     1      41.863  -7.778  -3.782  1.00  0.00     0.001 A 
HETATM   40  C   UNL     1      43.015  -7.028  -3.553  1.00  0.00     0.000 A 
HETATM   41  C   UNL     1      43.453  -6.814  -2.248  1.00  0.00     0.001 A 
HETATM   42  C   UNL     1      42.744  -7.358  -1.174  1.00  0.00     0.013 A 
ENDBRANCH  34  37
ENDBRANCH   2  31
TORSDOF 8
ENDMDL
MODEL 9
REMARK VINA RESULT:      -8.8      2.126      8.564
REMARK  8 active torsions:
REMARK  status: ('A' for Active; 'I' for Inactive)
REMARK    1  A    between atoms: C_4  and  C_5 
REMARK    2  A    between atoms: C_5  and  N_6 
REMARK    3  A    between atoms: C_5  and  C_31 
REMARK       I    between atoms: N_6  and  C_7 
REMARK    4  A    between atoms: N_6  and  C_21 
REMARK    5  A    between atoms: C_7  and  C_8 
REMARK    6  A    between atoms: C_11  and  C_12 
REMARK    7  A    between atoms: C_21  and  C_22 
REMARK       I    between atoms: C_31  and  N_32 
REMARK    8  A    between atoms: N_32  and  C_33 
ROOT
HETATM    1  N   UNL     1      43.488 -11.171   6.739  1.00  0.00    -0.323 N 
HETATM    2  C   UNL     1      44.453 -10.722   7.642  1.00  0.00     0.271 C 
HETATM    3  O   UNL     1      45.553 -11.273   7.720  1.00  0.00    -0.266 OA
ENDROOT
BRANCH   1   4
HETATM    4  C   UNL     1      43.859 -12.162   5.698  1.00  0.00     0.237 C 
BRANCH   4   5
HETATM    5  C   UNL     1      43.324 -13.531   5.992  1.00  0.00     0.085 A 
HETATM    6  O   UNL     1      42.778 -14.205   4.934  1.00  0.00    -0.317 OA
HETATM    7  C   UNL     1      42.331 -15.403   5.403  1.00  0.00     0.049 A 
HETATM    8  C   UNL     1      41.690 -16.301   4.422  1.00  0.00     0.076 C 
HETATM    9  C   UNL     1      42.583 -15.509   6.751  1.00  0.00     0.035 A 
HETATM   10  C   UNL     1      43.223 -14.306   7.133  1.00  0.00     0.038 A 
ENDBRANCH   4   5
BRANCH   4  11
HETATM   11  C   UNL     1      43.553 -11.752   4.229  1.00  0.00     0.247 C 
HETATM   12  N   UNL     1      42.215 -11.679   3.888  1.00  0.00    -0.354 N 
HETATM   13  H   UNL     1      41.600 -12.242   4.472  1.00  0.00     0.162 HD
HETATM   14  O   UNL     1      44.446 -11.573   3.400  1.00  0.00    -0.271 OA
BRANCH  12  15
HETATM   15  C   UNL     1      41.762 -11.427   2.527  1.00  0.00     0.084 C 
HETATM   16  C   UNL     1      41.373 -12.733   1.821  1.00  0.00     0.025 C 
HETATM   17  C   UNL     1      40.075 -13.331   2.364  1.00  0.00     0.002 C 
HETATM   18  C   UNL     1      38.933 -12.321   2.341  1.00  0.00     0.000 C 
HETATM   19  C   UNL     1      39.299 -11.033   3.071  1.00  0.00     0.002 C 
HETATM   20  C   UNL     1      40.596 -10.430   2.533  1.00  0.00     0.025 C 
ENDBRANCH  12  15
ENDBRANCH   4  11
ENDBRANCH   1   4
BRANCH   1  21
HETATM   21  C   UNL     1      42.066 -11.147   7.090  1.00  0.00     0.166 C 
BRANCH  21  22
HETATM   22  C   UNL     1      41.351  -9.829   6.876  1.00  0.00    -0.037 A 
HETATM   23  C   UNL     1      40.328  -9.484   7.779  1.00  0.00     0.048 A 
HETATM   24  C   UNL     1      39.675  -8.281   7.610  1.00  0.00     0.105 A 
HETATM   25  C   UNL     1      40.000  -7.419   6.592  1.00  0.00     0.105 A 
HETATM   26  O   UNL     1      38.670  -7.807   8.394  1.00  0.00    -0.323 OA
HETATM   27  O   UNL     1      39.238  -6.294   6.602  1.00  0.00    -0.323 OA
HETATM   28  C   UNL     1      41.000  -7.711   5.692  1.00  0.00     0.040 A 
HETATM   29  C   UNL     1      38.395  -6.548   7.746  1.00  0.00     0.352 A 
HETATM   30  C   UNL     1      41.685  -8.922   5.844  1.00  0.00     0.012 A 
ENDBRANCH  21  22
ENDBRANCH   1  21
BRANCH   2  31
HETATM   31  C   UNL     1      44.105  -9.685   8.589  1.00  0.00     0.101 C 
HETATM   32  N   UNL     1      43.683 -10.000   9.862  1.00  0.00    -0.351 N 
HETATM   33  H   UNL     1      43.597 -10.950  10.201  1.00  0.00     0.166 HD
HETATM   34  C   UNL     1      43.272  -8.878  10.543  1.00  0.00     0.043 C 
HETATM   35  C   UNL     1      43.589  -7.802   9.730  1.00  0.00     0.033 C 
HETATM   36  C   UNL     1      44.128  -8.304   8.519  1.00  0.00     0.037 C 
BRANCH  34  37
HETATM   37  C   UNL     1      42.607  -8.940  11.846  1.00  0.00    -0.009 A 
HETATM   38  C   UNL     1      41.444  -9.701  12.036  1.00  0.00     0.013 A 
HETATM   39  C   UNL     1      40.790  -9.708  13.271  1.00  0.00     0.001 A 
HETATM   40  C   UNL     1      41.290  -8.955  14.332  1.00  0.00     0.000 A 
HETATM   41  C   UNL     1      42.451  -8.204  14.161  1.00  0.00     0.001 A 
HETATM   42  C   UNL     1      43.105  -8.199  12.926  1.00  0.00     0.013 A 
ENDBRANCH  34  37
ENDBRANCH   2  31
TORSDOF 8
ENDMDL
MODEL 10
REMARK VINA RESULT:      -8.8      2.157      8.707
REMARK  8 active torsions:
REMARK  status: ('A' for Active; 'I' for Inactive)
REMARK    1  A    between atoms: C_4  and  C_5 
REMARK    2  A    between atoms: C_5  and  N_6 
REMARK    3  A    between atoms: C_5  and  C_31 
REMARK       I    between atoms: N_6  and  C_7 
REMARK    4  A    between atoms: N_6  and  C_21 
REMARK    5  A    between atoms: C_7  and  C_8 
REMARK    6  A    between atoms: C_11  and  C_12 
REMARK    7  A    between atoms: C_21  and  C_22 
REMARK       I    between atoms: C_31  and  N_32 
REMARK    8  A    between atoms: N_32  and  C_33 
ROOT
HETATM    1  N   UNL     1      40.543 -10.852   6.522  1.00  0.00    -0.323 N 
HETATM    2  C   UNL     1      39.482 -10.548   7.376  1.00  0.00     0.271 C 
HETATM    3  O   UNL     1      38.376 -11.070   7.224  1.00  0.00    -0.266 OA
ENDROOT
BRANCH   1   4
HETATM    4  C   UNL     1      40.420 -11.983   5.569  1.00  0.00     0.237 C 
BRANCH   4   5
HETATM    5  C   UNL     1      41.433 -11.918   4.466  1.00  0.00     0.085 A 
HETATM    6  O   UNL     1      41.797 -13.114   3.911  1.00  0.00    -0.317 OA
HETATM    7  C   UNL     1      42.732 -12.851   2.957  1.00  0.00     0.049 A 
HETATM    8  C   UNL     1      43.278 -14.011   2.226  1.00  0.00     0.076 C 
HETATM    9  C   UNL     1      42.974 -11.498   2.891  1.00  0.00     0.035 A 
HETATM   10  C   UNL     1      42.139 -10.896   3.860  1.00  0.00     0.038 A 
ENDBRANCH   4   5
BRANCH   4  11
HETATM   11  C   UNL     1      40.381 -13.404   6.203  1.00  0.00     0.247 C 
HETATM   12  N   UNL     1      41.607 -13.959   6.518  1.00  0.00    -0.354 N 
HETATM   13  H   UNL     1      42.389 -13.584   5.984  1.00  0.00     0.162 HD
HETATM   14  O   UNL     1      39.328 -14.026   6.348  1.00  0.00    -0.271 OA
BRANCH  12  15
HETATM   15  C   UNL     1      41.752 -15.324   7.004  1.00  0.00     0.084 C 
HETATM   16  C   UNL     1      41.526 -16.341   5.877  1.00  0.00     0.025 C 
HETATM   17  C   UNL     1      42.671 -16.360   4.863  1.00  0.00     0.002 C 
HETATM   18  C   UNL     1      44.023 -16.564   5.540  1.00  0.00     0.000 C 
HETATM   19  C   UNL     1      44.270 -15.535   6.638  1.00  0.00     0.002 C 
HETATM   20  C   UNL     1      43.129 -15.511   7.654  1.00  0.00     0.025 C 
ENDBRANCH  12  15
ENDBRANCH   4  11
ENDBRANCH   1   4
BRANCH   1  21
HETATM   21  C   UNL     1      41.512  -9.823   6.136  1.00  0.00     0.166 C 
BRANCH  21  22
HETATM   22  C   UNL     1      42.548  -9.461   7.179  1.00  0.00    -0.037 A 
HETATM   23  C   UNL     1      43.303 -10.506   7.744  1.00  0.00     0.048 A 
HETATM   24  C   UNL     1      44.262 -10.196   8.684  1.00  0.00     0.105 A 
HETATM   25  C   UNL     1      44.497  -8.901   9.077  1.00  0.00     0.105 A 
HETATM   26  O   UNL     1      45.069 -11.088   9.319  1.00  0.00    -0.323 OA
HETATM   27  O   UNL     1      45.479  -8.813  10.012  1.00  0.00    -0.323 OA
HETATM   28  C   UNL     1      43.791  -7.847   8.544  1.00  0.00     0.040 A 
HETATM   29  C   UNL     1      45.835 -10.203  10.163  1.00  0.00     0.352 A 
HETATM   30  C   UNL     1      42.815  -8.132   7.581  1.00  0.00     0.012 A 
ENDBRANCH  21  22
ENDBRANCH   1  21
BRANCH   2  31
HETATM   31  C   UNL     1      39.649  -9.506   8.366  1.00  0.00     0.101 C 
HETATM   32  N   UNL     1      40.442  -9.702   9.475  1.00  0.00    -0.351 N 
HETATM   33  H   UNL     1      40.942 -10.563   9.656  1.00  0.00     0.166 HD
HETATM   34  C   UNL     1      40.348  -8.644  10.349  1.00  0.00     0.043 C 
HETATM   35  C   UNL     1      39.594  -7.681   9.700  1.00  0.00     0.033 C 
HETATM   36  C   UNL     1      39.175  -8.210   8.453  1.00  0.00     0.037 C 
BRANCH  34  37
HETATM   37  C   UNL     1      40.938  -8.667  11.689  1.00  0.00    -0.009 A 
HETATM   38  C   UNL     1      42.280  -8.318  11.901  1.00  0.00     0.013 A 
HETATM   39  C   UNL     1      42.845  -8.397  13.177  1.00  0.00     0.001 A 
HETATM   40  C   UNL     1      42.075  -8.824  14.257  1.00  0.00     0.000 A 
HETATM   41  C   UNL     1      40.738  -9.163  14.064  1.00  0.00     0.001 A 
HETATM   42  C   UNL     1      40.174  -9.082  12.788  1.00  0.00     0.013 A 
ENDBRANCH  34  37
ENDBRANCH   2  31
TORSDOF 8
ENDMDL
