MODEL 1
REMARK VINA RESULT:      -9.0      0.000      0.000
REMARK  6 active torsions:
REMARK  status: ('A' for Active; 'I' for Inactive)
REMARK    1  A    between atoms: O_2  and  C_3 
REMARK    2  A    between atoms: C_6  and  C_7 
REMARK    3  A    between atoms: C_7  and  N_8 
REMARK       I    between atoms: N_8  and  C_9 
REMARK    4  A    between atoms: C_9  and  C_10 
REMARK    5  A    between atoms: C_10  and  O_11 
REMARK    6  A    between atoms: N_12  and  C_13 
ROOT
HETATM    1  C   UNL     1      42.803 -14.083   4.309  1.00  0.00     0.256 C 
HETATM    2  N   UNL     1      42.814 -15.431   4.891  1.00  0.00    -0.254 N 
HETATM    3  C   UNL     1      42.345 -15.538   6.204  1.00  0.00     0.330 C 
HETATM    4  O   UNL     1      41.959 -16.565   6.761  1.00  0.00    -0.246 OA
HETATM    5  N   UNL     1      42.442 -14.399   6.976  1.00  0.00    -0.308 N 
HETATM    6  C   UNL     1      43.163 -13.266   6.599  1.00  0.00     0.048 A 
HETATM    7  C   UNL     1      43.477 -13.109   5.250  1.00  0.00     0.034 A 
HETATM    8  C   UNL     1      43.591 -12.343   7.549  1.00  0.00     0.030 A 
HETATM    9  C   UNL     1      44.386 -11.269   7.147  1.00  0.00     0.002 A 
HETATM   10  C   UNL     1      44.740 -11.122   5.806  1.00  0.00     0.001 A 
HETATM   11  C   UNL     1      44.284 -12.036   4.853  1.00  0.00     0.015 A 
HETATM   12  H   UNL     1      42.212 -14.548   7.951  1.00  0.00     0.170 HD
ENDROOT
BRANCH   1  13
HETATM   13  C   UNL     1      41.285 -13.674   4.032  1.00  0.00     0.279 C 
HETATM   14  N   UNL     1      41.032 -12.988   2.859  1.00  0.00    -0.352 N 
HETATM   15  H   UNL     1      41.771 -12.867   2.177  1.00  0.00     0.162 HD
HETATM   16  O   UNL     1      40.363 -14.035   4.768  1.00  0.00    -0.268 OA
BRANCH  14  17
HETATM   17  C   UNL     1      39.696 -12.601   2.472  1.00  0.00     0.161 C 
BRANCH  17  18
HETATM   18  C   UNL     1      39.473 -12.804   0.995  1.00  0.00    -0.040 A 
HETATM   19  C   UNL     1      40.033 -13.901   0.330  1.00  0.00     0.011 A 
HETATM   20  C   UNL     1      39.783 -14.106  -1.030  1.00  0.00     0.037 A 
HETATM   21  C   UNL     1      38.965 -13.230  -1.746  1.00  0.00     0.068 A 
HETATM   22  C   UNL     1      38.410 -12.131  -1.094  1.00  0.00     0.037 A 
HETATM   23  C   UNL     1      38.658 -11.922   0.268  1.00  0.00     0.011 A 
BRANCH  21  24
HETATM   24  O   UNL     1      38.791 -13.555  -3.064  1.00  0.00    -0.356 OA
HETATM   25  C   UNL     1      38.287 -14.856  -3.341  1.00  0.00     0.210 C 
ENDBRANCH  21  24
ENDBRANCH  17  18
ENDBRANCH  14  17
ENDBRANCH   1  13
BRANCH   1  26
HETATM   26  O   UNL     1      43.439 -14.023   3.029  1.00  0.00    -0.359 OA
HETATM   27  H   UNL     1      44.047 -13.264   3.097  1.00  0.00     0.213 HD
ENDBRANCH   1  26
BRANCH   2  28
HETATM   28  C   UNL     1      43.064 -16.597   4.108  1.00  0.00     0.043 A 
HETATM   29  C   UNL     1      42.259 -16.928   3.009  1.00  0.00     0.031 A 
HETATM   30  C   UNL     1      42.480 -18.106   2.284  1.00  0.00     0.026 A 
HETATM   31  C   UNL     1      43.503 -18.969   2.660  1.00  0.00     0.034 A 
HETATM   32 CL   UNL     1      43.770 -20.422   1.779  1.00  0.00    -0.084 Cl
HETATM   33  C   UNL     1      44.308 -18.665   3.754  1.00  0.00     0.026 A 
HETATM   34  C   UNL     1      44.084 -17.488   4.476  1.00  0.00     0.031 A 
ENDBRANCH   2  28
TORSDOF 6
ENDMDL
MODEL 2
REMARK VINA RESULT:      -8.9      4.149      7.224
REMARK  6 active torsions:
REMARK  status: ('A' for Active; 'I' for Inactive)
REMARK    1  A    between atoms: O_2  and  C_3 
REMARK    2  A    between atoms: C_6  and  C_7 
REMARK    3  A    between atoms: C_7  and  N_8 
REMARK       I    between atoms: N_8  and  C_9 
REMARK    4  A    between atoms: C_9  and  C_10 
REMARK    5  A    between atoms: C_10  and  O_11 
REMARK    6  A    between atoms: N_12  and  C_13 
ROOT
HETATM    1  C   UNL     1      42.552 -13.809   5.216  1.00  0.00     0.256 C 
HETATM    2  N   UNL     1      43.354 -12.609   4.948  1.00  0.00    -0.254 N 
HETATM    3  C   UNL     1      43.374 -12.166   3.621  1.00  0.00     0.330 C 
HETATM    4  O   UNL     1      43.685 -11.042   3.231  1.00  0.00    -0.246 OA
HETATM    5  N   UNL     1      43.136 -13.126   2.660  1.00  0.00    -0.308 N 
HETATM    6  C   UNL     1      43.107 -14.495   2.923  1.00  0.00     0.048 A 
HETATM    7  C   UNL     1      42.922 -14.905   4.242  1.00  0.00     0.034 A 
HETATM    8  C   UNL     1      43.298 -15.423   1.901  1.00  0.00     0.030 A 
HETATM    9  C   UNL     1      43.350 -16.782   2.216  1.00  0.00     0.002 A 
HETATM   10  C   UNL     1      43.207 -17.202   3.538  1.00  0.00     0.001 A 
HETATM   11  C   UNL     1      42.987 -16.269   4.553  1.00  0.00     0.015 A 
HETATM   12  H   UNL     1      43.285 -12.798   1.713  1.00  0.00     0.170 HD
ENDROOT
BRANCH   1  13
HETATM   13  C   UNL     1      41.010 -13.415   5.094  1.00  0.00     0.279 C 
HETATM   14  N   UNL     1      40.451 -12.755   6.172  1.00  0.00    -0.352 N 
HETATM   15  H   UNL     1      41.041 -12.450   6.937  1.00  0.00     0.162 HD
HETATM   16  O   UNL     1      40.367 -13.591   4.056  1.00  0.00    -0.268 OA
BRANCH  14  17
HETATM   17  C   UNL     1      39.079 -12.305   6.166  1.00  0.00     0.161 C 
BRANCH  17  18
HETATM   18  C   UNL     1      38.994 -10.806   6.303  1.00  0.00    -0.040 A 
HETATM   19  C   UNL     1      39.471 -10.163   7.452  1.00  0.00     0.011 A 
HETATM   20  C   UNL     1      39.430  -8.770   7.550  1.00  0.00     0.037 A 
HETATM   21  C   UNL     1      38.926  -7.994   6.505  1.00  0.00     0.068 A 
HETATM   22  C   UNL     1      38.442  -8.625   5.361  1.00  0.00     0.037 A 
HETATM   23  C   UNL     1      38.481 -10.021   5.259  1.00  0.00     0.011 A 
BRANCH  21  24
HETATM   24  O   UNL     1      38.959  -6.644   6.724  1.00  0.00    -0.356 OA
HETATM   25  C   UNL     1      38.430  -6.183   7.961  1.00  0.00     0.210 C 
ENDBRANCH  21  24
ENDBRANCH  17  18
ENDBRANCH  14  17
ENDBRANCH   1  13
BRANCH   1  26
HETATM   26  O   UNL     1      42.702 -14.293   6.554  1.00  0.00    -0.359 OA
HETATM   27  H   UNL     1      41.835 -14.131   6.968  1.00  0.00     0.213 HD
ENDBRANCH   1  26
BRANCH   2  28
HETATM   28  C   UNL     1      43.891 -11.802   5.995  1.00  0.00     0.043 A 
HETATM   29  C   UNL     1      43.108 -10.852   6.664  1.00  0.00     0.031 A 
HETATM   30  C   UNL     1      43.664 -10.027   7.650  1.00  0.00     0.026 A 
HETATM   31  C   UNL     1      45.013 -10.139   7.968  1.00  0.00     0.034 A 
HETATM   32 CL   UNL     1      45.701  -9.120   9.170  1.00  0.00    -0.084 Cl
HETATM   33  C   UNL     1      45.811 -11.069   7.308  1.00  0.00     0.026 A 
HETATM   34  C   UNL     1      45.252 -11.890   6.324  1.00  0.00     0.031 A 
ENDBRANCH   2  28
TORSDOF 6
ENDMDL
MODEL 3
REMARK VINA RESULT:      -8.9      3.480      6.236
REMARK  6 active torsions:
REMARK  status: ('A' for Active; 'I' for Inactive)
REMARK    1  A    between atoms: O_2  and  C_3 
REMARK    2  A    between atoms: C_6  and  C_7 
REMARK    3  A    between atoms: C_7  and  N_8 
REMARK       I    between atoms: N_8  and  C_9 
REMARK    4  A    between atoms: C_9  and  C_10 
REMARK    5  A    between atoms: C_10  and  O_11 
REMARK    6  A    between atoms: N_12  and  C_13 
ROOT
HETATM    1  C   UNL     1      43.190 -11.713   6.605  1.00  0.00     0.256 C 
HETATM    2  N   UNL     1      43.589 -11.395   5.228  1.00  0.00    -0.254 N 
HETATM    3  C   UNL     1      44.964 -11.348   4.981  1.00  0.00     0.330 C 
HETATM    4  O   UNL     1      45.513 -11.431   3.884  1.00  0.00    -0.246 OA
HETATM    5  N   UNL     1      45.764 -11.060   6.068  1.00  0.00    -0.308 N 
HETATM    6  C   UNL     1      45.274 -10.607   7.293  1.00  0.00     0.048 A 
HETATM    7  C   UNL     1      43.925 -10.816   7.576  1.00  0.00     0.034 A 
HETATM    8  C   UNL     1      46.100  -9.931   8.187  1.00  0.00     0.030 A 
HETATM    9  C   UNL     1      45.554  -9.415   9.363  1.00  0.00     0.002 A 
HETATM   10  C   UNL     1      44.197  -9.582   9.639  1.00  0.00     0.001 A 
HETATM   11  C   UNL     1      43.380 -10.286   8.752  1.00  0.00     0.015 A 
HETATM   12  H   UNL     1      46.737 -10.908   5.828  1.00  0.00     0.170 HD
ENDROOT
BRANCH   1  13
HETATM   13  C   UNL     1      43.512 -13.253   6.873  1.00  0.00     0.279 C 
HETATM   14  N   UNL     1      42.429 -14.086   7.083  1.00  0.00    -0.352 N 
HETATM   15  H   UNL     1      41.489 -13.732   6.954  1.00  0.00     0.162 HD
HETATM   16  O   UNL     1      44.657 -13.707   6.797  1.00  0.00    -0.268 OA
BRANCH  14  17
HETATM   17  C   UNL     1      42.586 -15.506   7.291  1.00  0.00     0.161 C 
BRANCH  17  18
HETATM   18  C   UNL     1      42.745 -16.237   5.982  1.00  0.00    -0.040 A 
HETATM   19  C   UNL     1      41.869 -15.997   4.917  1.00  0.00     0.011 A 
HETATM   20  C   UNL     1      42.052 -16.644   3.692  1.00  0.00     0.037 A 
HETATM   21  C   UNL     1      43.114 -17.531   3.503  1.00  0.00     0.068 A 
HETATM   22  C   UNL     1      43.986 -17.782   4.561  1.00  0.00     0.037 A 
HETATM   23  C   UNL     1      43.806 -17.135   5.790  1.00  0.00     0.011 A 
BRANCH  21  24
HETATM   24  O   UNL     1      43.186 -18.083   2.254  1.00  0.00    -0.356 OA
HETATM   25  C   UNL     1      43.293 -19.499   2.185  1.00  0.00     0.210 C 
ENDBRANCH  21  24
ENDBRANCH  17  18
ENDBRANCH  14  17
ENDBRANCH   1  13
BRANCH   1  26
HETATM   26  O   UNL     1      41.781 -11.590   6.820  1.00  0.00    -0.359 OA
HETATM   27  H   UNL     1      41.655 -10.655   7.068  1.00  0.00     0.213 HD
ENDBRANCH   1  26
BRANCH   2  28
HETATM   28  C   UNL     1      42.652 -11.364   4.152  1.00  0.00     0.043 A 
HETATM   29  C   UNL     1      42.012 -10.177   3.771  1.00  0.00     0.031 A 
HETATM   30  C   UNL     1      41.053 -10.173   2.751  1.00  0.00     0.026 A 
HETATM   31  C   UNL     1      40.717 -11.360   2.110  1.00  0.00     0.034 A 
HETATM   32 CL   UNL     1      39.530 -11.360   0.865  1.00  0.00    -0.084 Cl
HETATM   33  C   UNL     1      41.333 -12.552   2.480  1.00  0.00     0.026 A 
HETATM   34  C   UNL     1      42.290 -12.552   3.499  1.00  0.00     0.031 A 
ENDBRANCH   2  28
TORSDOF 6
ENDMDL
MODEL 4
REMARK VINA RESULT:      -8.9      2.915      6.302
REMARK  6 active torsions:
REMARK  status: ('A' for Active; 'I' for Inactive)
REMARK    1  A    between atoms: O_2  and  C_3 
REMARK    2  A    between atoms: C_6  and  C_7 
REMARK    3  A    between atoms: C_7  and  N_8 
REMARK       I    between atoms: N_8  and  C_9 
REMARK    4  A    between atoms: C_9  and  C_10 
REMARK    5  A    between atoms: C_10  and  O_11 
REMARK    6  A    between atoms: N_12  and  C_13 
ROOT
HETATM    1  C   UNL     1      40.585 -12.387   3.682  1.00  0.00     0.256 C 
HETATM    2  N   UNL     1      40.764 -11.864   2.321  1.00  0.00    -0.254 N 
HETATM    3  C   UNL     1      41.579 -10.733   2.199  1.00  0.00     0.330 C 
HETATM    4  O   UNL     1      42.126 -10.334   1.172  1.00  0.00    -0.246 OA
HETATM    5  N   UNL     1      41.673  -9.932   3.318  1.00  0.00    -0.308 N 
HETATM    6  C   UNL     1      40.851 -10.064   4.437  1.00  0.00     0.048 A 
HETATM    7  C   UNL     1      40.175 -11.270   4.614  1.00  0.00     0.034 A 
HETATM    8  C   UNL     1      40.681  -9.006   5.326  1.00  0.00     0.030 A 
HETATM    9  C   UNL     1      39.782  -9.144   6.385  1.00  0.00     0.002 A 
HETATM   10  C   UNL     1      39.069 -10.331   6.551  1.00  0.00     0.001 A 
HETATM   11  C   UNL     1      39.266 -11.398   5.672  1.00  0.00     0.015 A 
HETATM   12  H   UNL     1      42.165  -9.062   3.154  1.00  0.00     0.170 HD
ENDROOT
BRANCH   1  13
HETATM   13  C   UNL     1      41.959 -13.058   4.141  1.00  0.00     0.279 C 
HETATM   14  N   UNL     1      41.868 -14.274   4.793  1.00  0.00    -0.352 N 
HETATM   15  H   UNL     1      40.973 -14.743   4.860  1.00  0.00     0.162 HD
HETATM   16  O   UNL     1      43.056 -12.578   3.843  1.00  0.00    -0.268 OA
BRANCH  14  17
HETATM   17  C   UNL     1      43.039 -15.002   5.218  1.00  0.00     0.161 C 
BRANCH  17  18
HETATM   18  C   UNL     1      43.253 -16.234   4.376  1.00  0.00    -0.040 A 
HETATM   19  C   UNL     1      43.979 -17.324   4.871  1.00  0.00     0.011 A 
HETATM   20  C   UNL     1      44.132 -18.480   4.100  1.00  0.00     0.037 A 
HETATM   21  C   UNL     1      43.557 -18.575   2.831  1.00  0.00     0.068 A 
HETATM   22  C   UNL     1      42.839 -17.492   2.327  1.00  0.00     0.037 A 
HETATM   23  C   UNL     1      42.684 -16.332   3.097  1.00  0.00     0.011 A 
BRANCH  21  24
HETATM   24  O   UNL     1      43.771 -19.765   2.192  1.00  0.00    -0.356 OA
HETATM   25  C   UNL     1      43.874 -20.922   3.011  1.00  0.00     0.210 C 
ENDBRANCH  21  24
ENDBRANCH  17  18
ENDBRANCH  14  17
ENDBRANCH   1  13
BRANCH   1  26
HETATM   26  O   UNL     1      39.620 -13.441   3.750  1.00  0.00    -0.359 OA
HETATM   27  H   UNL     1      38.787 -12.991   3.982  1.00  0.00     0.213 HD
ENDBRANCH   1  26
BRANCH   2  28
HETATM   28  C   UNL     1      40.335 -12.582   1.166  1.00  0.00     0.043 A 
HETATM   29  C   UNL     1      39.284 -12.120   0.362  1.00  0.00     0.031 A 
HETATM   30  C   UNL     1      38.836 -12.865  -0.735  1.00  0.00     0.026 A 
HETATM   31  C   UNL     1      39.428 -14.087  -1.032  1.00  0.00     0.034 A 
HETATM   32 CL   UNL     1      38.871 -15.010  -2.372  1.00  0.00    -0.084 Cl
HETATM   33  C   UNL     1      40.466 -14.571  -0.241  1.00  0.00     0.026 A 
HETATM   34  C   UNL     1      40.911 -13.824   0.855  1.00  0.00     0.031 A 
ENDBRANCH   2  28
TORSDOF 6
ENDMDL
MODEL 5
REMARK VINA RESULT:      -8.7      2.934      5.348
REMARK  6 active torsions:
REMARK  status: ('A' for Active; 'I' for Inactive)
REMARK    1  A    between atoms: O_2  and  C_3 
REMARK    2  A    between atoms: C_6  and  C_7 
REMARK    3  A    between atoms: C_7  and  N_8 
REMARK       I    between atoms: N_8  and  C_9 
REMARK    4  A    between atoms: C_9  and  C_10 
REMARK    5  A    between atoms: C_10  and  O_11 
REMARK    6  A    between atoms: N_12  and  C_13 
ROOT
HETATM    1  C   UNL     1      41.973 -13.372   5.021  1.00  0.00     0.256 C 
HETATM    2  N   UNL     1      43.106 -12.439   4.976  1.00  0.00    -0.254 N 
HETATM    3  C   UNL     1      43.630 -12.168   3.708  1.00  0.00     0.330 C 
HETATM    4  O   UNL     1      44.327 -11.204   3.396  1.00  0.00    -0.246 OA
HETATM    5  N   UNL     1      43.437 -13.145   2.753  1.00  0.00    -0.308 N 
HETATM    6  C   UNL     1      42.971 -14.427   3.039  1.00  0.00     0.048 A 
HETATM    7  C   UNL     1      42.307 -14.628   4.248  1.00  0.00     0.034 A 
HETATM    8  C   UNL     1      43.198 -15.483   2.160  1.00  0.00     0.030 A 
HETATM    9  C   UNL     1      42.795 -16.769   2.520  1.00  0.00     0.002 A 
HETATM   10  C   UNL     1      42.166 -16.990   3.746  1.00  0.00     0.001 A 
HETATM   11  C   UNL     1      41.915 -15.923   4.610  1.00  0.00     0.015 A 
HETATM   12  H   UNL     1      43.937 -12.972   1.889  1.00  0.00     0.170 HD
ENDROOT
BRANCH   1  13
HETATM   13  C   UNL     1      40.696 -12.633   4.412  1.00  0.00     0.279 C 
HETATM   14  N   UNL     1      40.284 -13.039   3.156  1.00  0.00    -0.352 N 
HETATM   15  H   UNL     1      40.719 -13.843   2.720  1.00  0.00     0.162 HD
HETATM   16  O   UNL     1      40.040 -11.813   5.060  1.00  0.00    -0.268 OA
BRANCH  14  17
HETATM   17  C   UNL     1      39.118 -12.479   2.516  1.00  0.00     0.161 C 
BRANCH  17  18
HETATM   18  C   UNL     1      39.122 -12.756   1.034  1.00  0.00    -0.040 A 
HETATM   19  C   UNL     1      39.822 -13.850   0.511  1.00  0.00     0.011 A 
HETATM   20  C   UNL     1      39.781 -14.125  -0.859  1.00  0.00     0.037 A 
HETATM   21  C   UNL     1      39.036 -13.325  -1.728  1.00  0.00     0.068 A 
HETATM   22  C   UNL     1      38.343 -12.229  -1.217  1.00  0.00     0.037 A 
HETATM   23  C   UNL     1      38.381 -11.950   0.155  1.00  0.00     0.011 A 
BRANCH  21  24
HETATM   24  O   UNL     1      39.070 -13.714  -3.039  1.00  0.00    -0.356 OA
HETATM   25  C   UNL     1      38.450 -14.955  -3.354  1.00  0.00     0.210 C 
ENDBRANCH  21  24
ENDBRANCH  17  18
ENDBRANCH  14  17
ENDBRANCH   1  13
BRANCH   1  26
HETATM   26  O   UNL     1      41.592 -13.722   6.355  1.00  0.00    -0.359 OA
HETATM   27  H   UNL     1      40.731 -13.285   6.483  1.00  0.00     0.213 HD
ENDBRANCH   1  26
BRANCH   2  28
HETATM   28  C   UNL     1      43.508 -11.673   6.111  1.00  0.00     0.043 A 
HETATM   29  C   UNL     1      42.772 -10.562   6.543  1.00  0.00     0.031 A 
HETATM   30  C   UNL     1      43.209  -9.785   7.624  1.00  0.00     0.026 A 
HETATM   31  C   UNL     1      44.395 -10.108   8.274  1.00  0.00     0.034 A 
HETATM   32 CL   UNL     1      44.942  -9.149   9.593  1.00  0.00    -0.084 Cl
HETATM   33  C   UNL     1      45.148 -11.200   7.853  1.00  0.00     0.026 A 
HETATM   34  C   UNL     1      44.707 -11.974   6.774  1.00  0.00     0.031 A 
ENDBRANCH   2  28
TORSDOF 6
ENDMDL
MODEL 6
REMARK VINA RESULT:      -8.7      4.071      8.471
REMARK  6 active torsions:
REMARK  status: ('A' for Active; 'I' for Inactive)
REMARK    1  A    between atoms: O_2  and  C_3 
REMARK    2  A    between atoms: C_6  and  C_7 
REMARK    3  A    between atoms: C_7  and  N_8 
REMARK       I    between atoms: N_8  and  C_9 
REMARK    4  A    between atoms: C_9  and  C_10 
REMARK    5  A    between atoms: C_10  and  O_11 
REMARK    6  A    between atoms: N_12  and  C_13 
ROOT
HETATM    1  C   UNL     1      42.439 -13.064   4.312  1.00  0.00     0.256 C 
HETATM    2  N   UNL     1      41.107 -12.992   4.927  1.00  0.00    -0.254 N 
HETATM    3  C   UNL     1      40.688 -14.129   5.624  1.00  0.00     0.330 C 
HETATM    4  O   UNL     1      39.797 -14.182   6.470  1.00  0.00    -0.246 OA
HETATM    5  N   UNL     1      41.257 -15.323   5.230  1.00  0.00    -0.308 N 
HETATM    6  C   UNL     1      42.019 -15.473   4.072  1.00  0.00     0.048 A 
HETATM    7  C   UNL     1      42.559 -14.328   3.490  1.00  0.00     0.034 A 
HETATM    8  C   UNL     1      42.199 -16.727   3.494  1.00  0.00     0.030 A 
HETATM    9  C   UNL     1      42.894 -16.828   2.287  1.00  0.00     0.002 A 
HETATM   10  C   UNL     1      43.404 -15.684   1.674  1.00  0.00     0.001 A 
HETATM   11  C   UNL     1      43.245 -14.433   2.274  1.00  0.00     0.015 A 
HETATM   12  H   UNL     1      40.839 -16.136   5.667  1.00  0.00     0.170 HD
ENDROOT
BRANCH   1  13
HETATM   13  C   UNL     1      43.528 -13.018   5.478  1.00  0.00     0.279 C 
HETATM   14  N   UNL     1      44.221 -11.832   5.633  1.00  0.00    -0.352 N 
HETATM   15  H   UNL     1      43.950 -11.017   5.096  1.00  0.00     0.162 HD
HETATM   16  O   UNL     1      43.680 -13.950   6.272  1.00  0.00    -0.268 OA
BRANCH  14  17
HETATM   17  C   UNL     1      45.199 -11.649   6.679  1.00  0.00     0.161 C 
BRANCH  17  18
HETATM   18  C   UNL     1      44.692 -10.711   7.744  1.00  0.00    -0.040 A 
HETATM   19  C   UNL     1      45.462 -10.433   8.880  1.00  0.00     0.011 A 
HETATM   20  C   UNL     1      45.004  -9.526   9.840  1.00  0.00     0.037 A 
HETATM   21  C   UNL     1      43.781  -8.873   9.680  1.00  0.00     0.068 A 
HETATM   22  C   UNL     1      43.004  -9.149   8.556  1.00  0.00     0.037 A 
HETATM   23  C   UNL     1      43.459 -10.057   7.593  1.00  0.00     0.011 A 
BRANCH  21  24
HETATM   24  O   UNL     1      43.460  -8.000  10.684  1.00  0.00    -0.356 OA
HETATM   25  C   UNL     1      43.496  -8.510  12.010  1.00  0.00     0.210 C 
ENDBRANCH  21  24
ENDBRANCH  17  18
ENDBRANCH  14  17
ENDBRANCH   1  13
BRANCH   1  26
HETATM   26  O   UNL     1      42.734 -11.932   3.488  1.00  0.00    -0.359 OA
HETATM   27  H   UNL     1      41.916 -11.785   2.978  1.00  0.00     0.213 HD
ENDBRANCH   1  26
BRANCH   2  28
HETATM   28  C   UNL     1      40.374 -11.770   5.016  1.00  0.00     0.043 A 
HETATM   29  C   UNL     1      40.508 -10.913   6.117  1.00  0.00     0.031 A 
HETATM   30  C   UNL     1      39.740  -9.746   6.218  1.00  0.00     0.026 A 
HETATM   31  C   UNL     1      38.822  -9.433   5.222  1.00  0.00     0.034 A 
HETATM   32 CL   UNL     1      37.868  -8.007   5.349  1.00  0.00    -0.084 Cl
HETATM   33  C   UNL     1      38.665 -10.275   4.126  1.00  0.00     0.026 A 
HETATM   34  C   UNL     1      39.434 -11.440   4.028  1.00  0.00     0.031 A 
ENDBRANCH   2  28
TORSDOF 6
ENDMDL
MODEL 7
REMARK VINA RESULT:      -8.7      3.408      7.456
REMARK  6 active torsions:
REMARK  status: ('A' for Active; 'I' for Inactive)
REMARK    1  A    between atoms: O_2  and  C_3 
REMARK    2  A    between atoms: C_6  and  C_7 
REMARK    3  A    between atoms: C_7  and  N_8 
REMARK       I    between atoms: N_8  and  C_9 
REMARK    4  A    between atoms: C_9  and  C_10 
REMARK    5  A    between atoms: C_10  and  O_11 
REMARK    6  A    between atoms: N_12  and  C_13 
ROOT
HETATM    1  C   UNL     1      40.029 -13.178   2.456  1.00  0.00     0.256 C 
HETATM    2  N   UNL     1      40.052 -11.917   1.703  1.00  0.00    -0.254 N 
HETATM    3  C   UNL     1      41.301 -11.304   1.568  1.00  0.00     0.330 C 
HETATM    4  O   UNL     1      41.613 -10.458   0.732  1.00  0.00    -0.246 OA
HETATM    5  N   UNL     1      42.228 -11.598   2.546  1.00  0.00    -0.308 N 
HETATM    6  C   UNL     1      41.919 -12.262   3.733  1.00  0.00     0.048 A 
HETATM    7  C   UNL     1      40.738 -13.001   3.780  1.00  0.00     0.034 A 
HETATM    8  C   UNL     1      42.746 -12.156   4.847  1.00  0.00     0.030 A 
HETATM    9  C   UNL     1      42.359 -12.763   6.044  1.00  0.00     0.002 A 
HETATM   10  C   UNL     1      41.159 -13.471   6.116  1.00  0.00     0.001 A 
HETATM   11  C   UNL     1      40.349 -13.597   4.986  1.00  0.00     0.015 A 
HETATM   12  H   UNL     1      43.072 -11.040   2.487  1.00  0.00     0.170 HD
ENDROOT
BRANCH   1  13
HETATM   13  C   UNL     1      40.728 -14.302   1.564  1.00  0.00     0.279 C 
HETATM   14  N   UNL     1      41.740 -15.029   2.164  1.00  0.00    -0.352 N 
HETATM   15  H   UNL     1      41.927 -14.910   3.151  1.00  0.00     0.162 HD
HETATM   16  O   UNL     1      40.326 -14.587   0.433  1.00  0.00    -0.268 OA
BRANCH  14  17
HETATM   17  C   UNL     1      42.419 -16.102   1.477  1.00  0.00     0.161 C 
BRANCH  17  18
HETATM   18  C   UNL     1      42.979 -17.107   2.453  1.00  0.00    -0.040 A 
HETATM   19  C   UNL     1      43.162 -18.444   2.079  1.00  0.00     0.011 A 
HETATM   20  C   UNL     1      43.725 -19.357   2.974  1.00  0.00     0.037 A 
HETATM   21  C   UNL     1      44.124 -18.954   4.250  1.00  0.00     0.068 A 
HETATM   22  C   UNL     1      43.938 -17.627   4.634  1.00  0.00     0.037 A 
HETATM   23  C   UNL     1      43.375 -16.709   3.739  1.00  0.00     0.011 A 
BRANCH  21  24
HETATM   24  O   UNL     1      44.674 -19.944   5.019  1.00  0.00    -0.356 OA
HETATM   25  C   UNL     1      43.863 -21.086   5.266  1.00  0.00     0.210 C 
ENDBRANCH  21  24
ENDBRANCH  17  18
ENDBRANCH  14  17
ENDBRANCH   1  13
BRANCH   1  26
HETATM   26  O   UNL     1      38.703 -13.664   2.688  1.00  0.00    -0.359 OA
HETATM   27  H   UNL     1      38.304 -13.002   3.283  1.00  0.00     0.213 HD
ENDBRANCH   1  26
BRANCH   2  28
HETATM   28  C   UNL     1      38.927 -11.456   0.956  1.00  0.00     0.043 A 
HETATM   29  C   UNL     1      38.734 -11.826  -0.382  1.00  0.00     0.031 A 
HETATM   30  C   UNL     1      37.657 -11.319  -1.120  1.00  0.00     0.026 A 
HETATM   31  C   UNL     1      36.769 -10.428  -0.528  1.00  0.00     0.034 A 
HETATM   32 CL   UNL     1      35.453  -9.794  -1.436  1.00  0.00    -0.084 Cl
HETATM   33  C   UNL     1      36.949 -10.037   0.796  1.00  0.00     0.026 A 
HETATM   34  C   UNL     1      38.026 -10.545   1.530  1.00  0.00     0.031 A 
ENDBRANCH   2  28
TORSDOF 6
ENDMDL
MODEL 8
REMARK VINA RESULT:      -8.6      3.102      6.839
REMARK  6 active torsions:
REMARK  status: ('A' for Active; 'I' for Inactive)
REMARK    1  A    between atoms: O_2  and  C_3 
REMARK    2  A    between atoms: C_6  and  C_7 
REMARK    3  A    between atoms: C_7  and  N_8 
REMARK       I    between atoms: N_8  and  C_9 
REMARK    4  A    between atoms: C_9  and  C_10 
REMARK    5  A    between atoms: C_10  and  O_11 
REMARK    6  A    between atoms: N_12  and  C_13 
ROOT
HETATM    1  C   UNL     1      42.272 -14.486   5.286  1.00  0.00     0.256 C 
HETATM    2  N   UNL     1      42.688 -14.893   3.937  1.00  0.00    -0.254 N 
HETATM    3  C   UNL     1      43.087 -13.863   3.079  1.00  0.00     0.330 C 
HETATM    4  O   UNL     1      43.767 -13.983   2.062  1.00  0.00    -0.246 OA
HETATM    5  N   UNL     1      42.562 -12.616   3.346  1.00  0.00    -0.308 N 
HETATM    6  C   UNL     1      41.520 -12.390   4.246  1.00  0.00     0.048 A 
HETATM    7  C   UNL     1      41.252 -13.373   5.197  1.00  0.00     0.034 A 
HETATM    8  C   UNL     1      40.747 -11.234   4.167  1.00  0.00     0.030 A 
HETATM    9  C   UNL     1      39.659 -11.083   5.027  1.00  0.00     0.002 A 
HETATM   10  C   UNL     1      39.355 -12.078   5.957  1.00  0.00     0.001 A 
HETATM   11  C   UNL     1      40.152 -13.221   6.050  1.00  0.00     0.015 A 
HETATM   12  H   UNL     1      42.770 -11.927   2.633  1.00  0.00     0.170 HD
ENDROOT
BRANCH   1  13
HETATM   13  C   UNL     1      43.572 -14.025   6.089  1.00  0.00     0.279 C 
HETATM   14  N   UNL     1      43.799 -12.663   6.174  1.00  0.00    -0.352 N 
HETATM   15  H   UNL     1      43.100 -12.015   5.834  1.00  0.00     0.162 HD
HETATM   16  O   UNL     1      44.289 -14.826   6.694  1.00  0.00    -0.268 OA
BRANCH  14  17
HETATM   17  C   UNL     1      44.915 -12.119   6.910  1.00  0.00     0.161 C 
BRANCH  17  18
HETATM   18  C   UNL     1      44.593 -10.753   7.461  1.00  0.00    -0.040 A 
HETATM   19  C   UNL     1      45.587  -9.968   8.056  1.00  0.00     0.011 A 
HETATM   20  C   UNL     1      45.289  -8.684   8.522  1.00  0.00     0.037 A 
HETATM   21  C   UNL     1      44.003  -8.157   8.394  1.00  0.00     0.068 A 
HETATM   22  C   UNL     1      43.004  -8.936   7.810  1.00  0.00     0.037 A 
HETATM   23  C   UNL     1      43.299 -10.222   7.342  1.00  0.00     0.011 A 
BRANCH  21  24
HETATM   24  O   UNL     1      43.851  -6.886   8.877  1.00  0.00    -0.356 OA
HETATM   25  C   UNL     1      42.783  -6.672   9.790  1.00  0.00     0.210 C 
ENDBRANCH  21  24
ENDBRANCH  17  18
ENDBRANCH  14  17
ENDBRANCH   1  13
BRANCH   1  26
HETATM   26  O   UNL     1      41.731 -15.566   6.052  1.00  0.00    -0.359 OA
HETATM   27  H   UNL     1      41.959 -16.363   5.540  1.00  0.00     0.213 HD
ENDBRANCH   1  26
BRANCH   2  28
HETATM   28  C   UNL     1      42.898 -16.260   3.586  1.00  0.00     0.043 A 
HETATM   29  C   UNL     1      43.870 -17.040   4.226  1.00  0.00     0.031 A 
HETATM   30  C   UNL     1      44.105 -18.363   3.831  1.00  0.00     0.026 A 
HETATM   31  C   UNL     1      43.377 -18.913   2.783  1.00  0.00     0.034 A 
HETATM   32 CL   UNL     1      43.672 -20.534   2.287  1.00  0.00    -0.084 Cl
HETATM   33  C   UNL     1      42.415 -18.153   2.125  1.00  0.00     0.026 A 
HETATM   34  C   UNL     1      42.183 -16.832   2.522  1.00  0.00     0.031 A 
ENDBRANCH   2  28
TORSDOF 6
ENDMDL
MODEL 9
REMARK VINA RESULT:      -8.4      3.553      7.337
REMARK  6 active torsions:
REMARK  status: ('A' for Active; 'I' for Inactive)
REMARK    1  A    between atoms: O_2  and  C_3 
REMARK    2  A    between atoms: C_6  and  C_7 
REMARK    3  A    between atoms: C_7  and  N_8 
REMARK       I    between atoms: N_8  and  C_9 
REMARK    4  A    between atoms: C_9  and  C_10 
REMARK    5  A    between atoms: C_10  and  O_11 
REMARK    6  A    between atoms: N_12  and  C_13 
ROOT
HETATM    1  C   UNL     1      42.260 -13.301   4.816  1.00  0.00     0.256 C 
HETATM    2  N   UNL     1      41.571 -12.326   5.671  1.00  0.00    -0.254 N 
HETATM    3  C   UNL     1      40.198 -12.525   5.847  1.00  0.00     0.330 C 
HETATM    4  O   UNL     1      39.502 -12.060   6.748  1.00  0.00    -0.246 OA
HETATM    5  N   UNL     1      39.553 -13.212   4.840  1.00  0.00    -0.308 N 
HETATM    6  C   UNL     1      40.132 -13.502   3.605  1.00  0.00     0.048 A 
HETATM    7  C   UNL     1      41.521 -13.452   3.505  1.00  0.00     0.034 A 
HETATM    8  C   UNL     1      39.341 -13.793   2.496  1.00  0.00     0.030 A 
HETATM    9  C   UNL     1      39.952 -13.991   1.257  1.00  0.00     0.002 A 
HETATM   10  C   UNL     1      41.339 -13.903   1.135  1.00  0.00     0.001 A 
HETATM   11  C   UNL     1      42.127 -13.640   2.257  1.00  0.00     0.015 A 
HETATM   12  H   UNL     1      38.544 -13.225   4.939  1.00  0.00     0.170 HD
ENDROOT
BRANCH   1  13
HETATM   13  C   UNL     1      42.340 -14.686   5.605  1.00  0.00     0.279 C 
HETATM   14  N   UNL     1      43.588 -15.274   5.701  1.00  0.00    -0.352 N 
HETATM   15  H   UNL     1      44.406 -14.774   5.378  1.00  0.00     0.162 HD
HETATM   16  O   UNL     1      41.366 -15.164   6.192  1.00  0.00    -0.268 OA
BRANCH  14  17
HETATM   17  C   UNL     1      43.799 -16.504   6.427  1.00  0.00     0.161 C 
BRANCH  17  18
HETATM   18  C   UNL     1      43.792 -17.694   5.501  1.00  0.00    -0.040 A 
HETATM   19  C   UNL     1      43.899 -17.524   4.115  1.00  0.00     0.011 A 
HETATM   20  C   UNL     1      43.939 -18.635   3.268  1.00  0.00     0.037 A 
HETATM   21  C   UNL     1      43.885 -19.931   3.785  1.00  0.00     0.068 A 
HETATM   22  C   UNL     1      43.770 -20.109   5.163  1.00  0.00     0.037 A 
HETATM   23  C   UNL     1      43.730 -18.999   6.014  1.00  0.00     0.011 A 
BRANCH  21  24
HETATM   24  O   UNL     1      43.949 -20.926   2.848  1.00  0.00    -0.356 OA
HETATM   25  C   UNL     1      43.574 -20.580   1.521  1.00  0.00     0.210 C 
ENDBRANCH  21  24
ENDBRANCH  17  18
ENDBRANCH  14  17
ENDBRANCH   1  13
BRANCH   1  26
HETATM   26  O   UNL     1      43.622 -12.948   4.555  1.00  0.00    -0.359 OA
HETATM   27  H   UNL     1      44.105 -13.793   4.605  1.00  0.00     0.213 HD
ENDBRANCH   1  26
BRANCH   2  28
HETATM   28  C   UNL     1      42.278 -11.373   6.463  1.00  0.00     0.043 A 
HETATM   29  C   UNL     1      41.967 -10.008   6.419  1.00  0.00     0.031 A 
HETATM   30  C   UNL     1      42.707  -9.077   7.159  1.00  0.00     0.026 A 
HETATM   31  C   UNL     1      43.774  -9.504   7.941  1.00  0.00     0.034 A 
HETATM   32 CL   UNL     1      44.694  -8.363   8.841  1.00  0.00    -0.084 Cl
HETATM   33  C   UNL     1      44.108 -10.855   7.990  1.00  0.00     0.026 A 
HETATM   34  C   UNL     1      43.366 -11.781   7.250  1.00  0.00     0.031 A 
ENDBRANCH   2  28
TORSDOF 6
ENDMDL
MODEL 10
REMARK VINA RESULT:      -8.4      2.944      7.281
REMARK  6 active torsions:
REMARK  status: ('A' for Active; 'I' for Inactive)
REMARK    1  A    between atoms: O_2  and  C_3 
REMARK    2  A    between atoms: C_6  and  C_7 
REMARK    3  A    between atoms: C_7  and  N_8 
REMARK       I    between atoms: N_8  and  C_9 
REMARK    4  A    between atoms: C_9  and  C_10 
REMARK    5  A    between atoms: C_10  and  O_11 
REMARK    6  A    between atoms: N_12  and  C_13 
ROOT
HETATM    1  C   UNL     1      42.356 -14.020   3.176  1.00  0.00     0.256 C 
HETATM    2  N   UNL     1      41.010 -13.727   2.667  1.00  0.00    -0.254 N 
HETATM    3  C   UNL     1      40.080 -13.276   3.610  1.00  0.00     0.330 C 
HETATM    4  O   UNL     1      39.035 -12.673   3.375  1.00  0.00    -0.246 OA
HETATM    5  N   UNL     1      40.311 -13.657   4.916  1.00  0.00    -0.308 N 
HETATM    6  C   UNL     1      41.252 -14.615   5.289  1.00  0.00     0.048 A 
HETATM    7  C   UNL     1      42.265 -14.925   4.384  1.00  0.00     0.034 A 
HETATM    8  C   UNL     1      41.157 -15.271   6.514  1.00  0.00     0.030 A 
HETATM    9  C   UNL     1      42.065 -16.286   6.816  1.00  0.00     0.002 A 
HETATM   10  C   UNL     1      43.059 -16.634   5.901  1.00  0.00     0.001 A 
HETATM   11  C   UNL     1      43.167 -15.953   4.687  1.00  0.00     0.015 A 
HETATM   12  H   UNL     1      39.553 -13.422   5.547  1.00  0.00     0.170 HD
ENDROOT
BRANCH   1  13
HETATM   13  C   UNL     1      43.063 -12.635   3.535  1.00  0.00     0.279 C 
HETATM   14  N   UNL     1      43.712 -12.567   4.755  1.00  0.00    -0.352 N 
HETATM   15  H   UNL     1      43.813 -13.403   5.317  1.00  0.00     0.162 HD
HETATM   16  O   UNL     1      43.124 -11.700   2.732  1.00  0.00    -0.268 OA
BRANCH  14  17
HETATM   17  C   UNL     1      44.427 -11.385   5.176  1.00  0.00     0.161 C 
BRANCH  17  18
HETATM   18  C   UNL     1      43.986 -10.939   6.547  1.00  0.00    -0.040 A 
HETATM   19  C   UNL     1      44.766 -11.214   7.676  1.00  0.00     0.011 A 
HETATM   20  C   UNL     1      44.372 -10.756   8.936  1.00  0.00     0.037 A 
HETATM   21  C   UNL     1      43.204 -10.008   9.092  1.00  0.00     0.068 A 
HETATM   22  C   UNL     1      42.416  -9.736   7.975  1.00  0.00     0.037 A 
HETATM   23  C   UNL     1      42.808 -10.194   6.710  1.00  0.00     0.011 A 
BRANCH  21  24
HETATM   24  O   UNL     1      42.944  -9.609  10.374  1.00  0.00    -0.356 OA
HETATM   25  C   UNL     1      43.458 -10.430  11.416  1.00  0.00     0.210 C 
ENDBRANCH  21  24
ENDBRANCH  17  18
ENDBRANCH  14  17
ENDBRANCH   1  13
BRANCH   1  26
HETATM   26  O   UNL     1      43.204 -14.621   2.194  1.00  0.00    -0.359 OA
HETATM   27  H   UNL     1      43.151 -15.577   2.381  1.00  0.00     0.213 HD
ENDBRANCH   1  26
BRANCH   2  28
HETATM   28  C   UNL     1      40.718 -13.676   1.272  1.00  0.00     0.043 A 
HETATM   29  C   UNL     1      40.974 -12.529   0.510  1.00  0.00     0.031 A 
HETATM   30  C   UNL     1      40.629 -12.473  -0.847  1.00  0.00     0.026 A 
HETATM   31  C   UNL     1      40.013 -13.563  -1.450  1.00  0.00     0.034 A 
HETATM   32 CL   UNL     1      39.576 -13.494  -3.112  1.00  0.00    -0.084 Cl
HETATM   33  C   UNL     1      39.738 -14.709  -0.709  1.00  0.00     0.026 A 
HETATM   34  C   UNL     1      40.084 -14.761   0.645  1.00  0.00     0.031 A 
ENDBRANCH   2  28
TORSDOF 6
ENDMDL
