MODEL 1
REMARK VINA RESULT:      -8.3      0.000      0.000
REMARK  7 active torsions:
REMARK  status: ('A' for Active; 'I' for Inactive)
REMARK    1  A    between atoms: C_2  and  N_3 
REMARK    2  A    between atoms: C_2  and  C_17 
REMARK       I    between atoms: N_3  and  C_4 
REMARK    3  A    between atoms: C_4  and  C_5 
REMARK    4  A    between atoms: C_7  and  N_8 
REMARK    5  A    between atoms: C_17  and  O_18 
REMARK    6  A    between atoms: C_17  and  C_19 
REMARK    7  A    between atoms: C_22  and  O_23 
ROOT
HETATM    1  N   UNL     1      43.114 -13.260   5.149  1.00  0.00    -0.349 N 
HETATM    2  C   UNL     1      43.527 -13.455   6.448  1.00  0.00     0.270 C 
HETATM    3  O   UNL     1      43.289 -14.466   7.097  1.00  0.00    -0.266 OA
HETATM    4  H   UNL     1      43.255 -12.329   4.761  1.00  0.00     0.163 HD
ENDROOT
BRANCH   1   5
HETATM    5  C   UNL     1      42.230 -14.181   4.433  1.00  0.00     0.114 C 
HETATM    6  C   UNL     1      40.938 -13.449   4.058  1.00  0.00     0.035 C 
BRANCH   5   7
HETATM    7  C   UNL     1      42.984 -14.774   3.212  1.00  0.00     0.173 C 
BRANCH   7   8
HETATM    8  O   UNL     1      42.302 -14.447   1.993  1.00  0.00    -0.389 OA
HETATM    9  H   UNL     1      41.997 -13.526   2.085  1.00  0.00     0.210 HD
ENDBRANCH   7   8
BRANCH   7  10
HETATM   10  C   UNL     1      43.244 -16.266   3.299  1.00  0.00    -0.028 A 
HETATM   11  C   UNL     1      43.685 -16.825   4.505  1.00  0.00     0.012 A 
HETATM   12  C   UNL     1      43.925 -18.198   4.604  1.00  0.00     0.037 A 
HETATM   13  C   UNL     1      43.721 -19.040   3.510  1.00  0.00     0.068 A 
HETATM   14  C   UNL     1      43.280 -18.493   2.306  1.00  0.00     0.037 A 
HETATM   15  C   UNL     1      43.046 -17.116   2.201  1.00  0.00     0.012 A 
BRANCH  13  16
HETATM   16  O   UNL     1      43.990 -20.359   3.745  1.00  0.00    -0.356 OA
HETATM   17  C   UNL     1      44.221 -20.736   5.097  1.00  0.00     0.210 C 
ENDBRANCH  13  16
ENDBRANCH   7  10
ENDBRANCH   5   7
ENDBRANCH   1   5
BRANCH   2  18
HETATM   18  C   UNL     1      44.298 -12.311   7.031  1.00  0.00     0.126 A 
HETATM   19  N   UNL     1      43.872 -11.852   8.242  1.00  0.00    -0.224 NA
HETATM   20  C   UNL     1      44.555 -10.801   8.773  1.00  0.00     0.151 A 
HETATM   21  C   UNL     1      45.655 -10.219   8.143  1.00  0.00     0.052 A 
HETATM   22  C   UNL     1      46.070 -10.721   6.912  1.00  0.00     0.006 A 
HETATM   23  C   UNL     1      45.378 -11.782   6.338  1.00  0.00     0.037 A 
BRANCH  20  24
HETATM   24  N   UNL     1      44.108 -10.269  10.021  1.00  0.00    -0.227 N 
HETATM   25  N   UNL     1      43.687 -11.061  11.046  1.00  0.00    -0.179 NA
HETATM   26  C   UNL     1      43.379 -10.205  12.021  1.00  0.00     0.141 A 
HETATM   27  C   UNL     1      43.588  -8.866  11.654  1.00  0.00     0.040 A 
HETATM   28  C   UNL     1      44.053  -8.934  10.363  1.00  0.00     0.122 A 
ENDBRANCH  20  24
ENDBRANCH   2  18
TORSDOF 7
ENDMDL
MODEL 2
REMARK VINA RESULT:      -8.1      2.888      8.226
REMARK  7 active torsions:
REMARK  status: ('A' for Active; 'I' for Inactive)
REMARK    1  A    between atoms: C_2  and  N_3 
REMARK    2  A    between atoms: C_2  and  C_17 
REMARK       I    between atoms: N_3  and  C_4 
REMARK    3  A    between atoms: C_4  and  C_5 
REMARK    4  A    between atoms: C_7  and  N_8 
REMARK    5  A    between atoms: C_17  and  O_18 
REMARK    6  A    between atoms: C_17  and  C_19 
REMARK    7  A    between atoms: C_22  and  O_23 
ROOT
HETATM    1  N   UNL     1      42.081 -13.264   4.657  1.00  0.00    -0.349 N 
HETATM    2  C   UNL     1      42.831 -14.117   3.880  1.00  0.00     0.270 C 
HETATM    3  O   UNL     1      43.140 -13.891   2.716  1.00  0.00    -0.266 OA
HETATM    4  H   UNL     1      41.775 -13.619   5.561  1.00  0.00     0.163 HD
ENDROOT
BRANCH   1   5
HETATM    5  C   UNL     1      41.452 -12.044   4.145  1.00  0.00     0.114 C 
HETATM    6  C   UNL     1      40.126 -11.817   4.876  1.00  0.00     0.035 C 
BRANCH   5   7
HETATM    7  C   UNL     1      42.445 -10.858   4.278  1.00  0.00     0.173 C 
BRANCH   7   8
HETATM    8  O   UNL     1      43.256 -10.746   3.100  1.00  0.00    -0.389 OA
HETATM    9  H   UNL     1      43.643  -9.852   3.114  1.00  0.00     0.210 HD
ENDBRANCH   7   8
BRANCH   7  10
HETATM   10  C   UNL     1      43.309 -10.900   5.524  1.00  0.00    -0.028 A 
HETATM   11  C   UNL     1      42.807 -10.405   6.735  1.00  0.00     0.012 A 
HETATM   12  C   UNL     1      43.587 -10.439   7.893  1.00  0.00     0.037 A 
HETATM   13  C   UNL     1      44.875 -10.977   7.871  1.00  0.00     0.068 A 
HETATM   14  C   UNL     1      45.382 -11.475   6.672  1.00  0.00     0.037 A 
HETATM   15  C   UNL     1      44.605 -11.435   5.508  1.00  0.00     0.012 A 
BRANCH  13  16
HETATM   16  O   UNL     1      45.526 -10.953   9.073  1.00  0.00    -0.356 OA
HETATM   17  C   UNL     1      45.215  -9.878   9.951  1.00  0.00     0.210 C 
ENDBRANCH  13  16
ENDBRANCH   7  10
ENDBRANCH   5   7
ENDBRANCH   1   5
BRANCH   2  18
HETATM   18  C   UNL     1      43.245 -15.381   4.571  1.00  0.00     0.126 A 
HETATM   19  N   UNL     1      43.289 -16.503   3.798  1.00  0.00    -0.224 NA
HETATM   20  C   UNL     1      43.647 -17.660   4.420  1.00  0.00     0.151 A 
HETATM   21  C   UNL     1      43.981 -17.719   5.774  1.00  0.00     0.052 A 
HETATM   22  C   UNL     1      43.936 -16.549   6.530  1.00  0.00     0.006 A 
HETATM   23  C   UNL     1      43.555 -15.358   5.923  1.00  0.00     0.037 A 
BRANCH  20  24
HETATM   24  N   UNL     1      43.662 -18.862   3.649  1.00  0.00    -0.227 N 
HETATM   25  N   UNL     1      44.044 -20.061   4.171  1.00  0.00    -0.179 NA
HETATM   26  C   UNL     1      43.902 -20.922   3.161  1.00  0.00     0.141 A 
HETATM   27  C   UNL     1      43.438 -20.309   1.988  1.00  0.00     0.040 A 
HETATM   28  C   UNL     1      43.294 -18.985   2.326  1.00  0.00     0.122 A 
ENDBRANCH  20  24
ENDBRANCH   2  18
TORSDOF 7
ENDMDL
MODEL 3
REMARK VINA RESULT:      -8.0      2.747      3.725
REMARK  7 active torsions:
REMARK  status: ('A' for Active; 'I' for Inactive)
REMARK    1  A    between atoms: C_2  and  N_3 
REMARK    2  A    between atoms: C_2  and  C_17 
REMARK       I    between atoms: N_3  and  C_4 
REMARK    3  A    between atoms: C_4  and  C_5 
REMARK    4  A    between atoms: C_7  and  N_8 
REMARK    5  A    between atoms: C_17  and  O_18 
REMARK    6  A    between atoms: C_17  and  C_19 
REMARK    7  A    between atoms: C_22  and  O_23 
ROOT
HETATM    1  N   UNL     1      42.927 -13.650   6.895  1.00  0.00    -0.349 N 
HETATM    2  C   UNL     1      43.676 -12.732   6.194  1.00  0.00     0.270 C 
HETATM    3  O   UNL     1      43.722 -12.674   4.971  1.00  0.00    -0.266 OA
HETATM    4  H   UNL     1      43.075 -13.686   7.901  1.00  0.00     0.163 HD
ENDROOT
BRANCH   1   5
HETATM    5  C   UNL     1      42.198 -14.751   6.262  1.00  0.00     0.114 C 
HETATM    6  C   UNL     1      42.060 -15.903   7.262  1.00  0.00     0.035 C 
BRANCH   5   7
HETATM    7  C   UNL     1      40.837 -14.227   5.729  1.00  0.00     0.173 C 
BRANCH   7   8
HETATM    8  O   UNL     1      39.759 -14.701   6.549  1.00  0.00    -0.389 OA
HETATM    9  H   UNL     1      40.146 -14.913   7.418  1.00  0.00     0.210 HD
ENDBRANCH   7   8
BRANCH   7  10
HETATM   10  C   UNL     1      40.575 -14.535   4.267  1.00  0.00    -0.028 A 
HETATM   11  C   UNL     1      40.171 -13.510   3.402  1.00  0.00     0.012 A 
HETATM   12  C   UNL     1      39.930 -13.775   2.052  1.00  0.00     0.037 A 
HETATM   13  C   UNL     1      40.097 -15.060   1.535  1.00  0.00     0.068 A 
HETATM   14  C   UNL     1      40.502 -16.086   2.387  1.00  0.00     0.037 A 
HETATM   15  C   UNL     1      40.737 -15.826   3.743  1.00  0.00     0.012 A 
BRANCH  13  16
HETATM   16  O   UNL     1      39.833 -15.179   0.199  1.00  0.00    -0.356 OA
HETATM   17  C   UNL     1      39.855 -13.982  -0.569  1.00  0.00     0.210 C 
ENDBRANCH  13  16
ENDBRANCH   7  10
ENDBRANCH   5   7
ENDBRANCH   1   5
BRANCH   2  18
HETATM   18  C   UNL     1      44.463 -11.790   7.053  1.00  0.00     0.126 A 
HETATM   19  N   UNL     1      43.920 -11.482   8.265  1.00  0.00    -0.224 NA
HETATM   20  C   UNL     1      44.619 -10.614   9.046  1.00  0.00     0.151 A 
HETATM   21  C   UNL     1      45.845 -10.069   8.662  1.00  0.00     0.052 A 
HETATM   22  C   UNL     1      46.376 -10.415   7.421  1.00  0.00     0.006 A 
HETATM   23  C   UNL     1      45.673 -11.285   6.595  1.00  0.00     0.037 A 
BRANCH  20  24
HETATM   24  N   UNL     1      44.057 -10.237  10.304  1.00  0.00    -0.227 N 
HETATM   25  N   UNL     1      43.642 -11.153  11.224  1.00  0.00    -0.179 NA
HETATM   26  C   UNL     1      43.209 -10.419  12.249  1.00  0.00     0.141 A 
HETATM   27  C   UNL     1      43.328  -9.040  12.018  1.00  0.00     0.040 A 
HETATM   28  C   UNL     1      43.873  -8.949  10.761  1.00  0.00     0.122 A 
ENDBRANCH  20  24
ENDBRANCH   2  18
TORSDOF 7
ENDMDL
MODEL 4
REMARK VINA RESULT:      -7.8      1.215      1.604
REMARK  7 active torsions:
REMARK  status: ('A' for Active; 'I' for Inactive)
REMARK    1  A    between atoms: C_2  and  N_3 
REMARK    2  A    between atoms: C_2  and  C_17 
REMARK       I    between atoms: N_3  and  C_4 
REMARK    3  A    between atoms: C_4  and  C_5 
REMARK    4  A    between atoms: C_7  and  N_8 
REMARK    5  A    between atoms: C_17  and  O_18 
REMARK    6  A    between atoms: C_17  and  C_19 
REMARK    7  A    between atoms: C_22  and  O_23 
ROOT
HETATM    1  N   UNL     1      42.843 -13.417   6.660  1.00  0.00    -0.349 N 
HETATM    2  C   UNL     1      43.379 -12.264   6.134  1.00  0.00     0.270 C 
HETATM    3  O   UNL     1      43.170 -11.868   4.994  1.00  0.00    -0.266 OA
HETATM    4  H   UNL     1      43.195 -13.712   7.568  1.00  0.00     0.163 HD
ENDROOT
BRANCH   1   5
HETATM    5  C   UNL     1      42.063 -14.378   5.876  1.00  0.00     0.114 C 
HETATM    6  C   UNL     1      40.594 -13.946   5.869  1.00  0.00     0.035 C 
BRANCH   5   7
HETATM    7  C   UNL     1      42.679 -14.503   4.456  1.00  0.00     0.173 C 
BRANCH   7   8
HETATM    8  O   UNL     1      41.789 -13.957   3.472  1.00  0.00    -0.389 OA
HETATM    9  H   UNL     1      42.349 -13.527   2.801  1.00  0.00     0.210 HD
ENDBRANCH   7   8
BRANCH   7  10
HETATM   10  C   UNL     1      43.102 -15.910   4.078  1.00  0.00    -0.028 A 
HETATM   11  C   UNL     1      42.833 -16.394   2.791  1.00  0.00     0.012 A 
HETATM   12  C   UNL     1      43.219 -17.685   2.424  1.00  0.00     0.037 A 
HETATM   13  C   UNL     1      43.889 -18.514   3.326  1.00  0.00     0.068 A 
HETATM   14  C   UNL     1      44.163 -18.040   4.607  1.00  0.00     0.037 A 
HETATM   15  C   UNL     1      43.770 -16.749   4.981  1.00  0.00     0.012 A 
BRANCH  13  16
HETATM   16  O   UNL     1      44.213 -19.748   2.836  1.00  0.00    -0.356 OA
HETATM   17  C   UNL     1      43.304 -20.331   1.910  1.00  0.00     0.210 C 
ENDBRANCH  13  16
ENDBRANCH   7  10
ENDBRANCH   5   7
ENDBRANCH   1   5
BRANCH   2  18
HETATM   18  C   UNL     1      44.271 -11.511   7.074  1.00  0.00     0.126 A 
HETATM   19  N   UNL     1      43.740 -11.202   8.291  1.00  0.00    -0.224 NA
HETATM   20  C   UNL     1      44.536 -10.504   9.146  1.00  0.00     0.151 A 
HETATM   21  C   UNL     1      45.843 -10.131   8.829  1.00  0.00     0.052 A 
HETATM   22  C   UNL     1      46.357 -10.474   7.580  1.00  0.00     0.006 A 
HETATM   23  C   UNL     1      45.558 -11.171   6.681  1.00  0.00     0.037 A 
BRANCH  20  24
HETATM   24  N   UNL     1      43.996 -10.127  10.413  1.00  0.00    -0.227 N 
HETATM   25  N   UNL     1      43.606 -11.042  11.344  1.00  0.00    -0.179 NA
HETATM   26  C   UNL     1      43.186 -10.307  12.375  1.00  0.00     0.141 A 
HETATM   27  C   UNL     1      43.292  -8.928  12.137  1.00  0.00     0.040 A 
HETATM   28  C   UNL     1      43.811  -8.838  10.869  1.00  0.00     0.122 A 
ENDBRANCH  20  24
ENDBRANCH   2  18
TORSDOF 7
ENDMDL
MODEL 5
REMARK VINA RESULT:      -7.6      5.848      8.959
REMARK  7 active torsions:
REMARK  status: ('A' for Active; 'I' for Inactive)
REMARK    1  A    between atoms: C_2  and  N_3 
REMARK    2  A    between atoms: C_2  and  C_17 
REMARK       I    between atoms: N_3  and  C_4 
REMARK    3  A    between atoms: C_4  and  C_5 
REMARK    4  A    between atoms: C_7  and  N_8 
REMARK    5  A    between atoms: C_17  and  O_18 
REMARK    6  A    between atoms: C_17  and  C_19 
REMARK    7  A    between atoms: C_22  and  O_23 
ROOT
HETATM    1  N   UNL     1      41.055 -14.503   1.309  1.00  0.00    -0.349 N 
HETATM    2  C   UNL     1      40.298 -13.414   0.937  1.00  0.00     0.270 C 
HETATM    3  O   UNL     1      39.962 -12.519   1.704  1.00  0.00    -0.266 OA
HETATM    4  H   UNL     1      41.156 -15.245   0.619  1.00  0.00     0.163 HD
ENDROOT
BRANCH   1   5
HETATM    5  C   UNL     1      41.437 -14.788   2.693  1.00  0.00     0.114 C 
HETATM    6  C   UNL     1      40.564 -15.926   3.232  1.00  0.00     0.035 C 
BRANCH   5   7
HETATM    7  C   UNL     1      42.959 -15.092   2.754  1.00  0.00     0.173 C 
BRANCH   7   8
HETATM    8  O   UNL     1      43.588 -14.764   1.507  1.00  0.00    -0.389 OA
HETATM    9  H   UNL     1      43.917 -15.602   1.134  1.00  0.00     0.210 HD
ENDBRANCH   7   8
BRANCH   7  10
HETATM   10  C   UNL     1      43.299 -16.510   3.172  1.00  0.00    -0.028 A 
HETATM   11  C   UNL     1      43.215 -17.550   2.237  1.00  0.00     0.012 A 
HETATM   12  C   UNL     1      43.529 -18.861   2.603  1.00  0.00     0.037 A 
HETATM   13  C   UNL     1      43.943 -19.160   3.903  1.00  0.00     0.068 A 
HETATM   14  C   UNL     1      44.032 -18.131   4.839  1.00  0.00     0.037 A 
HETATM   15  C   UNL     1      43.711 -16.817   4.477  1.00  0.00     0.012 A 
BRANCH  13  16
HETATM   16  O   UNL     1      44.223 -20.479   4.124  1.00  0.00    -0.356 OA
HETATM   17  C   UNL     1      43.884 -21.002   5.402  1.00  0.00     0.210 C 
ENDBRANCH  13  16
ENDBRANCH   7  10
ENDBRANCH   5   7
ENDBRANCH   1   5
BRANCH   2  18
HETATM   18  C   UNL     1      39.893 -13.405  -0.506  1.00  0.00     0.126 A 
HETATM   19  N   UNL     1      39.992 -12.209  -1.152  1.00  0.00    -0.224 NA
HETATM   20  C   UNL     1      39.610 -12.186  -2.458  1.00  0.00     0.151 A 
HETATM   21  C   UNL     1      39.160 -13.320  -3.134  1.00  0.00     0.052 A 
HETATM   22  C   UNL     1      39.083 -14.529  -2.445  1.00  0.00     0.006 A 
HETATM   23  C   UNL     1      39.449 -14.576  -1.105  1.00  0.00     0.037 A 
BRANCH  20  24
HETATM   24  N   UNL     1      39.661 -10.939  -3.153  1.00  0.00    -0.227 N 
HETATM   25  N   UNL     1      40.830 -10.389  -3.584  1.00  0.00    -0.179 NA
HETATM   26  C   UNL     1      40.461  -9.260  -4.192  1.00  0.00     0.141 A 
HETATM   27  C   UNL     1      39.072  -9.059  -4.164  1.00  0.00     0.040 A 
HETATM   28  C   UNL     1      38.581 -10.149  -3.488  1.00  0.00     0.122 A 
ENDBRANCH  20  24
ENDBRANCH   2  18
TORSDOF 7
ENDMDL
MODEL 6
REMARK VINA RESULT:      -7.5      4.416     10.428
REMARK  7 active torsions:
REMARK  status: ('A' for Active; 'I' for Inactive)
REMARK    1  A    between atoms: C_2  and  N_3 
REMARK    2  A    between atoms: C_2  and  C_17 
REMARK       I    between atoms: N_3  and  C_4 
REMARK    3  A    between atoms: C_4  and  C_5 
REMARK    4  A    between atoms: C_7  and  N_8 
REMARK    5  A    between atoms: C_17  and  O_18 
REMARK    6  A    between atoms: C_17  and  C_19 
REMARK    7  A    between atoms: C_22  and  O_23 
ROOT
HETATM    1  N   UNL     1      42.436 -10.023  10.142  1.00  0.00    -0.349 N 
HETATM    2  C   UNL     1      43.670  -9.488   9.850  1.00  0.00     0.270 C 
HETATM    3  O   UNL     1      44.150  -8.517  10.423  1.00  0.00    -0.266 OA
HETATM    4  H   UNL     1      42.089 -10.741   9.510  1.00  0.00     0.163 HD
ENDROOT
BRANCH   1   5
HETATM    5  C   UNL     1      41.493  -9.415  11.083  1.00  0.00     0.114 C 
HETATM    6  C   UNL     1      40.064  -9.647  10.584  1.00  0.00     0.035 C 
BRANCH   5   7
HETATM    7  C   UNL     1      41.751  -9.980  12.507  1.00  0.00     0.173 C 
BRANCH   7   8
HETATM    8  O   UNL     1      40.730 -10.920  12.868  1.00  0.00    -0.389 OA
HETATM    9  H   UNL     1      40.917 -11.194  13.784  1.00  0.00     0.210 HD
ENDBRANCH   7   8
BRANCH   7  10
HETATM   10  C   UNL     1      41.913  -8.922  13.581  1.00  0.00    -0.028 A 
HETATM   11  C   UNL     1      41.040  -8.904  14.676  1.00  0.00     0.012 A 
HETATM   12  C   UNL     1      41.177  -7.940  15.678  1.00  0.00     0.037 A 
HETATM   13  C   UNL     1      42.192  -6.983  15.614  1.00  0.00     0.068 A 
HETATM   14  C   UNL     1      43.067  -6.994  14.530  1.00  0.00     0.037 A 
HETATM   15  C   UNL     1      42.927  -7.955  13.521  1.00  0.00     0.012 A 
BRANCH  13  16
HETATM   16  O   UNL     1      42.215  -6.104  16.660  1.00  0.00    -0.356 OA
HETATM   17  C   UNL     1      41.531  -6.495  17.844  1.00  0.00     0.210 C 
ENDBRANCH  13  16
ENDBRANCH   7  10
ENDBRANCH   5   7
ENDBRANCH   1   5
BRANCH   2  18
HETATM   18  C   UNL     1      44.402 -10.187   8.744  1.00  0.00     0.126 A 
HETATM   19  N   UNL     1      43.706 -11.149   8.075  1.00  0.00    -0.224 NA
HETATM   20  C   UNL     1      44.368 -11.801   7.080  1.00  0.00     0.151 A 
HETATM   21  C   UNL     1      45.683 -11.503   6.725  1.00  0.00     0.052 A 
HETATM   22  C   UNL     1      46.360 -10.505   7.423  1.00  0.00     0.006 A 
HETATM   23  C   UNL     1      45.714  -9.836   8.456  1.00  0.00     0.037 A 
BRANCH  20  24
HETATM   24  N   UNL     1      43.682 -12.845   6.387  1.00  0.00    -0.227 N 
HETATM   25  N   UNL     1      43.453 -14.067   6.945  1.00  0.00    -0.179 NA
HETATM   26  C   UNL     1      42.781 -14.738   6.008  1.00  0.00     0.141 A 
HETATM   27  C   UNL     1      42.568 -13.981   4.846  1.00  0.00     0.040 A 
HETATM   28  C   UNL     1      43.159 -12.770   5.113  1.00  0.00     0.122 A 
ENDBRANCH  20  24
ENDBRANCH   2  18
TORSDOF 7
ENDMDL
MODEL 7
REMARK VINA RESULT:      -7.4      4.438      7.829
REMARK  7 active torsions:
REMARK  status: ('A' for Active; 'I' for Inactive)
REMARK    1  A    between atoms: C_2  and  N_3 
REMARK    2  A    between atoms: C_2  and  C_17 
REMARK       I    between atoms: N_3  and  C_4 
REMARK    3  A    between atoms: C_4  and  C_5 
REMARK    4  A    between atoms: C_7  and  N_8 
REMARK    5  A    between atoms: C_17  and  O_18 
REMARK    6  A    between atoms: C_17  and  C_19 
REMARK    7  A    between atoms: C_22  and  O_23 
ROOT
HETATM    1  N   UNL     1      42.422 -13.328   3.614  1.00  0.00    -0.349 N 
HETATM    2  C   UNL     1      41.846 -14.275   4.431  1.00  0.00     0.270 C 
HETATM    3  O   UNL     1      40.675 -14.249   4.791  1.00  0.00    -0.266 OA
HETATM    4  H   UNL     1      43.431 -13.383   3.494  1.00  0.00     0.163 HD
ENDROOT
BRANCH   1   5
HETATM    5  C   UNL     1      41.739 -12.106   3.184  1.00  0.00     0.114 C 
HETATM    6  C   UNL     1      42.100 -10.966   4.141  1.00  0.00     0.035 C 
BRANCH   5   7
HETATM    7  C   UNL     1      42.098 -11.810   1.703  1.00  0.00     0.173 C 
BRANCH   7   8
HETATM    8  O   UNL     1      42.063 -10.398   1.450  1.00  0.00    -0.389 OA
HETATM    9  H   UNL     1      41.714  -9.981   2.258  1.00  0.00     0.210 HD
ENDBRANCH   7   8
BRANCH   7  10
HETATM   10  C   UNL     1      41.253 -12.559   0.690  1.00  0.00    -0.028 A 
HETATM   11  C   UNL     1      40.851 -13.874   0.958  1.00  0.00     0.012 A 
HETATM   12  C   UNL     1      40.069 -14.577   0.039  1.00  0.00     0.037 A 
HETATM   13  C   UNL     1      39.664 -13.983  -1.158  1.00  0.00     0.068 A 
HETATM   14  C   UNL     1      40.058 -12.674  -1.432  1.00  0.00     0.037 A 
HETATM   15  C   UNL     1      40.848 -11.969  -0.515  1.00  0.00     0.012 A 
BRANCH  13  16
HETATM   16  O   UNL     1      38.899 -14.780  -1.963  1.00  0.00    -0.356 OA
HETATM   17  C   UNL     1      38.387 -14.190  -3.151  1.00  0.00     0.210 C 
ENDBRANCH  13  16
ENDBRANCH   7  10
ENDBRANCH   5   7
ENDBRANCH   1   5
BRANCH   2  18
HETATM   18  C   UNL     1      42.778 -15.363   4.871  1.00  0.00     0.126 A 
HETATM   19  N   UNL     1      42.800 -16.486   4.099  1.00  0.00    -0.224 NA
HETATM   20  C   UNL     1      43.630 -17.487   4.500  1.00  0.00     0.151 A 
HETATM   21  C   UNL     1      44.448 -17.386   5.626  1.00  0.00     0.052 A 
HETATM   22  C   UNL     1      44.407 -16.219   6.385  1.00  0.00     0.006 A 
HETATM   23  C   UNL     1      43.554 -15.188   6.008  1.00  0.00     0.037 A 
BRANCH  20  24
HETATM   24  N   UNL     1      43.646 -18.695   3.738  1.00  0.00    -0.227 N 
HETATM   25  N   UNL     1      44.008 -19.894   4.274  1.00  0.00    -0.179 NA
HETATM   26  C   UNL     1      43.874 -20.760   3.268  1.00  0.00     0.141 A 
HETATM   27  C   UNL     1      43.435 -20.151   2.083  1.00  0.00     0.040 A 
HETATM   28  C   UNL     1      43.299 -18.824   2.409  1.00  0.00     0.122 A 
ENDBRANCH  20  24
ENDBRANCH   2  18
TORSDOF 7
ENDMDL
MODEL 8
REMARK VINA RESULT:      -7.2      1.831      2.212
REMARK  7 active torsions:
REMARK  status: ('A' for Active; 'I' for Inactive)
REMARK    1  A    between atoms: C_2  and  N_3 
REMARK    2  A    between atoms: C_2  and  C_17 
REMARK       I    between atoms: N_3  and  C_4 
REMARK    3  A    between atoms: C_4  and  C_5 
REMARK    4  A    between atoms: C_7  and  N_8 
REMARK    5  A    between atoms: C_17  and  O_18 
REMARK    6  A    between atoms: C_17  and  C_19 
REMARK    7  A    between atoms: C_22  and  O_23 
ROOT
HETATM    1  N   UNL     1      41.395 -12.908   4.142  1.00  0.00    -0.349 N 
HETATM    2  C   UNL     1      41.510 -12.305   5.375  1.00  0.00     0.270 C 
HETATM    3  O   UNL     1      40.569 -12.120   6.137  1.00  0.00    -0.266 OA
HETATM    4  H   UNL     1      42.219 -12.884   3.545  1.00  0.00     0.163 HD
ENDROOT
BRANCH   1   5
HETATM    5  C   UNL     1      40.114 -13.281   3.540  1.00  0.00     0.114 C 
HETATM    6  C   UNL     1      39.600 -12.117   2.688  1.00  0.00     0.035 C 
BRANCH   5   7
HETATM    7  C   UNL     1      40.286 -14.603   2.743  1.00  0.00     0.173 C 
BRANCH   7   8
HETATM    8  O   UNL     1      39.030 -15.288   2.628  1.00  0.00    -0.389 OA
HETATM    9  H   UNL     1      38.642 -15.306   3.522  1.00  0.00     0.210 HD
ENDBRANCH   7   8
BRANCH   7  10
HETATM   10  C   UNL     1      41.356 -15.529   3.288  1.00  0.00    -0.028 A 
HETATM   11  C   UNL     1      41.265 -15.998   4.605  1.00  0.00     0.012 A 
HETATM   12  C   UNL     1      42.239 -16.855   5.122  1.00  0.00     0.037 A 
HETATM   13  C   UNL     1      43.316 -17.270   4.336  1.00  0.00     0.068 A 
HETATM   14  C   UNL     1      43.413 -16.811   3.023  1.00  0.00     0.037 A 
HETATM   15  C   UNL     1      42.442 -15.946   2.505  1.00  0.00     0.012 A 
BRANCH  13  16
HETATM   16  O   UNL     1      44.191 -18.112   4.963  1.00  0.00    -0.356 OA
HETATM   17  C   UNL     1      43.632 -19.096   5.823  1.00  0.00     0.210 C 
ENDBRANCH  13  16
ENDBRANCH   7  10
ENDBRANCH   5   7
ENDBRANCH   1   5
BRANCH   2  18
HETATM   18  C   UNL     1      42.900 -11.868   5.724  1.00  0.00     0.126 A 
HETATM   19  N   UNL     1      43.096 -11.448   7.005  1.00  0.00    -0.224 NA
HETATM   20  C   UNL     1      44.352 -11.033   7.327  1.00  0.00     0.151 A 
HETATM   21  C   UNL     1      45.410 -11.049   6.419  1.00  0.00     0.052 A 
HETATM   22  C   UNL     1      45.176 -11.496   5.120  1.00  0.00     0.006 A 
HETATM   23  C   UNL     1      43.898 -11.908   4.759  1.00  0.00     0.037 A 
BRANCH  20  24
HETATM   24  N   UNL     1      44.581 -10.546   8.651  1.00  0.00    -0.227 N 
HETATM   25  N   UNL     1      44.042 -11.138   9.752  1.00  0.00    -0.179 NA
HETATM   26  C   UNL     1      44.500 -10.415  10.775  1.00  0.00     0.141 A 
HETATM   27  C   UNL     1      45.327  -9.358  10.364  1.00  0.00     0.040 A 
HETATM   28  C   UNL     1      45.361  -9.461   8.995  1.00  0.00     0.122 A 
ENDBRANCH  20  24
ENDBRANCH   2  18
TORSDOF 7
ENDMDL
MODEL 9
REMARK VINA RESULT:      -7.1      3.741      8.337
REMARK  7 active torsions:
REMARK  status: ('A' for Active; 'I' for Inactive)
REMARK    1  A    between atoms: C_2  and  N_3 
REMARK    2  A    between atoms: C_2  and  C_17 
REMARK       I    between atoms: N_3  and  C_4 
REMARK    3  A    between atoms: C_4  and  C_5 
REMARK    4  A    between atoms: C_7  and  N_8 
REMARK    5  A    between atoms: C_17  and  O_18 
REMARK    6  A    between atoms: C_17  and  C_19 
REMARK    7  A    between atoms: C_22  and  O_23 
ROOT
HETATM    1  N   UNL     1      42.152 -13.179   4.872  1.00  0.00    -0.349 N 
HETATM    2  C   UNL     1      42.917 -14.277   5.195  1.00  0.00     0.270 C 
HETATM    3  O   UNL     1      43.444 -14.448   6.288  1.00  0.00    -0.266 OA
HETATM    4  H   UNL     1      41.881 -13.084   3.895  1.00  0.00     0.163 HD
ENDROOT
BRANCH   1   5
HETATM    5  C   UNL     1      41.985 -12.022   5.753  1.00  0.00     0.114 C 
HETATM    6  C   UNL     1      42.801 -10.848   5.202  1.00  0.00     0.035 C 
BRANCH   5   7
HETATM    7  C   UNL     1      40.472 -11.706   5.906  1.00  0.00     0.173 C 
BRANCH   7   8
HETATM    8  O   UNL     1      39.849 -12.652   6.787  1.00  0.00    -0.389 OA
HETATM    9  H   UNL     1      40.458 -13.409   6.857  1.00  0.00     0.210 HD
ENDBRANCH   7   8
BRANCH   7  10
HETATM   10  C   UNL     1      39.715 -11.611   4.596  1.00  0.00    -0.028 A 
HETATM   11  C   UNL     1      39.263 -10.365   4.143  1.00  0.00     0.012 A 
HETATM   12  C   UNL     1      38.568 -10.259   2.936  1.00  0.00     0.037 A 
HETATM   13  C   UNL     1      38.318 -11.387   2.153  1.00  0.00     0.068 A 
HETATM   14  C   UNL     1      38.766 -12.631   2.594  1.00  0.00     0.037 A 
HETATM   15  C   UNL     1      39.457 -12.742   3.807  1.00  0.00     0.012 A 
BRANCH  13  16
HETATM   16  O   UNL     1      37.634 -11.140   0.996  1.00  0.00    -0.356 OA
HETATM   17  C   UNL     1      38.407 -10.973  -0.185  1.00  0.00     0.210 C 
ENDBRANCH  13  16
ENDBRANCH   7  10
ENDBRANCH   5   7
ENDBRANCH   1   5
BRANCH   2  18
HETATM   18  C   UNL     1      43.076 -15.270   4.084  1.00  0.00     0.126 A 
HETATM   19  N   UNL     1      43.273 -16.566   4.458  1.00  0.00    -0.224 NA
HETATM   20  C   UNL     1      43.436 -17.473   3.456  1.00  0.00     0.151 A 
HETATM   21  C   UNL     1      43.382 -17.127   2.106  1.00  0.00     0.052 A 
HETATM   22  C   UNL     1      43.167 -15.794   1.760  1.00  0.00     0.006 A 
HETATM   23  C   UNL     1      43.017 -14.844   2.764  1.00  0.00     0.037 A 
BRANCH  20  24
HETATM   24  N   UNL     1      43.687 -18.833   3.813  1.00  0.00    -0.227 N 
HETATM   25  N   UNL     1      43.665 -19.846   2.902  1.00  0.00    -0.179 NA
HETATM   26  C   UNL     1      43.963 -20.936   3.611  1.00  0.00     0.141 A 
HETATM   27  C   UNL     1      44.177 -20.657   4.969  1.00  0.00     0.040 A 
HETATM   28  C   UNL     1      43.991 -19.301   5.075  1.00  0.00     0.122 A 
ENDBRANCH  20  24
ENDBRANCH   2  18
TORSDOF 7
ENDMDL
MODEL 10
REMARK VINA RESULT:      -7.1      3.106      9.522
REMARK  7 active torsions:
REMARK  status: ('A' for Active; 'I' for Inactive)
REMARK    1  A    between atoms: C_2  and  N_3 
REMARK    2  A    between atoms: C_2  and  C_17 
REMARK       I    between atoms: N_3  and  C_4 
REMARK    3  A    between atoms: C_4  and  C_5 
REMARK    4  A    between atoms: C_7  and  N_8 
REMARK    5  A    between atoms: C_17  and  O_18 
REMARK    6  A    between atoms: C_17  and  C_19 
REMARK    7  A    between atoms: C_22  and  O_23 
ROOT
HETATM    1  N   UNL     1      44.202 -10.849   8.544  1.00  0.00    -0.349 N 
HETATM    2  C   UNL     1      44.944 -11.301   7.476  1.00  0.00     0.270 C 
HETATM    3  O   UNL     1      46.134 -11.060   7.317  1.00  0.00    -0.266 OA
HETATM    4  H   UNL     1      43.197 -11.000   8.497  1.00  0.00     0.163 HD
ENDROOT
BRANCH   1   5
HETATM    5  C   UNL     1      44.716  -9.916   9.549  1.00  0.00     0.114 C 
HETATM    6  C   UNL     1      44.367  -8.485   9.132  1.00  0.00     0.035 C 
BRANCH   5   7
HETATM    7  C   UNL     1      44.162 -10.308  10.945  1.00  0.00     0.173 C 
BRANCH   7   8
HETATM    8  O   UNL     1      43.680 -11.659  10.934  1.00  0.00    -0.389 OA
HETATM    9  H   UNL     1      43.237 -11.788  10.076  1.00  0.00     0.210 HD
ENDBRANCH   7   8
BRANCH   7  10
HETATM   10  C   UNL     1      43.106  -9.364  11.489  1.00  0.00    -0.028 A 
HETATM   11  C   UNL     1      43.471  -8.359  12.393  1.00  0.00     0.012 A 
HETATM   12  C   UNL     1      42.512  -7.478  12.899  1.00  0.00     0.037 A 
HETATM   13  C   UNL     1      41.176  -7.574  12.508  1.00  0.00     0.068 A 
HETATM   14  C   UNL     1      40.803  -8.570  11.607  1.00  0.00     0.037 A 
HETATM   15  C   UNL     1      41.761  -9.459  11.103  1.00  0.00     0.012 A 
BRANCH  13  16
HETATM   16  O   UNL     1      40.345  -6.649  13.075  1.00  0.00    -0.356 OA
HETATM   17  C   UNL     1      40.280  -6.629  14.496  1.00  0.00     0.210 C 
ENDBRANCH  13  16
ENDBRANCH   7  10
ENDBRANCH   5   7
ENDBRANCH   1   5
BRANCH   2  18
HETATM   18  C   UNL     1      44.171 -12.122   6.488  1.00  0.00     0.126 A 
HETATM   19  N   UNL     1      44.146 -13.466   6.709  1.00  0.00    -0.224 NA
HETATM   20  C   UNL     1      43.461 -14.222   5.808  1.00  0.00     0.151 A 
HETATM   21  C   UNL     1      42.787 -13.672   4.717  1.00  0.00     0.052 A 
HETATM   22  C   UNL     1      42.824 -12.292   4.529  1.00  0.00     0.006 A 
HETATM   23  C   UNL     1      43.533 -11.499   5.424  1.00  0.00     0.037 A 
BRANCH  20  24
HETATM   24  N   UNL     1      43.450 -15.639   5.987  1.00  0.00    -0.227 N 
HETATM   25  N   UNL     1      43.338 -16.221   7.214  1.00  0.00    -0.179 NA
HETATM   26  C   UNL     1      43.347 -17.531   6.961  1.00  0.00     0.141 A 
HETATM   27  C   UNL     1      43.466 -17.818   5.592  1.00  0.00     0.040 A 
HETATM   28  C   UNL     1      43.534 -16.586   4.988  1.00  0.00     0.122 A 
ENDBRANCH  20  24
ENDBRANCH   2  18
TORSDOF 7
ENDMDL
