MODEL 1
REMARK VINA RESULT:      -9.0      0.000      0.000
REMARK  6 active torsions:
REMARK  status: ('A' for Active; 'I' for Inactive)
REMARK    1  A    between atoms: O_2  and  C_3 
REMARK    2  A    between atoms: C_6  and  C_7 
REMARK    3  A    between atoms: C_13  and  C_14 
REMARK       I    between atoms: C_14  and  N_15 
REMARK    4  A    between atoms: N_15  and  C_16 
REMARK    5  A    between atoms: C_16  and  C_17 
REMARK    6  A    between atoms: C_24  and  C_25 
ROOT
HETATM    1  C   UNL     1      40.961 -15.682   2.845  1.00  0.00     0.118 C 
HETATM    2  N   UNL     1      40.976 -14.525   3.746  1.00  0.00    -0.365 N 
HETATM    3  C   UNL     1      40.231 -13.429   3.428  1.00  0.00     0.138 A 
HETATM    4  N   UNL     1      39.674 -13.305   2.171  1.00  0.00    -0.240 N 
HETATM    5  N   UNL     1      38.910 -12.218   2.020  1.00  0.00    -0.181 NA
HETATM    6  C   UNL     1      39.072 -11.569   3.175  1.00  0.00     0.160 A 
HETATM    7  C   UNL     1      39.881 -12.273   4.104  1.00  0.00     0.096 A 
HETATM    8  C   UNL     1      39.840 -14.268   1.096  1.00  0.00     0.221 C 
HETATM    9  C   UNL     1      41.038 -15.188   1.395  1.00  0.00     0.066 C 
HETATM   10  H   UNL     1      41.846 -14.408   4.268  1.00  0.00     0.161 HD
ENDROOT
BRANCH   7  11
HETATM   11  C   UNL     1      40.176 -11.817   5.448  1.00  0.00     0.257 C 
HETATM   12  N   UNL     1      41.129 -10.829   5.552  1.00  0.00    -0.352 N 
HETATM   13  H   UNL     1      41.692 -10.640   4.732  1.00  0.00     0.163 HD
HETATM   14  O   UNL     1      39.627 -12.315   6.425  1.00  0.00    -0.267 OA
BRANCH  12  15
HETATM   15  C   UNL     1      41.631 -10.436   6.848  1.00  0.00     0.161 C 
BRANCH  15  16
HETATM   16  C   UNL     1      43.111 -10.674   7.016  1.00  0.00    -0.041 A 
HETATM   17  C   UNL     1      43.877 -11.290   6.016  1.00  0.00     0.009 A 
HETATM   18  C   UNL     1      45.260 -11.418   6.157  1.00  0.00     0.001 A 
HETATM   19  C   UNL     1      45.897 -10.914   7.288  1.00  0.00     0.000 A 
HETATM   20  C   UNL     1      45.152 -10.284   8.282  1.00  0.00     0.001 A 
HETATM   21  C   UNL     1      43.768 -10.162   8.145  1.00  0.00     0.009 A 
ENDBRANCH  15  16
ENDBRANCH  12  15
ENDBRANCH   7  11
BRANCH   1  22
HETATM   22  C   UNL     1      42.023 -16.684   3.258  1.00  0.00    -0.035 A 
HETATM   23  C   UNL     1      42.478 -16.676   4.589  1.00  0.00     0.012 A 
HETATM   24  C   UNL     1      43.403 -17.622   5.048  1.00  0.00     0.037 A 
HETATM   25  C   UNL     1      43.895 -18.595   4.182  1.00  0.00     0.068 A 
HETATM   26  C   UNL     1      43.483 -18.588   2.850  1.00  0.00     0.037 A 
HETATM   27  C   UNL     1      42.559 -17.643   2.388  1.00  0.00     0.012 A 
BRANCH  25  28
HETATM   28  O   UNL     1      44.775 -19.589   4.506  1.00  0.00    -0.356 OA
HETATM   29  C   UNL     1      44.254 -20.680   5.255  1.00  0.00     0.210 C 
ENDBRANCH  25  28
ENDBRANCH   1  22
BRANCH   8  30
HETATM   30  C   UNL     1      40.044 -13.604  -0.250  1.00  0.00     0.409 C 
HETATM   31  F   UNL     1      40.979 -12.628  -0.209  1.00  0.00    -0.169 F 
HETATM   32  F   UNL     1      40.494 -14.528  -1.143  1.00  0.00    -0.169 F 
HETATM   33  F   UNL     1      38.914 -13.096  -0.782  1.00  0.00    -0.169 F 
ENDBRANCH   8  30
TORSDOF 6
ENDMDL
MODEL 2
REMARK VINA RESULT:      -8.6      2.581      3.686
REMARK  6 active torsions:
REMARK  status: ('A' for Active; 'I' for Inactive)
REMARK    1  A    between atoms: O_2  and  C_3 
REMARK    2  A    between atoms: C_6  and  C_7 
REMARK    3  A    between atoms: C_13  and  C_14 
REMARK       I    between atoms: C_14  and  N_15 
REMARK    4  A    between atoms: N_15  and  C_16 
REMARK    5  A    between atoms: C_16  and  C_17 
REMARK    6  A    between atoms: C_24  and  C_25 
ROOT
HETATM    1  C   UNL     1      42.086 -14.457   3.985  1.00  0.00     0.118 C 
HETATM    2  N   UNL     1      42.844 -13.705   4.992  1.00  0.00    -0.365 N 
HETATM    3  C   UNL     1      42.562 -12.385   5.181  1.00  0.00     0.138 A 
HETATM    4  N   UNL     1      41.764 -11.706   4.283  1.00  0.00    -0.240 N 
HETATM    5  N   UNL     1      41.512 -10.439   4.630  1.00  0.00    -0.181 NA
HETATM    6  C   UNL     1      42.259 -10.268   5.722  1.00  0.00     0.160 A 
HETATM    7  C   UNL     1      42.938 -11.446   6.126  1.00  0.00     0.096 A 
HETATM    8  C   UNL     1      41.192 -12.290   3.082  1.00  0.00     0.221 C 
HETATM    9  C   UNL     1      41.931 -13.593   2.728  1.00  0.00     0.066 C 
HETATM   10  H   UNL     1      43.795 -14.044   5.145  1.00  0.00     0.161 HD
ENDROOT
BRANCH   7  11
HETATM   11  C   UNL     1      43.776 -11.549   7.305  1.00  0.00     0.257 C 
HETATM   12  N   UNL     1      43.502 -10.656   8.316  1.00  0.00    -0.352 N 
HETATM   13  H   UNL     1      42.894  -9.877   8.095  1.00  0.00     0.163 HD
HETATM   14  O   UNL     1      44.691 -12.364   7.369  1.00  0.00    -0.267 OA
BRANCH  12  15
HETATM   15  C   UNL     1      44.390 -10.547   9.450  1.00  0.00     0.161 C 
BRANCH  15  16
HETATM   16  C   UNL     1      43.733  -9.956  10.672  1.00  0.00    -0.041 A 
HETATM   17  C   UNL     1      43.265 -10.761  11.720  1.00  0.00     0.009 A 
HETATM   18  C   UNL     1      42.742 -10.185  12.880  1.00  0.00     0.001 A 
HETATM   19  C   UNL     1      42.700  -8.800  13.015  1.00  0.00     0.000 A 
HETATM   20  C   UNL     1      43.178  -7.987  11.991  1.00  0.00     0.001 A 
HETATM   21  C   UNL     1      43.694  -8.561  10.828  1.00  0.00     0.009 A 
ENDBRANCH  15  16
ENDBRANCH  12  15
ENDBRANCH   7  11
BRANCH   1  22
HETATM   22  C   UNL     1      42.707 -15.826   3.775  1.00  0.00    -0.035 A 
HETATM   23  C   UNL     1      43.419 -16.415   4.834  1.00  0.00     0.012 A 
HETATM   24  C   UNL     1      43.953 -17.705   4.724  1.00  0.00     0.037 A 
HETATM   25  C   UNL     1      43.787 -18.431   3.548  1.00  0.00     0.068 A 
HETATM   26  C   UNL     1      43.120 -17.841   2.475  1.00  0.00     0.037 A 
HETATM   27  C   UNL     1      42.586 -16.552   2.582  1.00  0.00     0.012 A 
BRANCH  25  28
HETATM   28  O   UNL     1      44.231 -19.704   3.319  1.00  0.00    -0.356 OA
HETATM   29  C   UNL     1      43.651 -20.391   2.217  1.00  0.00     0.210 C 
ENDBRANCH  25  28
ENDBRANCH   1  22
BRANCH   8  30
HETATM   30  C   UNL     1      41.248 -11.347   1.897  1.00  0.00     0.409 C 
HETATM   31  F   UNL     1      40.242 -10.444   1.907  1.00  0.00    -0.169 F 
HETATM   32  F   UNL     1      42.406 -10.631   1.947  1.00  0.00    -0.169 F 
HETATM   33  F   UNL     1      41.251 -11.974   0.704  1.00  0.00    -0.169 F 
ENDBRANCH   8  30
TORSDOF 6
ENDMDL
MODEL 3
REMARK VINA RESULT:      -8.5      3.106      8.269
REMARK  6 active torsions:
REMARK  status: ('A' for Active; 'I' for Inactive)
REMARK    1  A    between atoms: O_2  and  C_3 
REMARK    2  A    between atoms: C_6  and  C_7 
REMARK    3  A    between atoms: C_13  and  C_14 
REMARK       I    between atoms: C_14  and  N_15 
REMARK    4  A    between atoms: N_15  and  C_16 
REMARK    5  A    between atoms: C_16  and  C_17 
REMARK    6  A    between atoms: C_24  and  C_25 
ROOT
HETATM    1  C   UNL     1      43.374 -10.409   7.030  1.00  0.00     0.118 C 
HETATM    2  N   UNL     1      43.304 -11.875   7.019  1.00  0.00    -0.365 N 
HETATM    3  C   UNL     1      42.998 -12.513   5.854  1.00  0.00     0.138 A 
HETATM    4  N   UNL     1      42.520 -11.801   4.773  1.00  0.00    -0.240 N 
HETATM    5  N   UNL     1      42.329 -12.542   3.676  1.00  0.00    -0.181 NA
HETATM    6  C   UNL     1      42.588 -13.782   4.096  1.00  0.00     0.160 A 
HETATM    7  C   UNL     1      43.017 -13.836   5.448  1.00  0.00     0.096 A 
HETATM    8  C   UNL     1      42.273 -10.370   4.772  1.00  0.00     0.221 C 
HETATM    9  C   UNL     1      42.200  -9.848   6.218  1.00  0.00     0.066 C 
HETATM   10  H   UNL     1      43.028 -12.292   7.909  1.00  0.00     0.161 HD
ENDROOT
BRANCH   7  11
HETATM   11  C   UNL     1      43.408 -15.050   6.137  1.00  0.00     0.257 C 
HETATM   12  N   UNL     1      43.777 -16.105   5.334  1.00  0.00    -0.352 N 
HETATM   13  H   UNL     1      43.557 -16.036   4.348  1.00  0.00     0.163 HD
HETATM   14  O   UNL     1      43.375 -15.128   7.361  1.00  0.00    -0.267 OA
BRANCH  12  15
HETATM   15  C   UNL     1      44.003 -17.411   5.908  1.00  0.00     0.161 C 
BRANCH  15  16
HETATM   16  C   UNL     1      43.975 -18.526   4.893  1.00  0.00    -0.041 A 
HETATM   17  C   UNL     1      44.045 -19.873   5.274  1.00  0.00     0.009 A 
HETATM   18  C   UNL     1      43.926 -20.889   4.323  1.00  0.00     0.001 A 
HETATM   19  C   UNL     1      43.717 -20.572   2.984  1.00  0.00     0.000 A 
HETATM   20  C   UNL     1      43.628 -19.239   2.592  1.00  0.00     0.001 A 
HETATM   21  C   UNL     1      43.753 -18.222   3.540  1.00  0.00     0.009 A 
ENDBRANCH  15  16
ENDBRANCH  12  15
ENDBRANCH   7  11
BRANCH   1  22
HETATM   22  C   UNL     1      43.495  -9.900   8.454  1.00  0.00    -0.035 A 
HETATM   23  C   UNL     1      42.848  -8.701   8.801  1.00  0.00     0.012 A 
HETATM   24  C   UNL     1      42.864  -8.219  10.116  1.00  0.00     0.037 A 
HETATM   25  C   UNL     1      43.533  -8.927  11.111  1.00  0.00     0.068 A 
HETATM   26  C   UNL     1      44.214 -10.095  10.771  1.00  0.00     0.037 A 
HETATM   27  C   UNL     1      44.200 -10.579   9.458  1.00  0.00     0.012 A 
BRANCH  25  28
HETATM   28  O   UNL     1      43.602  -8.584  12.433  1.00  0.00    -0.356 OA
HETATM   29  C   UNL     1      42.440  -8.829  13.215  1.00  0.00     0.210 C 
ENDBRANCH  25  28
ENDBRANCH   1  22
BRANCH   8  30
HETATM   30  C   UNL     1      40.996 -10.003   4.044  1.00  0.00     0.409 C 
HETATM   31  F   UNL     1      39.946 -10.764   4.424  1.00  0.00    -0.169 F 
HETATM   32  F   UNL     1      40.663  -8.716   4.341  1.00  0.00    -0.169 F 
HETATM   33  F   UNL     1      41.102 -10.057   2.700  1.00  0.00    -0.169 F 
ENDBRANCH   8  30
TORSDOF 6
ENDMDL
MODEL 4
REMARK VINA RESULT:      -8.4      3.386      6.878
REMARK  6 active torsions:
REMARK  status: ('A' for Active; 'I' for Inactive)
REMARK    1  A    between atoms: O_2  and  C_3 
REMARK    2  A    between atoms: C_6  and  C_7 
REMARK    3  A    between atoms: C_13  and  C_14 
REMARK       I    between atoms: C_14  and  N_15 
REMARK    4  A    between atoms: N_15  and  C_16 
REMARK    5  A    between atoms: C_16  and  C_17 
REMARK    6  A    between atoms: C_24  and  C_25 
ROOT
HETATM    1  C   UNL     1      43.243 -15.223   3.172  1.00  0.00     0.118 C 
HETATM    2  N   UNL     1      42.295 -14.938   2.089  1.00  0.00    -0.365 N 
HETATM    3  C   UNL     1      41.884 -13.653   1.891  1.00  0.00     0.138 A 
HETATM    4  N   UNL     1      42.151 -12.682   2.835  1.00  0.00    -0.240 N 
HETATM    5  N   UNL     1      41.755 -11.455   2.480  1.00  0.00    -0.181 NA
HETATM    6  C   UNL     1      41.117 -11.663   1.327  1.00  0.00     0.160 A 
HETATM    7  C   UNL     1      41.164 -13.015   0.896  1.00  0.00     0.096 A 
HETATM    8  C   UNL     1      42.837 -12.921   4.093  1.00  0.00     0.221 C 
HETATM    9  C   UNL     1      42.834 -14.426   4.416  1.00  0.00     0.066 C 
HETATM   10  H   UNL     1      41.663 -15.708   1.867  1.00  0.00     0.161 HD
ENDROOT
BRANCH   7  11
HETATM   11  C   UNL     1      40.595 -13.503  -0.344  1.00  0.00     0.257 C 
HETATM   12  N   UNL     1      40.944 -12.808  -1.480  1.00  0.00    -0.352 N 
HETATM   13  H   UNL     1      41.391 -11.908  -1.354  1.00  0.00     0.163 HD
HETATM   14  O   UNL     1      39.823 -14.456  -0.361  1.00  0.00    -0.267 OA
BRANCH  12  15
HETATM   15  C   UNL     1      40.291 -13.091  -2.736  1.00  0.00     0.161 C 
BRANCH  15  16
HETATM   16  C   UNL     1      38.980 -12.367  -2.907  1.00  0.00    -0.041 A 
HETATM   17  C   UNL     1      37.750 -13.029  -2.786  1.00  0.00     0.009 A 
HETATM   18  C   UNL     1      36.550 -12.320  -2.859  1.00  0.00     0.001 A 
HETATM   19  C   UNL     1      36.563 -10.938  -3.035  1.00  0.00     0.000 A 
HETATM   20  C   UNL     1      37.777 -10.264  -3.140  1.00  0.00     0.001 A 
HETATM   21  C   UNL     1      38.978 -10.973  -3.074  1.00  0.00     0.009 A 
ENDBRANCH  15  16
ENDBRANCH  12  15
ENDBRANCH   7  11
BRANCH   1  22
HETATM   22  C   UNL     1      43.385 -16.722   3.364  1.00  0.00    -0.035 A 
HETATM   23  C   UNL     1      43.045 -17.575   2.299  1.00  0.00     0.012 A 
HETATM   24  C   UNL     1      43.223 -18.961   2.391  1.00  0.00     0.037 A 
HETATM   25  C   UNL     1      43.742 -19.522   3.554  1.00  0.00     0.068 A 
HETATM   26  C   UNL     1      44.042 -18.691   4.633  1.00  0.00     0.037 A 
HETATM   27  C   UNL     1      43.865 -17.306   4.544  1.00  0.00     0.012 A 
BRANCH  25  28
HETATM   28  O   UNL     1      43.991 -20.850   3.764  1.00  0.00    -0.356 OA
HETATM   29  C   UNL     1      43.976 -21.293   5.116  1.00  0.00     0.210 C 
ENDBRANCH  25  28
ENDBRANCH   1  22
BRANCH   8  30
HETATM   30  C   UNL     1      42.214 -12.161   5.246  1.00  0.00     0.409 C 
HETATM   31  F   UNL     1      40.864 -12.144   5.186  1.00  0.00    -0.169 F 
HETATM   32  F   UNL     1      42.537 -12.778   6.417  1.00  0.00    -0.169 F 
HETATM   33  F   UNL     1      42.656 -10.892   5.362  1.00  0.00    -0.169 F 
ENDBRANCH   8  30
TORSDOF 6
ENDMDL
MODEL 5
REMARK VINA RESULT:      -8.4      3.289      5.802
REMARK  6 active torsions:
REMARK  status: ('A' for Active; 'I' for Inactive)
REMARK    1  A    between atoms: O_2  and  C_3 
REMARK    2  A    between atoms: C_6  and  C_7 
REMARK    3  A    between atoms: C_13  and  C_14 
REMARK       I    between atoms: C_14  and  N_15 
REMARK    4  A    between atoms: N_15  and  C_16 
REMARK    5  A    between atoms: C_16  and  C_17 
REMARK    6  A    between atoms: C_24  and  C_25 
ROOT
HETATM    1  C   UNL     1      42.588 -15.468   2.112  1.00  0.00     0.118 C 
HETATM    2  N   UNL     1      42.500 -15.162   3.544  1.00  0.00    -0.365 N 
HETATM    3  C   UNL     1      43.200 -15.927   4.429  1.00  0.00     0.138 A 
HETATM    4  N   UNL     1      43.777 -17.113   4.021  1.00  0.00    -0.240 N 
HETATM    5  N   UNL     1      44.492 -17.724   4.971  1.00  0.00    -0.181 NA
HETATM    6  C   UNL     1      44.277 -16.967   6.049  1.00  0.00     0.160 A 
HETATM    7  C   UNL     1      43.481 -15.823   5.780  1.00  0.00     0.096 A 
HETATM    8  C   UNL     1      43.678 -17.660   2.679  1.00  0.00     0.221 C 
HETATM    9  C   UNL     1      42.518 -16.988   1.922  1.00  0.00     0.066 C 
HETATM   10  H   UNL     1      41.615 -14.741   3.833  1.00  0.00     0.161 HD
ENDROOT
BRANCH   7  11
HETATM   11  C   UNL     1      43.138 -14.812   6.760  1.00  0.00     0.257 C 
HETATM   12  N   UNL     1      43.080 -13.518   6.293  1.00  0.00    -0.352 N 
HETATM   13  H   UNL     1      43.472 -13.338   5.377  1.00  0.00     0.163 HD
HETATM   14  O   UNL     1      42.947 -15.101   7.936  1.00  0.00    -0.267 OA
BRANCH  12  15
HETATM   15  C   UNL     1      42.932 -12.417   7.216  1.00  0.00     0.161 C 
BRANCH  15  16
HETATM   16  C   UNL     1      44.216 -11.670   7.470  1.00  0.00    -0.041 A 
HETATM   17  C   UNL     1      45.289 -11.718   6.568  1.00  0.00     0.009 A 
HETATM   18  C   UNL     1      46.432 -10.946   6.781  1.00  0.00     0.001 A 
HETATM   19  C   UNL     1      46.510 -10.101   7.886  1.00  0.00     0.000 A 
HETATM   20  C   UNL     1      45.446 -10.029   8.781  1.00  0.00     0.001 A 
HETATM   21  C   UNL     1      44.305 -10.806   8.573  1.00  0.00     0.009 A 
ENDBRANCH  15  16
ENDBRANCH  12  15
ENDBRANCH   7  11
BRANCH   1  22
HETATM   22  C   UNL     1      41.565 -14.658   1.338  1.00  0.00    -0.035 A 
HETATM   23  C   UNL     1      41.659 -13.254   1.358  1.00  0.00     0.012 A 
HETATM   24  C   UNL     1      40.789 -12.456   0.606  1.00  0.00     0.037 A 
HETATM   25  C   UNL     1      39.803 -13.046  -0.180  1.00  0.00     0.068 A 
HETATM   26  C   UNL     1      39.673 -14.434  -0.176  1.00  0.00     0.037 A 
HETATM   27  C   UNL     1      40.540 -15.235   0.576  1.00  0.00     0.012 A 
BRANCH  25  28
HETATM   28  O   UNL     1      38.912 -12.387  -0.980  1.00  0.00    -0.356 OA
HETATM   29  C   UNL     1      38.124 -11.379  -0.359  1.00  0.00     0.210 C 
ENDBRANCH  25  28
ENDBRANCH   1  22
BRANCH   8  30
HETATM   30  C   UNL     1      43.471 -19.161   2.680  1.00  0.00     0.409 C 
HETATM   31  F   UNL     1      43.319 -19.662   3.926  1.00  0.00    -0.169 F 
HETATM   32  F   UNL     1      42.325 -19.457   2.005  1.00  0.00    -0.169 F 
HETATM   33  F   UNL     1      44.453 -19.844   2.058  1.00  0.00    -0.169 F 
ENDBRANCH   8  30
TORSDOF 6
ENDMDL
MODEL 6
REMARK VINA RESULT:      -8.4      3.393      7.996
REMARK  6 active torsions:
REMARK  status: ('A' for Active; 'I' for Inactive)
REMARK    1  A    between atoms: O_2  and  C_3 
REMARK    2  A    between atoms: C_6  and  C_7 
REMARK    3  A    between atoms: C_13  and  C_14 
REMARK       I    between atoms: C_14  and  N_15 
REMARK    4  A    between atoms: N_15  and  C_16 
REMARK    5  A    between atoms: C_16  and  C_17 
REMARK    6  A    between atoms: C_24  and  C_25 
ROOT
HETATM    1  C   UNL     1      42.601 -13.892   5.762  1.00  0.00     0.118 C 
HETATM    2  N   UNL     1      42.095 -13.668   4.404  1.00  0.00    -0.365 N 
HETATM    3  C   UNL     1      41.780 -14.744   3.629  1.00  0.00     0.138 A 
HETATM    4  N   UNL     1      42.162 -16.014   4.012  1.00  0.00    -0.240 N 
HETATM    5  N   UNL     1      41.726 -16.981   3.197  1.00  0.00    -0.181 NA
HETATM    6  C   UNL     1      41.144 -16.304   2.205  1.00  0.00     0.160 A 
HETATM    7  C   UNL     1      41.137 -14.900   2.413  1.00  0.00     0.096 A 
HETATM    8  C   UNL     1      42.929 -16.320   5.207  1.00  0.00     0.221 C 
HETATM    9  C   UNL     1      43.612 -15.045   5.734  1.00  0.00     0.066 C 
HETATM   10  H   UNL     1      42.434 -12.811   3.962  1.00  0.00     0.161 HD
ENDROOT
BRANCH   7  11
HETATM   11  C   UNL     1      40.526 -13.939   1.517  1.00  0.00     0.257 C 
HETATM   12  N   UNL     1      41.236 -13.650   0.373  1.00  0.00    -0.352 N 
HETATM   13  H   UNL     1      42.200 -13.958   0.335  1.00  0.00     0.163 HD
HETATM   14  O   UNL     1      39.460 -13.399   1.790  1.00  0.00    -0.267 OA
BRANCH  12  15
HETATM   15  C   UNL     1      40.813 -12.574  -0.493  1.00  0.00     0.161 C 
BRANCH  15  16
HETATM   16  C   UNL     1      39.731 -12.975  -1.464  1.00  0.00    -0.041 A 
HETATM   17  C   UNL     1      39.851 -14.114  -2.273  1.00  0.00     0.009 A 
HETATM   18  C   UNL     1      38.798 -14.513  -3.098  1.00  0.00     0.001 A 
HETATM   19  C   UNL     1      37.606 -13.793  -3.110  1.00  0.00     0.000 A 
HETATM   20  C   UNL     1      37.466 -12.670  -2.299  1.00  0.00     0.001 A 
HETATM   21  C   UNL     1      38.520 -12.265  -1.479  1.00  0.00     0.009 A 
ENDBRANCH  15  16
ENDBRANCH  12  15
ENDBRANCH   7  11
BRANCH   1  22
HETATM   22  C   UNL     1      43.103 -12.589   6.358  1.00  0.00    -0.035 A 
HETATM   23  C   UNL     1      42.302 -11.439   6.238  1.00  0.00     0.012 A 
HETATM   24  C   UNL     1      42.677 -10.226   6.829  1.00  0.00     0.037 A 
HETATM   25  C   UNL     1      43.865 -10.138   7.549  1.00  0.00     0.068 A 
HETATM   26  C   UNL     1      44.688 -11.260   7.639  1.00  0.00     0.037 A 
HETATM   27  C   UNL     1      44.316 -12.474   7.049  1.00  0.00     0.012 A 
BRANCH  25  28
HETATM   28  O   UNL     1      44.333  -9.029   8.196  1.00  0.00    -0.356 OA
HETATM   29  C   UNL     1      45.746  -8.895   8.287  1.00  0.00     0.210 C 
ENDBRANCH  25  28
ENDBRANCH   1  22
BRANCH   8  30
HETATM   30  C   UNL     1      43.979 -17.385   4.963  1.00  0.00     0.409 C 
HETATM   31  F   UNL     1      43.566 -18.615   5.342  1.00  0.00    -0.169 F 
HETATM   32  F   UNL     1      44.239 -17.463   3.628  1.00  0.00    -0.169 F 
HETATM   33  F   UNL     1      45.162 -17.126   5.556  1.00  0.00    -0.169 F 
ENDBRANCH   8  30
TORSDOF 6
ENDMDL
MODEL 7
REMARK VINA RESULT:      -8.2      4.487      8.381
REMARK  6 active torsions:
REMARK  status: ('A' for Active; 'I' for Inactive)
REMARK    1  A    between atoms: O_2  and  C_3 
REMARK    2  A    between atoms: C_6  and  C_7 
REMARK    3  A    between atoms: C_13  and  C_14 
REMARK       I    between atoms: C_14  and  N_15 
REMARK    4  A    between atoms: N_15  and  C_16 
REMARK    5  A    between atoms: C_16  and  C_17 
REMARK    6  A    between atoms: C_24  and  C_25 
ROOT
HETATM    1  C   UNL     1      41.039 -10.835  -2.186  1.00  0.00     0.118 C 
HETATM    2  N   UNL     1      41.348 -11.502  -0.916  1.00  0.00    -0.365 N 
HETATM    3  C   UNL     1      40.757 -12.696  -0.634  1.00  0.00     0.138 A 
HETATM    4  N   UNL     1      39.703 -13.151  -1.402  1.00  0.00    -0.240 N 
HETATM    5  N   UNL     1      39.266 -14.368  -1.059  1.00  0.00    -0.181 NA
HETATM    6  C   UNL     1      39.985 -14.654   0.029  1.00  0.00     0.160 A 
HETATM    7  C   UNL     1      40.941 -13.655   0.347  1.00  0.00     0.096 A 
HETATM    8  C   UNL     1      39.121 -12.425  -2.517  1.00  0.00     0.221 C 
HETATM    9  C   UNL     1      39.532 -10.943  -2.451  1.00  0.00     0.066 C 
HETATM   10  H   UNL     1      41.588 -10.866  -0.153  1.00  0.00     0.161 HD
ENDROOT
BRANCH   7  11
HETATM   11  C   UNL     1      41.881 -13.738   1.447  1.00  0.00     0.257 C 
HETATM   12  N   UNL     1      42.296 -15.005   1.789  1.00  0.00    -0.352 N 
HETATM   13  H   UNL     1      41.775 -15.783   1.402  1.00  0.00     0.163 HD
HETATM   14  O   UNL     1      42.250 -12.734   2.049  1.00  0.00    -0.267 OA
BRANCH  12  15
HETATM   15  C   UNL     1      43.081 -15.216   2.982  1.00  0.00     0.161 C 
BRANCH  15  16
HETATM   16  C   UNL     1      43.332 -16.672   3.286  1.00  0.00    -0.041 A 
HETATM   17  C   UNL     1      43.226 -17.660   2.298  1.00  0.00     0.009 A 
HETATM   18  C   UNL     1      43.551 -18.988   2.582  1.00  0.00     0.001 A 
HETATM   19  C   UNL     1      44.004 -19.341   3.851  1.00  0.00     0.000 A 
HETATM   20  C   UNL     1      44.131 -18.367   4.838  1.00  0.00     0.001 A 
HETATM   21  C   UNL     1      43.800 -17.041   4.558  1.00  0.00     0.009 A 
ENDBRANCH  15  16
ENDBRANCH  12  15
ENDBRANCH   7  11
BRANCH   1  22
HETATM   22  C   UNL     1      41.613  -9.431  -2.196  1.00  0.00    -0.035 A 
HETATM   23  C   UNL     1      41.501  -8.663  -3.369  1.00  0.00     0.012 A 
HETATM   24  C   UNL     1      41.947  -7.337  -3.417  1.00  0.00     0.037 A 
HETATM   25  C   UNL     1      42.517  -6.751  -2.289  1.00  0.00     0.068 A 
HETATM   26  C   UNL     1      42.672  -7.515  -1.133  1.00  0.00     0.037 A 
HETATM   27  C   UNL     1      42.228  -8.841  -1.083  1.00  0.00     0.012 A 
BRANCH  25  28
HETATM   28  O   UNL     1      42.965  -5.464  -2.192  1.00  0.00    -0.356 OA
HETATM   29  C   UNL     1      42.075  -4.445  -2.632  1.00  0.00     0.210 C 
ENDBRANCH  25  28
ENDBRANCH   1  22
BRANCH   8  30
HETATM   30  C   UNL     1      37.610 -12.524  -2.547  1.00  0.00     0.409 C 
HETATM   31  F   UNL     1      37.035 -11.474  -3.174  1.00  0.00    -0.169 F 
HETATM   32  F   UNL     1      37.246 -13.634  -3.248  1.00  0.00    -0.169 F 
HETATM   33  F   UNL     1      37.050 -12.657  -1.328  1.00  0.00    -0.169 F 
ENDBRANCH   8  30
TORSDOF 6
ENDMDL
MODEL 8
REMARK VINA RESULT:      -8.2     16.300     17.473
REMARK  6 active torsions:
REMARK  status: ('A' for Active; 'I' for Inactive)
REMARK    1  A    between atoms: O_2  and  C_3 
REMARK    2  A    between atoms: C_6  and  C_7 
REMARK    3  A    between atoms: C_13  and  C_14 
REMARK       I    between atoms: C_14  and  N_15 
REMARK    4  A    between atoms: N_15  and  C_16 
REMARK    5  A    between atoms: C_16  and  C_17 
REMARK    6  A    between atoms: C_24  and  C_25 
ROOT
HETATM    1  C   UNL     1      44.075 -29.222   0.437  1.00  0.00     0.118 C 
HETATM    2  N   UNL     1      45.443 -29.643   0.756  1.00  0.00    -0.365 N 
HETATM    3  C   UNL     1      46.468 -29.213  -0.033  1.00  0.00     0.138 A 
HETATM    4  N   UNL     1      46.209 -28.605  -1.244  1.00  0.00    -0.240 N 
HETATM    5  N   UNL     1      47.302 -28.169  -1.879  1.00  0.00    -0.181 NA
HETATM    6  C   UNL     1      48.298 -28.608  -1.107  1.00  0.00     0.160 A 
HETATM    7  C   UNL     1      47.848 -29.264   0.068  1.00  0.00     0.096 A 
HETATM    8  C   UNL     1      44.880 -28.397  -1.796  1.00  0.00     0.221 C 
HETATM    9  C   UNL     1      43.866 -29.308  -1.080  1.00  0.00     0.066 C 
HETATM   10  H   UNL     1      45.509 -30.553   1.215  1.00  0.00     0.161 HD
ENDROOT
BRANCH   7  11
HETATM   11  C   UNL     1      48.719 -29.793   1.099  1.00  0.00     0.257 C 
HETATM   12  N   UNL     1      48.701 -29.123   2.301  1.00  0.00    -0.352 N 
HETATM   13  H   UNL     1      48.256 -28.213   2.319  1.00  0.00     0.163 HD
HETATM   14  O   UNL     1      49.446 -30.757   0.888  1.00  0.00    -0.267 OA
BRANCH  12  15
HETATM   15  C   UNL     1      49.662 -29.448   3.329  1.00  0.00     0.161 C 
BRANCH  15  16
HETATM   16  C   UNL     1      49.151 -30.449   4.334  1.00  0.00    -0.041 A 
HETATM   17  C   UNL     1      47.787 -30.554   4.642  1.00  0.00     0.009 A 
HETATM   18  C   UNL     1      47.328 -31.549   5.508  1.00  0.00     0.001 A 
HETATM   19  C   UNL     1      48.222 -32.463   6.059  1.00  0.00     0.000 A 
HETATM   20  C   UNL     1      49.577 -32.383   5.749  1.00  0.00     0.001 A 
HETATM   21  C   UNL     1      50.038 -31.385   4.889  1.00  0.00     0.009 A 
ENDBRANCH  15  16
ENDBRANCH  12  15
ENDBRANCH   7  11
BRANCH   1  22
HETATM   22  C   UNL     1      43.078 -29.990   1.285  1.00  0.00    -0.035 A 
HETATM   23  C   UNL     1      42.800 -29.530   2.585  1.00  0.00     0.012 A 
HETATM   24  C   UNL     1      41.838 -30.153   3.388  1.00  0.00     0.037 A 
HETATM   25  C   UNL     1      41.135 -31.255   2.907  1.00  0.00     0.068 A 
HETATM   26  C   UNL     1      41.431 -31.747   1.637  1.00  0.00     0.037 A 
HETATM   27  C   UNL     1      42.393 -31.125   0.832  1.00  0.00     0.012 A 
BRANCH  25  28
HETATM   28  O   UNL     1      40.154 -31.936   3.573  1.00  0.00    -0.356 OA
HETATM   29  C   UNL     1      40.045 -31.690   4.970  1.00  0.00     0.210 C 
ENDBRANCH  25  28
ENDBRANCH   1  22
BRANCH   8  30
HETATM   30  C   UNL     1      44.825 -28.662  -3.286  1.00  0.00     0.409 C 
HETATM   31  F   UNL     1      45.589 -29.714  -3.655  1.00  0.00    -0.169 F 
HETATM   32  F   UNL     1      43.546 -28.974  -3.639  1.00  0.00    -0.169 F 
HETATM   33  F   UNL     1      45.166 -27.596  -4.040  1.00  0.00    -0.169 F 
ENDBRANCH   8  30
TORSDOF 6
ENDMDL
MODEL 9
REMARK VINA RESULT:      -8.1      3.292      5.748
REMARK  6 active torsions:
REMARK  status: ('A' for Active; 'I' for Inactive)
REMARK    1  A    between atoms: O_2  and  C_3 
REMARK    2  A    between atoms: C_6  and  C_7 
REMARK    3  A    between atoms: C_13  and  C_14 
REMARK       I    between atoms: C_14  and  N_15 
REMARK    4  A    between atoms: N_15  and  C_16 
REMARK    5  A    between atoms: C_16  and  C_17 
REMARK    6  A    between atoms: C_24  and  C_25 
ROOT
HETATM    1  C   UNL     1      42.029 -13.987   1.945  1.00  0.00     0.118 C 
HETATM    2  N   UNL     1      41.720 -13.166   3.121  1.00  0.00    -0.365 N 
HETATM    3  C   UNL     1      42.317 -13.463   4.310  1.00  0.00     0.138 A 
HETATM    4  N   UNL     1      42.999 -14.652   4.470  1.00  0.00    -0.240 N 
HETATM    5  N   UNL     1      43.595 -14.781   5.661  1.00  0.00    -0.181 NA
HETATM    6  C   UNL     1      43.192 -13.695   6.322  1.00  0.00     0.160 A 
HETATM    7  C   UNL     1      42.395 -12.824   5.535  1.00  0.00     0.096 A 
HETATM    8  C   UNL     1      43.120 -15.679   3.449  1.00  0.00     0.221 C 
HETATM    9  C   UNL     1      42.054 -15.463   2.359  1.00  0.00     0.066 C 
HETATM   10  H   UNL     1      40.785 -12.755   3.116  1.00  0.00     0.161 HD
ENDROOT
BRANCH   7  11
HETATM   11  C   UNL     1      41.868 -11.553   5.992  1.00  0.00     0.257 C 
HETATM   12  N   UNL     1      42.563 -10.947   7.014  1.00  0.00    -0.352 N 
HETATM   13  H   UNL     1      43.250 -11.508   7.504  1.00  0.00     0.163 HD
HETATM   14  O   UNL     1      40.846 -11.075   5.512  1.00  0.00    -0.267 OA
BRANCH  12  15
HETATM   15  C   UNL     1      42.024  -9.778   7.668  1.00  0.00     0.161 C 
BRANCH  15  16
HETATM   16  C   UNL     1      42.728  -9.432   8.956  1.00  0.00    -0.041 A 
HETATM   17  C   UNL     1      42.228  -8.458   9.832  1.00  0.00     0.009 A 
HETATM   18  C   UNL     1      42.848  -8.219  11.059  1.00  0.00     0.001 A 
HETATM   19  C   UNL     1      43.963  -8.964  11.436  1.00  0.00     0.000 A 
HETATM   20  C   UNL     1      44.462  -9.947  10.585  1.00  0.00     0.001 A 
HETATM   21  C   UNL     1      43.847 -10.182   9.354  1.00  0.00     0.009 A 
ENDBRANCH  15  16
ENDBRANCH  12  15
ENDBRANCH   7  11
BRANCH   1  22
HETATM   22  C   UNL     1      41.095 -13.637   0.801  1.00  0.00    -0.035 A 
HETATM   23  C   UNL     1      40.957 -12.288   0.429  1.00  0.00     0.012 A 
HETATM   24  C   UNL     1      40.167 -11.911  -0.664  1.00  0.00     0.037 A 
HETATM   25  C   UNL     1      39.495 -12.878  -1.406  1.00  0.00     0.068 A 
HETATM   26  C   UNL     1      39.590 -14.215  -1.022  1.00  0.00     0.037 A 
HETATM   27  C   UNL     1      40.379 -14.595   0.070  1.00  0.00     0.012 A 
BRANCH  25  28
HETATM   28  O   UNL     1      38.717 -12.651  -2.507  1.00  0.00    -0.356 OA
HETATM   29  C   UNL     1      37.400 -13.186  -2.477  1.00  0.00     0.210 C 
ENDBRANCH  25  28
ENDBRANCH   1  22
BRANCH   8  30
HETATM   30  C   UNL     1      42.981 -17.077   4.014  1.00  0.00     0.409 C 
HETATM   31  F   UNL     1      42.008 -17.165   4.947  1.00  0.00    -0.169 F 
HETATM   32  F   UNL     1      42.630 -17.933   3.013  1.00  0.00    -0.169 F 
HETATM   33  F   UNL     1      44.124 -17.568   4.536  1.00  0.00    -0.169 F 
ENDBRANCH   8  30
TORSDOF 6
ENDMDL
MODEL 10
REMARK VINA RESULT:      -8.0      3.241      6.639
REMARK  6 active torsions:
REMARK  status: ('A' for Active; 'I' for Inactive)
REMARK    1  A    between atoms: O_2  and  C_3 
REMARK    2  A    between atoms: C_6  and  C_7 
REMARK    3  A    between atoms: C_13  and  C_14 
REMARK       I    between atoms: C_14  and  N_15 
REMARK    4  A    between atoms: N_15  and  C_16 
REMARK    5  A    between atoms: C_16  and  C_17 
REMARK    6  A    between atoms: C_24  and  C_25 
ROOT
HETATM    1  C   UNL     1      42.971 -13.691   3.675  1.00  0.00     0.118 C 
HETATM    2  N   UNL     1      41.709 -13.239   3.078  1.00  0.00    -0.365 N 
HETATM    3  C   UNL     1      41.308 -11.951   3.275  1.00  0.00     0.138 A 
HETATM    4  N   UNL     1      41.937 -11.161   4.216  1.00  0.00    -0.240 N 
HETATM    5  N   UNL     1      41.490  -9.901   4.254  1.00  0.00    -0.181 NA
HETATM    6  C   UNL     1      40.472  -9.913   3.391  1.00  0.00     0.160 A 
HETATM    7  C   UNL     1      40.305 -11.162   2.739  1.00  0.00     0.096 A 
HETATM    8  C   UNL     1      43.020 -11.606   5.076  1.00  0.00     0.221 C 
HETATM    9  C   UNL     1      43.071 -13.144   5.104  1.00  0.00     0.066 C 
HETATM   10  H   UNL     1      41.008 -13.973   2.966  1.00  0.00     0.161 HD
ENDROOT
BRANCH   7  11
HETATM   11  C   UNL     1      39.308 -11.432   1.723  1.00  0.00     0.257 C 
HETATM   12  N   UNL     1      39.623 -11.020   0.448  1.00  0.00    -0.352 N 
HETATM   13  H   UNL     1      40.410 -10.392   0.344  1.00  0.00     0.163 HD
HETATM   14  O   UNL     1      38.238 -11.964   2.003  1.00  0.00    -0.267 OA
BRANCH  12  15
HETATM   15  C   UNL     1      38.629 -11.071  -0.599  1.00  0.00     0.161 C 
BRANCH  15  16
HETATM   16  C   UNL     1      38.692 -12.329  -1.427  1.00  0.00    -0.041 A 
HETATM   17  C   UNL     1      37.567 -12.825  -2.102  1.00  0.00     0.009 A 
HETATM   18  C   UNL     1      37.672 -13.941  -2.935  1.00  0.00     0.001 A 
HETATM   19  C   UNL     1      38.905 -14.562  -3.119  1.00  0.00     0.000 A 
HETATM   20  C   UNL     1      40.034 -14.071  -2.470  1.00  0.00     0.001 A 
HETATM   21  C   UNL     1      39.930 -12.960  -1.632  1.00  0.00     0.009 A 
ENDBRANCH  15  16
ENDBRANCH  12  15
ENDBRANCH   7  11
BRANCH   1  22
HETATM   22  C   UNL     1      43.110 -15.195   3.532  1.00  0.00    -0.035 A 
HETATM   23  C   UNL     1      43.093 -15.756   2.242  1.00  0.00     0.012 A 
HETATM   24  C   UNL     1      43.289 -17.128   2.042  1.00  0.00     0.037 A 
HETATM   25  C   UNL     1      43.503 -17.968   3.131  1.00  0.00     0.068 A 
HETATM   26  C   UNL     1      43.480 -17.431   4.418  1.00  0.00     0.037 A 
HETATM   27  C   UNL     1      43.284 -16.060   4.620  1.00  0.00     0.012 A 
BRANCH  25  28
HETATM   28  O   UNL     1      43.735 -19.314   3.074  1.00  0.00    -0.356 OA
HETATM   29  C   UNL     1      43.112 -20.023   2.010  1.00  0.00     0.210 C 
ENDBRANCH  25  28
ENDBRANCH   1  22
BRANCH   8  30
HETATM   30  C   UNL     1      42.886 -11.084   6.492  1.00  0.00     0.409 C 
HETATM   31  F   UNL     1      43.301  -9.804   6.614  1.00  0.00    -0.169 F 
HETATM   32  F   UNL     1      41.572 -11.097   6.853  1.00  0.00    -0.169 F 
HETATM   33  F   UNL     1      43.529 -11.834   7.410  1.00  0.00    -0.169 F 
ENDBRANCH   8  30
TORSDOF 6
ENDMDL
