MODEL 1
REMARK VINA RESULT:      -8.3      0.000      0.000
REMARK  7 active torsions:
REMARK  status: ('A' for Active; 'I' for Inactive)
REMARK    1  A    between atoms: C_6  and  C_7 
REMARK    2  A    between atoms: N_13  and  C_15 
REMARK    3  A    between atoms: C_15  and  C_16 
REMARK    4  A    between atoms: C_16  and  N_17 
REMARK       I    between atoms: N_17  and  C_18 
REMARK    5  A    between atoms: C_18  and  C_19 
REMARK    6  A    between atoms: C_19  and  N_20 
REMARK    7  A    between atoms: C_19  and  C_27 
ROOT
HETATM    1  C   UNL     1      42.097 -12.295   2.266  1.00  0.00     0.150 C 
ENDROOT
BRANCH   1   2
HETATM    2  C   UNL     1      42.219 -13.777   2.686  1.00  0.00     0.255 C 
BRANCH   2   3
HETATM    3  N   UNL     1      40.893 -14.391   3.108  1.00  0.00    -0.063 N 
HETATM    4  C   UNL     1      40.277 -13.939   4.421  1.00  0.00     0.272 C 
HETATM    5  C   UNL     1      41.026 -14.317   5.724  1.00  0.00     0.188 C 
HETATM    6  O   UNL     1      41.139 -15.733   5.959  1.00  0.00    -0.339 OA
HETATM    7  C   UNL     1      42.018 -16.464   5.223  1.00  0.00     0.077 A 
HETATM    8  C   UNL     1      41.991 -16.555   3.831  1.00  0.00     0.001 A 
HETATM    9  C   UNL     1      42.925 -17.232   5.960  1.00  0.00     0.037 A 
HETATM   10  C   UNL     1      42.957 -17.352   3.186  1.00  0.00     0.012 A 
HETATM   11  C   UNL     1      40.918 -15.903   3.022  1.00  0.00     0.276 C 
HETATM   12  C   UNL     1      43.901 -18.067   3.924  1.00  0.00     0.001 A 
HETATM   13  C   UNL     1      43.876 -18.019   5.313  1.00  0.00     0.003 A 
HETATM   14  H   UNL     1      40.211 -14.124   2.386  1.00  0.00     0.280 HD
BRANCH   5  15
HETATM   15  C   UNL     1      42.227 -13.434   6.041  1.00  0.00    -0.020 A 
HETATM   16  C   UNL     1      42.175 -12.049   5.943  1.00  0.00     0.059 A 
HETATM   17  S   UNL     1      43.651 -11.279   6.322  1.00  0.00    -0.113 SA
HETATM   18  C   UNL     1      44.380 -12.766   6.715  1.00  0.00     0.050 A 
HETATM   19  C   UNL     1      43.526 -13.828   6.515  1.00  0.00     0.017 A 
ENDBRANCH   5  15
ENDBRANCH   2   3
ENDBRANCH   1   2
BRANCH   1  20
HETATM   20  N   UNL     1      41.488 -12.039   0.956  1.00  0.00    -0.357 N 
HETATM   21  C   UNL     1      40.148 -11.723   0.805  1.00  0.00     0.253 C 
HETATM   22  O   UNL     1      39.357 -11.853   1.735  1.00  0.00    -0.271 OA
HETATM   23  H   UNL     1      42.136 -11.741   0.228  1.00  0.00     0.162 HD
BRANCH  21  24
HETATM   24  C   UNL     1      39.705 -11.200  -0.605  1.00  0.00     0.314 C 
BRANCH  24  25
HETATM   25  N   UNL     1      40.713 -10.249  -1.287  1.00  0.00    -0.050 N 
HETATM   26  H   UNL     1      41.500 -10.843  -1.580  1.00  0.00     0.281 HD
HETATM   27  C   UNL     1      40.150  -9.600  -2.547  1.00  0.00     0.262 C 
HETATM   28  C   UNL     1      41.242  -8.768  -3.230  1.00  0.00     0.195 C 
HETATM   29  O   UNL     1      41.752  -7.777  -2.336  1.00  0.00    -0.388 OA
HETATM   30  C   UNL     1      42.359  -8.365  -1.178  1.00  0.00     0.195 C 
HETATM   31  C   UNL     1      41.330  -9.177  -0.380  1.00  0.00     0.262 C 
ENDBRANCH  24  25
BRANCH  24  32
HETATM   32  C   UNL     1      39.273 -12.320  -1.523  1.00  0.00    -0.001 A 
HETATM   33  C   UNL     1      40.195 -13.147  -2.165  1.00  0.00     0.126 A 
HETATM   34  N   UNL     1      39.856 -14.132  -3.016  1.00  0.00    -0.272 NA
HETATM   35  C   UNL     1      38.542 -14.321  -3.264  1.00  0.00     0.116 A 
HETATM   36  C   UNL     1      37.547 -13.554  -2.687  1.00  0.00     0.020 A 
HETATM   37  C   UNL     1      37.918 -12.539  -1.807  1.00  0.00     0.012 A 
ENDBRANCH  24  32
ENDBRANCH  21  24
ENDBRANCH   1  20
TORSDOF 7
ENDMDL
MODEL 2
REMARK VINA RESULT:      -8.0      4.625      9.137
REMARK  7 active torsions:
REMARK  status: ('A' for Active; 'I' for Inactive)
REMARK    1  A    between atoms: C_6  and  C_7 
REMARK    2  A    between atoms: N_13  and  C_15 
REMARK    3  A    between atoms: C_15  and  C_16 
REMARK    4  A    between atoms: C_16  and  N_17 
REMARK       I    between atoms: N_17  and  C_18 
REMARK    5  A    between atoms: C_18  and  C_19 
REMARK    6  A    between atoms: C_19  and  N_20 
REMARK    7  A    between atoms: C_19  and  C_27 
ROOT
HETATM    1  C   UNL     1      40.263 -11.176   6.452  1.00  0.00     0.150 C 
ENDROOT
BRANCH   1   2
HETATM    2  C   UNL     1      40.867 -12.272   5.546  1.00  0.00     0.255 C 
BRANCH   2   3
HETATM    3  N   UNL     1      42.380 -12.377   5.661  1.00  0.00    -0.063 N 
HETATM    4  C   UNL     1      43.233 -11.473   4.787  1.00  0.00     0.272 C 
HETATM    5  C   UNL     1      43.193 -11.721   3.258  1.00  0.00     0.188 C 
HETATM    6  O   UNL     1      43.675 -13.015   2.849  1.00  0.00    -0.339 OA
HETATM    7  C   UNL     1      42.903 -14.114   3.063  1.00  0.00     0.077 A 
HETATM    8  C   UNL     1      42.450 -14.523   4.318  1.00  0.00     0.001 A 
HETATM    9  C   UNL     1      42.656 -14.903   1.935  1.00  0.00     0.037 A 
HETATM   10  C   UNL     1      41.660 -15.684   4.406  1.00  0.00     0.012 A 
HETATM   11  C   UNL     1      42.855 -13.812   5.568  1.00  0.00     0.276 C 
HETATM   12  C   UNL     1      41.364 -16.435   3.268  1.00  0.00     0.001 A 
HETATM   13  C   UNL     1      41.874 -16.052   2.034  1.00  0.00     0.003 A 
HETATM   14  H   UNL     1      42.612 -12.112   6.627  1.00  0.00     0.280 HD
BRANCH   5  15
HETATM   15  C   UNL     1      41.962 -11.154   2.558  1.00  0.00    -0.020 A 
HETATM   16  C   UNL     1      41.391  -9.943   2.929  1.00  0.00     0.059 A 
HETATM   17  S   UNL     1      40.007  -9.531   2.018  1.00  0.00    -0.113 SA
HETATM   18  C   UNL     1      40.179 -10.914   1.041  1.00  0.00     0.050 A 
HETATM   19  C   UNL     1      41.245 -11.695   1.435  1.00  0.00     0.017 A 
ENDBRANCH   5  15
ENDBRANCH   2   3
ENDBRANCH   1   2
BRANCH   1  20
HETATM   20  N   UNL     1      41.165 -10.589   7.450  1.00  0.00    -0.357 N 
HETATM   21  C   UNL     1      41.000  -9.304   7.940  1.00  0.00     0.253 C 
HETATM   22  O   UNL     1      40.222  -8.517   7.407  1.00  0.00    -0.271 OA
HETATM   23  H   UNL     1      41.668 -11.261   8.027  1.00  0.00     0.162 HD
BRANCH  21  24
HETATM   24  C   UNL     1      41.854  -8.917   9.196  1.00  0.00     0.314 C 
BRANCH  24  25
HETATM   25  N   UNL     1      41.426  -9.612  10.507  1.00  0.00    -0.050 N 
HETATM   26  H   UNL     1      41.687 -10.600  10.396  1.00  0.00     0.281 HD
HETATM   27  C   UNL     1      42.178  -9.086  11.725  1.00  0.00     0.262 C 
HETATM   28  C   UNL     1      41.789  -9.901  12.963  1.00  0.00     0.195 C 
HETATM   29  O   UNL     1      40.377  -9.845  13.178  1.00  0.00    -0.388 OA
HETATM   30  C   UNL     1      39.647 -10.406  12.081  1.00  0.00     0.195 C 
HETATM   31  C   UNL     1      39.919  -9.621  10.790  1.00  0.00     0.262 C 
ENDBRANCH  24  25
BRANCH  24  32
HETATM   32  C   UNL     1      43.338  -9.050   8.944  1.00  0.00    -0.001 A 
HETATM   33  C   UNL     1      44.136  -7.951   8.627  1.00  0.00     0.126 A 
HETATM   34  N   UNL     1      45.453  -8.029   8.362  1.00  0.00    -0.272 NA
HETATM   35  C   UNL     1      46.028  -9.250   8.400  1.00  0.00     0.116 A 
HETATM   36  C   UNL     1      45.328 -10.405   8.696  1.00  0.00     0.020 A 
HETATM   37  C   UNL     1      43.965 -10.303   8.969  1.00  0.00     0.012 A 
ENDBRANCH  24  32
ENDBRANCH  21  24
ENDBRANCH   1  20
TORSDOF 7
ENDMDL
MODEL 3
REMARK VINA RESULT:      -8.0      2.427      8.206
REMARK  7 active torsions:
REMARK  status: ('A' for Active; 'I' for Inactive)
REMARK    1  A    between atoms: C_6  and  C_7 
REMARK    2  A    between atoms: N_13  and  C_15 
REMARK    3  A    between atoms: C_15  and  C_16 
REMARK    4  A    between atoms: C_16  and  N_17 
REMARK       I    between atoms: N_17  and  C_18 
REMARK    5  A    between atoms: C_18  and  C_19 
REMARK    6  A    between atoms: C_19  and  N_20 
REMARK    7  A    between atoms: C_19  and  C_27 
ROOT
HETATM    1  C   UNL     1      40.024 -15.542   1.127  1.00  0.00     0.150 C 
ENDROOT
BRANCH   1   2
HETATM    2  C   UNL     1      40.047 -14.002   1.004  1.00  0.00     0.255 C 
BRANCH   2   3
HETATM    3  N   UNL     1      41.088 -13.495   0.018  1.00  0.00    -0.063 N 
HETATM    4  C   UNL     1      41.662 -12.105   0.230  1.00  0.00     0.272 C 
HETATM    5  C   UNL     1      40.700 -10.904   0.045  1.00  0.00     0.188 C 
HETATM    6  O   UNL     1      40.161 -10.768  -1.283  1.00  0.00    -0.339 OA
HETATM    7  C   UNL     1      39.194 -11.626  -1.703  1.00  0.00     0.077 A 
HETATM    8  C   UNL     1      39.343 -13.012  -1.754  1.00  0.00     0.001 A 
HETATM    9  C   UNL     1      38.030 -11.026  -2.195  1.00  0.00     0.037 A 
HETATM   10  C   UNL     1      38.266 -13.792  -2.214  1.00  0.00     0.012 A 
HETATM   11  C   UNL     1      40.639 -13.675  -1.418  1.00  0.00     0.276 C 
HETATM   12  C   UNL     1      37.082 -13.192  -2.646  1.00  0.00     0.001 A 
HETATM   13  C   UNL     1      36.970 -11.807  -2.650  1.00  0.00     0.003 A 
HETATM   14  H   UNL     1      41.891 -14.132   0.097  1.00  0.00     0.280 HD
BRANCH   5  15
HETATM   15  C   UNL     1      39.775 -10.648   1.231  1.00  0.00    -0.020 A 
HETATM   16  C   UNL     1      40.190 -10.824   2.545  1.00  0.00     0.059 A 
HETATM   17  S   UNL     1      38.970 -10.502   3.696  1.00  0.00    -0.113 SA
HETATM   18  C   UNL     1      37.878 -10.032   2.479  1.00  0.00     0.050 A 
HETATM   19  C   UNL     1      38.422 -10.164   1.219  1.00  0.00     0.017 A 
ENDBRANCH   5  15
ENDBRANCH   2   3
ENDBRANCH   1   2
BRANCH   1  20
HETATM   20  N   UNL     1      40.918 -16.127   2.134  1.00  0.00    -0.357 N 
HETATM   21  C   UNL     1      42.297 -16.080   2.024  1.00  0.00     0.253 C 
HETATM   22  O   UNL     1      42.839 -15.739   0.975  1.00  0.00    -0.271 OA
HETATM   23  H   UNL     1      40.514 -16.228   3.063  1.00  0.00     0.162 HD
BRANCH  21  24
HETATM   24  C   UNL     1      43.117 -16.484   3.297  1.00  0.00     0.314 C 
BRANCH  24  25
HETATM   25  N   UNL     1      42.561 -15.929   4.626  1.00  0.00    -0.050 N 
HETATM   26  H   UNL     1      43.172 -16.305   5.363  1.00  0.00     0.281 HD
HETATM   27  C   UNL     1      42.646 -14.408   4.711  1.00  0.00     0.262 C 
HETATM   28  C   UNL     1      42.188 -13.943   6.098  1.00  0.00     0.195 C 
HETATM   29  O   UNL     1      40.857 -14.391   6.365  1.00  0.00    -0.388 OA
HETATM   30  C   UNL     1      40.766 -15.821   6.369  1.00  0.00     0.195 C 
HETATM   31  C   UNL     1      41.147 -16.393   4.997  1.00  0.00     0.262 C 
ENDBRANCH  24  25
BRANCH  24  32
HETATM   32  C   UNL     1      43.371 -17.972   3.368  1.00  0.00    -0.001 A 
HETATM   33  C   UNL     1      43.936 -18.573   4.491  1.00  0.00     0.126 A 
HETATM   34  N   UNL     1      44.211 -19.887   4.583  1.00  0.00    -0.272 NA
HETATM   35  C   UNL     1      43.924 -20.663   3.516  1.00  0.00     0.116 A 
HETATM   36  C   UNL     1      43.369 -20.169   2.350  1.00  0.00     0.020 A 
HETATM   37  C   UNL     1      43.091 -18.805   2.275  1.00  0.00     0.012 A 
ENDBRANCH  24  32
ENDBRANCH  21  24
ENDBRANCH   1  20
TORSDOF 7
ENDMDL
MODEL 4
REMARK VINA RESULT:      -7.8      2.859      7.955
REMARK  7 active torsions:
REMARK  status: ('A' for Active; 'I' for Inactive)
REMARK    1  A    between atoms: C_6  and  C_7 
REMARK    2  A    between atoms: N_13  and  C_15 
REMARK    3  A    between atoms: C_15  and  C_16 
REMARK    4  A    between atoms: C_16  and  N_17 
REMARK       I    between atoms: N_17  and  C_18 
REMARK    5  A    between atoms: C_18  and  C_19 
REMARK    6  A    between atoms: C_19  and  N_20 
REMARK    7  A    between atoms: C_19  and  C_27 
ROOT
HETATM    1  C   UNL     1      41.111 -14.654   0.716  1.00  0.00     0.150 C 
ENDROOT
BRANCH   1   2
HETATM    2  C   UNL     1      40.688 -13.168   0.702  1.00  0.00     0.255 C 
BRANCH   2   3
HETATM    3  N   UNL     1      39.303 -12.934   1.285  1.00  0.00    -0.063 N 
HETATM    4  C   UNL     1      38.420 -11.879   0.641  1.00  0.00     0.272 C 
HETATM    5  C   UNL     1      38.873 -10.402   0.764  1.00  0.00     0.188 C 
HETATM    6  O   UNL     1      38.935  -9.906   2.114  1.00  0.00    -0.339 OA
HETATM    7  C   UNL     1      39.951 -10.302   2.926  1.00  0.00     0.077 A 
HETATM    8  C   UNL     1      40.223 -11.631   3.252  1.00  0.00     0.001 A 
HETATM    9  C   UNL     1      40.681  -9.268   3.523  1.00  0.00     0.037 A 
HETATM   10  C   UNL     1      41.304 -11.910   4.110  1.00  0.00     0.012 A 
HETATM   11  C   UNL     1      39.347 -12.749   2.788  1.00  0.00     0.276 C 
HETATM   12  C   UNL     1      42.069 -10.877   4.654  1.00  0.00     0.001 A 
HETATM   13  C   UNL     1      41.748  -9.555   4.371  1.00  0.00     0.003 A 
HETATM   14  H   UNL     1      38.791 -13.818   1.170  1.00  0.00     0.280 HD
BRANCH   5  15
HETATM   15  C   UNL     1      39.979  -9.998  -0.205  1.00  0.00    -0.020 A 
HETATM   16  C   UNL     1      39.753  -9.855  -1.569  1.00  0.00     0.059 A 
HETATM   17  S   UNL     1      41.149  -9.422  -2.452  1.00  0.00    -0.113 SA
HETATM   18  C   UNL     1      42.078  -9.326  -1.029  1.00  0.00     0.050 A 
HETATM   19  C   UNL     1      41.346  -9.662   0.089  1.00  0.00     0.017 A 
ENDBRANCH   5  15
ENDBRANCH   2   3
ENDBRANCH   1   2
BRANCH   1  20
HETATM   20  N   UNL     1      42.146 -15.025   1.689  1.00  0.00    -0.357 N 
HETATM   21  C   UNL     1      41.913 -15.918   2.721  1.00  0.00     0.253 C 
HETATM   22  O   UNL     1      40.773 -16.278   3.004  1.00  0.00    -0.271 OA
HETATM   23  H   UNL     1      43.105 -14.903   1.368  1.00  0.00     0.162 HD
BRANCH  21  24
HETATM   24  C   UNL     1      43.171 -16.435   3.500  1.00  0.00     0.314 C 
BRANCH  24  25
HETATM   25  N   UNL     1      43.240 -15.996   4.979  1.00  0.00    -0.050 N 
HETATM   26  H   UNL     1      44.086 -16.440   5.362  1.00  0.00     0.281 HD
HETATM   27  C   UNL     1      43.415 -14.490   5.140  1.00  0.00     0.262 C 
HETATM   28  C   UNL     1      43.594 -14.146   6.623  1.00  0.00     0.195 C 
HETATM   29  O   UNL     1      42.477 -14.609   7.384  1.00  0.00    -0.388 OA
HETATM   30  C   UNL     1      42.336 -16.033   7.315  1.00  0.00     0.195 C 
HETATM   31  C   UNL     1      42.089 -16.484   5.869  1.00  0.00     0.262 C 
ENDBRANCH  24  25
BRANCH  24  32
HETATM   32  C   UNL     1      43.371 -17.925   3.342  1.00  0.00    -0.001 A 
HETATM   33  C   UNL     1      43.978 -18.698   4.331  1.00  0.00     0.126 A 
HETATM   34  N   UNL     1      44.207 -20.019   4.218  1.00  0.00    -0.272 NA
HETATM   35  C   UNL     1      43.829 -20.624   3.071  1.00  0.00     0.116 A 
HETATM   36  C   UNL     1      43.226 -19.951   2.025  1.00  0.00     0.020 A 
HETATM   37  C   UNL     1      42.996 -18.583   2.162  1.00  0.00     0.012 A 
ENDBRANCH  24  32
ENDBRANCH  21  24
ENDBRANCH   1  20
TORSDOF 7
ENDMDL
MODEL 5
REMARK VINA RESULT:      -7.7      2.576      8.204
REMARK  7 active torsions:
REMARK  status: ('A' for Active; 'I' for Inactive)
REMARK    1  A    between atoms: C_6  and  C_7 
REMARK    2  A    between atoms: N_13  and  C_15 
REMARK    3  A    between atoms: C_15  and  C_16 
REMARK    4  A    between atoms: C_16  and  N_17 
REMARK       I    between atoms: N_17  and  C_18 
REMARK    5  A    between atoms: C_18  and  C_19 
REMARK    6  A    between atoms: C_19  and  N_20 
REMARK    7  A    between atoms: C_19  and  C_27 
ROOT
HETATM    1  C   UNL     1      39.405 -13.501   3.106  1.00  0.00     0.150 C 
ENDROOT
BRANCH   1   2
HETATM    2  C   UNL     1      39.329 -12.634   1.829  1.00  0.00     0.255 C 
BRANCH   2   3
HETATM    3  N   UNL     1      40.693 -12.320   1.236  1.00  0.00    -0.063 N 
HETATM    4  C   UNL     1      40.943 -10.917   0.712  1.00  0.00     0.272 C 
HETATM    5  C   UNL     1      40.143 -10.473  -0.539  1.00  0.00     0.188 C 
HETATM    6  O   UNL     1      40.407 -11.249  -1.723  1.00  0.00    -0.339 OA
HETATM    7  C   UNL     1      39.899 -12.506  -1.825  1.00  0.00     0.077 A 
HETATM    8  C   UNL     1      40.165 -13.536  -0.922  1.00  0.00     0.001 A 
HETATM    9  C   UNL     1      39.148 -12.759  -2.978  1.00  0.00     0.037 A 
HETATM   10  C   UNL     1      39.580 -14.797  -1.142  1.00  0.00     0.012 A 
HETATM   11  C   UNL     1      41.117 -13.356   0.216  1.00  0.00     0.276 C 
HETATM   12  C   UNL     1      38.780 -15.027  -2.262  1.00  0.00     0.001 A 
HETATM   13  C   UNL     1      38.575 -14.012  -3.188  1.00  0.00     0.003 A 
HETATM   14  H   UNL     1      41.372 -12.447   1.998  1.00  0.00     0.280 HD
BRANCH   5  15
HETATM   15  C   UNL     1      38.705 -10.056  -0.254  1.00  0.00    -0.020 A 
HETATM   16  C   UNL     1      38.359  -9.301   0.861  1.00  0.00     0.059 A 
HETATM   17  S   UNL     1      36.686  -8.982   0.980  1.00  0.00    -0.113 SA
HETATM   18  C   UNL     1      36.382  -9.767  -0.499  1.00  0.00     0.050 A 
HETATM   19  C   UNL     1      37.530 -10.300  -1.046  1.00  0.00     0.017 A 
ENDBRANCH   5  15
ENDBRANCH   2   3
ENDBRANCH   1   2
BRANCH   1  20
HETATM   20  N   UNL     1      40.751 -13.872   3.559  1.00  0.00    -0.357 N 
HETATM   21  C   UNL     1      41.136 -15.187   3.755  1.00  0.00     0.253 C 
HETATM   22  O   UNL     1      40.309 -16.096   3.769  1.00  0.00    -0.271 OA
HETATM   23  H   UNL     1      41.477 -13.183   3.368  1.00  0.00     0.162 HD
BRANCH  21  24
HETATM   24  C   UNL     1      42.668 -15.448   3.960  1.00  0.00     0.314 C 
BRANCH  24  25
HETATM   25  N   UNL     1      43.223 -14.998   5.329  1.00  0.00    -0.050 N 
HETATM   26  H   UNL     1      44.123 -15.483   5.438  1.00  0.00     0.281 HD
HETATM   27  C   UNL     1      43.513 -13.502   5.385  1.00  0.00     0.262 C 
HETATM   28  C   UNL     1      44.168 -13.152   6.726  1.00  0.00     0.195 C 
HETATM   29  O   UNL     1      43.327 -13.545   7.813  1.00  0.00    -0.388 OA
HETATM   30  C   UNL     1      43.103 -14.960   7.831  1.00  0.00     0.195 C 
HETATM   31  C   UNL     1      42.390 -15.412   6.549  1.00  0.00     0.262 C 
ENDBRANCH  24  25
BRANCH  24  32
HETATM   32  C   UNL     1      43.057 -16.871   3.632  1.00  0.00    -0.001 A 
HETATM   33  C   UNL     1      43.768 -17.668   4.528  1.00  0.00     0.126 A 
HETATM   34  N   UNL     1      44.164 -18.927   4.265  1.00  0.00    -0.272 NA
HETATM   35  C   UNL     1      43.856 -19.440   3.054  1.00  0.00     0.116 A 
HETATM   36  C   UNL     1      43.162 -18.733   2.089  1.00  0.00     0.020 A 
HETATM   37  C   UNL     1      42.759 -17.431   2.382  1.00  0.00     0.012 A 
ENDBRANCH  24  32
ENDBRANCH  21  24
ENDBRANCH   1  20
TORSDOF 7
ENDMDL
MODEL 6
REMARK VINA RESULT:      -7.7      1.302      3.448
REMARK  7 active torsions:
REMARK  status: ('A' for Active; 'I' for Inactive)
REMARK    1  A    between atoms: C_6  and  C_7 
REMARK    2  A    between atoms: N_13  and  C_15 
REMARK    3  A    between atoms: C_15  and  C_16 
REMARK    4  A    between atoms: C_16  and  N_17 
REMARK       I    between atoms: N_17  and  C_18 
REMARK    5  A    between atoms: C_18  and  C_19 
REMARK    6  A    between atoms: C_19  and  N_20 
REMARK    7  A    between atoms: C_19  and  C_27 
ROOT
HETATM    1  C   UNL     1      42.064 -12.264   2.454  1.00  0.00     0.150 C 
ENDROOT
BRANCH   1   2
HETATM    2  C   UNL     1      42.192 -13.740   2.894  1.00  0.00     0.255 C 
BRANCH   2   3
HETATM    3  N   UNL     1      40.885 -14.329   3.401  1.00  0.00    -0.063 N 
HETATM    4  C   UNL     1      40.343 -13.839   4.732  1.00  0.00     0.272 C 
HETATM    5  C   UNL     1      41.157 -14.193   6.004  1.00  0.00     0.188 C 
HETATM    6  O   UNL     1      41.269 -15.603   6.267  1.00  0.00    -0.339 OA
HETATM    7  C   UNL     1      42.101 -16.362   5.505  1.00  0.00     0.077 A 
HETATM    8  C   UNL     1      42.000 -16.487   4.119  1.00  0.00     0.001 A 
HETATM    9  C   UNL     1      43.039 -17.121   6.213  1.00  0.00     0.037 A 
HETATM   10  C   UNL     1      42.923 -17.309   3.445  1.00  0.00     0.012 A 
HETATM   11  C   UNL     1      40.892 -15.843   3.352  1.00  0.00     0.276 C 
HETATM   12  C   UNL     1      43.898 -18.016   4.150  1.00  0.00     0.001 A 
HETATM   13  C   UNL     1      43.947 -17.933   5.536  1.00  0.00     0.003 A 
HETATM   14  H   UNL     1      40.168 -14.073   2.709  1.00  0.00     0.280 HD
BRANCH   5  15
HETATM   15  C   UNL     1      42.381 -13.314   6.234  1.00  0.00    -0.020 A 
HETATM   16  C   UNL     1      42.335 -11.931   6.109  1.00  0.00     0.059 A 
HETATM   17  S   UNL     1      43.837 -11.168   6.389  1.00  0.00    -0.113 SA
HETATM   18  C   UNL     1      44.574 -12.653   6.773  1.00  0.00     0.050 A 
HETATM   19  C   UNL     1      43.701 -13.711   6.644  1.00  0.00     0.017 A 
ENDBRANCH   5  15
ENDBRANCH   2   3
ENDBRANCH   1   2
BRANCH   1  20
HETATM   20  N   UNL     1      41.698 -12.035   1.051  1.00  0.00    -0.357 N 
HETATM   21  C   UNL     1      41.324 -10.791   0.572  1.00  0.00     0.253 C 
HETATM   22  O   UNL     1      41.072  -9.865   1.339  1.00  0.00    -0.271 OA
HETATM   23  H   UNL     1      42.077 -12.709   0.389  1.00  0.00     0.162 HD
BRANCH  21  24
HETATM   24  C   UNL     1      41.240 -10.634  -0.985  1.00  0.00     0.314 C 
BRANCH  24  25
HETATM   25  N   UNL     1      39.989 -11.271  -1.631  1.00  0.00    -0.050 N 
HETATM   26  H   UNL     1      39.718 -10.638  -2.395  1.00  0.00     0.281 HD
HETATM   27  C   UNL     1      40.278 -12.630  -2.260  1.00  0.00     0.262 C 
HETATM   28  C   UNL     1      39.026 -13.142  -2.980  1.00  0.00     0.195 C 
HETATM   29  O   UNL     1      37.925 -13.228  -2.074  1.00  0.00    -0.388 OA
HETATM   30  C   UNL     1      37.581 -11.949  -1.528  1.00  0.00     0.195 C 
HETATM   31  C   UNL     1      38.754 -11.368  -0.727  1.00  0.00     0.262 C 
ENDBRANCH  24  25
BRANCH  24  32
HETATM   32  C   UNL     1      41.439  -9.203  -1.430  1.00  0.00    -0.001 A 
HETATM   33  C   UNL     1      40.378  -8.406  -1.855  1.00  0.00     0.126 A 
HETATM   34  N   UNL     1      40.515  -7.141  -2.292  1.00  0.00    -0.272 NA
HETATM   35  C   UNL     1      41.760  -6.621  -2.322  1.00  0.00     0.116 A 
HETATM   36  C   UNL     1      42.883  -7.326  -1.929  1.00  0.00     0.020 A 
HETATM   37  C   UNL     1      42.720  -8.635  -1.479  1.00  0.00     0.012 A 
ENDBRANCH  24  32
ENDBRANCH  21  24
ENDBRANCH   1  20
TORSDOF 7
ENDMDL
MODEL 7
REMARK VINA RESULT:      -7.5      2.582      8.055
REMARK  7 active torsions:
REMARK  status: ('A' for Active; 'I' for Inactive)
REMARK    1  A    between atoms: C_6  and  C_7 
REMARK    2  A    between atoms: N_13  and  C_15 
REMARK    3  A    between atoms: C_15  and  C_16 
REMARK    4  A    between atoms: C_16  and  N_17 
REMARK       I    between atoms: N_17  and  C_18 
REMARK    5  A    between atoms: C_18  and  C_19 
REMARK    6  A    between atoms: C_19  and  N_20 
REMARK    7  A    between atoms: C_19  and  C_27 
ROOT
HETATM    1  C   UNL     1      40.080 -15.298   2.147  1.00  0.00     0.150 C 
ENDROOT
BRANCH   1   2
HETATM    2  C   UNL     1      40.126 -13.769   2.369  1.00  0.00     0.255 C 
BRANCH   2   3
HETATM    3  N   UNL     1      41.216 -13.080   1.563  1.00  0.00    -0.063 N 
HETATM    4  C   UNL     1      42.059 -12.021   2.252  1.00  0.00     0.272 C 
HETATM    5  C   UNL     1      41.348 -10.710   2.673  1.00  0.00     0.188 C 
HETATM    6  O   UNL     1      40.807  -9.946   1.579  1.00  0.00    -0.339 OA
HETATM    7  C   UNL     1      39.677 -10.377   0.958  1.00  0.00     0.077 A 
HETATM    8  C   UNL     1      39.548 -11.620   0.337  1.00  0.00     0.001 A 
HETATM    9  C   UNL     1      38.640  -9.441   0.879  1.00  0.00     0.037 A 
HETATM   10  C   UNL     1      38.324 -11.946  -0.277  1.00  0.00     0.012 A 
HETATM   11  C   UNL     1      40.698 -12.569   0.234  1.00  0.00     0.276 C 
HETATM   12  C   UNL     1      37.270 -11.032  -0.299  1.00  0.00     0.001 A 
HETATM   13  C   UNL     1      37.433  -9.773   0.267  1.00  0.00     0.003 A 
HETATM   14  H   UNL     1      41.880 -13.816   1.290  1.00  0.00     0.280 HD
BRANCH   5  15
HETATM   15  C   UNL     1      40.529 -10.819   3.954  1.00  0.00    -0.020 A 
HETATM   16  C   UNL     1      41.093 -11.207   5.163  1.00  0.00     0.059 A 
HETATM   17  S   UNL     1      39.971 -11.282   6.449  1.00  0.00    -0.113 SA
HETATM   18  C   UNL     1      38.716 -10.714   5.450  1.00  0.00     0.050 A 
HETATM   19  C   UNL     1      39.138 -10.517   4.153  1.00  0.00     0.017 A 
ENDBRANCH   5  15
ENDBRANCH   2   3
ENDBRANCH   1   2
BRANCH   1  20
HETATM   20  N   UNL     1      41.038 -16.095   2.922  1.00  0.00    -0.357 N 
HETATM   21  C   UNL     1      42.395 -16.102   2.651  1.00  0.00     0.253 C 
HETATM   22  O   UNL     1      42.838 -15.611   1.615  1.00  0.00    -0.271 OA
HETATM   23  H   UNL     1      40.736 -16.338   3.865  1.00  0.00     0.162 HD
BRANCH  21  24
HETATM   24  C   UNL     1      43.323 -16.765   3.725  1.00  0.00     0.314 C 
BRANCH  24  25
HETATM   25  N   UNL     1      42.967 -16.419   5.188  1.00  0.00    -0.050 N 
HETATM   26  H   UNL     1      42.249 -17.099   5.468  1.00  0.00     0.281 HD
HETATM   27  C   UNL     1      44.146 -16.598   6.139  1.00  0.00     0.262 C 
HETATM   28  C   UNL     1      43.687 -16.352   7.581  1.00  0.00     0.195 C 
HETATM   29  O   UNL     1      43.124 -15.045   7.713  1.00  0.00    -0.388 OA
HETATM   30  C   UNL     1      41.966 -14.876   6.888  1.00  0.00     0.195 C 
HETATM   31  C   UNL     1      42.328 -15.042   5.405  1.00  0.00     0.262 C 
ENDBRANCH  24  25
BRANCH  24  32
HETATM   32  C   UNL     1      43.470 -18.255   3.517  1.00  0.00    -0.001 A 
HETATM   33  C   UNL     1      43.985 -19.093   4.504  1.00  0.00     0.126 A 
HETATM   34  N   UNL     1      44.164 -20.417   4.349  1.00  0.00    -0.272 NA
HETATM   35  C   UNL     1      43.828 -20.959   3.159  1.00  0.00     0.116 A 
HETATM   36  C   UNL     1      43.315 -20.218   2.110  1.00  0.00     0.020 A 
HETATM   37  C   UNL     1      43.136 -18.848   2.291  1.00  0.00     0.012 A 
ENDBRANCH  24  32
ENDBRANCH  21  24
ENDBRANCH   1  20
TORSDOF 7
ENDMDL
MODEL 8
REMARK VINA RESULT:      -7.5      4.734      8.420
REMARK  7 active torsions:
REMARK  status: ('A' for Active; 'I' for Inactive)
REMARK    1  A    between atoms: C_6  and  C_7 
REMARK    2  A    between atoms: N_13  and  C_15 
REMARK    3  A    between atoms: C_15  and  C_16 
REMARK    4  A    between atoms: C_16  and  N_17 
REMARK       I    between atoms: N_17  and  C_18 
REMARK    5  A    between atoms: C_18  and  C_19 
REMARK    6  A    between atoms: C_19  and  N_20 
REMARK    7  A    between atoms: C_19  and  C_27 
ROOT
HETATM    1  C   UNL     1      40.599 -10.532   6.763  1.00  0.00     0.150 C 
ENDROOT
BRANCH   1   2
HETATM    2  C   UNL     1      41.150  -9.817   8.017  1.00  0.00     0.255 C 
BRANCH   2   3
HETATM    3  N   UNL     1      40.544  -8.439   8.236  1.00  0.00    -0.063 N 
HETATM    4  C   UNL     1      41.485  -7.258   8.401  1.00  0.00     0.272 C 
HETATM    5  C   UNL     1      42.366  -7.225   9.676  1.00  0.00     0.188 C 
HETATM    6  O   UNL     1      41.630  -7.152  10.910  1.00  0.00    -0.339 OA
HETATM    7  C   UNL     1      40.981  -8.256  11.369  1.00  0.00     0.077 A 
HETATM    8  C   UNL     1      39.994  -8.938  10.657  1.00  0.00     0.001 A 
HETATM    9  C   UNL     1      41.291  -8.633  12.680  1.00  0.00     0.037 A 
HETATM   10  C   UNL     1      39.394 -10.067  11.245  1.00  0.00     0.012 A 
HETATM   11  C   UNL     1      39.501  -8.450   9.334  1.00  0.00     0.276 C 
HETATM   12  C   UNL     1      39.751 -10.478  12.530  1.00  0.00     0.001 A 
HETATM   13  C   UNL     1      40.690  -9.752  13.253  1.00  0.00     0.003 A 
HETATM   14  H   UNL     1      39.997  -8.230   7.391  1.00  0.00     0.280 HD
BRANCH   5  15
HETATM   15  C   UNL     1      43.593  -8.130   9.618  1.00  0.00    -0.020 A 
HETATM   16  C   UNL     1      44.458  -8.137   8.531  1.00  0.00     0.059 A 
HETATM   17  S   UNL     1      45.742  -9.252   8.685  1.00  0.00    -0.113 SA
HETATM   18  C   UNL     1      45.232  -9.696  10.247  1.00  0.00     0.050 A 
HETATM   19  C   UNL     1      44.080  -9.038  10.620  1.00  0.00     0.017 A 
ENDBRANCH   5  15
ENDBRANCH   2   3
ENDBRANCH   1   2
BRANCH   1  20
HETATM   20  N   UNL     1      41.431 -11.609   6.211  1.00  0.00    -0.357 N 
HETATM   21  C   UNL     1      40.915 -12.846   5.865  1.00  0.00     0.253 C 
HETATM   22  O   UNL     1      39.782 -13.178   6.202  1.00  0.00    -0.271 OA
HETATM   23  H   UNL     1      42.289 -11.302   5.756  1.00  0.00     0.162 HD
BRANCH  21  24
HETATM   24  C   UNL     1      41.850 -13.788   5.031  1.00  0.00     0.314 C 
BRANCH  24  25
HETATM   25  N   UNL     1      42.342 -15.042   5.786  1.00  0.00    -0.050 N 
HETATM   26  H   UNL     1      41.520 -15.655   5.872  1.00  0.00     0.281 HD
HETATM   27  C   UNL     1      43.398 -15.821   5.009  1.00  0.00     0.262 C 
HETATM   28  C   UNL     1      43.748 -17.109   5.763  1.00  0.00     0.195 C 
HETATM   29  O   UNL     1      44.210 -16.809   7.082  1.00  0.00    -0.388 OA
HETATM   30  C   UNL     1      43.206 -16.147   7.861  1.00  0.00     0.195 C 
HETATM   31  C   UNL     1      42.823 -14.805   7.222  1.00  0.00     0.262 C 
ENDBRANCH  24  25
BRANCH  24  32
HETATM   32  C   UNL     1      41.261 -14.134   3.683  1.00  0.00    -0.001 A 
HETATM   33  C   UNL     1      41.474 -13.340   2.557  1.00  0.00     0.126 A 
HETATM   34  N   UNL     1      40.941 -13.592   1.347  1.00  0.00    -0.272 NA
HETATM   35  C   UNL     1      40.148 -14.678   1.226  1.00  0.00     0.116 A 
HETATM   36  C   UNL     1      39.865 -15.528   2.280  1.00  0.00     0.020 A 
HETATM   37  C   UNL     1      40.428 -15.250   3.525  1.00  0.00     0.012 A 
ENDBRANCH  24  32
ENDBRANCH  21  24
ENDBRANCH   1  20
TORSDOF 7
ENDMDL
MODEL 9
REMARK VINA RESULT:      -7.4      5.338      8.748
REMARK  7 active torsions:
REMARK  status: ('A' for Active; 'I' for Inactive)
REMARK    1  A    between atoms: C_6  and  C_7 
REMARK    2  A    between atoms: N_13  and  C_15 
REMARK    3  A    between atoms: C_15  and  C_16 
REMARK    4  A    between atoms: C_16  and  N_17 
REMARK       I    between atoms: N_17  and  C_18 
REMARK    5  A    between atoms: C_18  and  C_19 
REMARK    6  A    between atoms: C_19  and  N_20 
REMARK    7  A    between atoms: C_19  and  C_27 
ROOT
HETATM    1  C   UNL     1      41.500  -9.584   7.734  1.00  0.00     0.150 C 
ENDROOT
BRANCH   1   2
HETATM    2  C   UNL     1      40.887  -9.254   9.114  1.00  0.00     0.255 C 
BRANCH   2   3
HETATM    3  N   UNL     1      40.652  -7.766   9.324  1.00  0.00    -0.063 N 
HETATM    4  C   UNL     1      41.807  -6.813   9.072  1.00  0.00     0.272 C 
HETATM    5  C   UNL     1      43.021  -6.899  10.032  1.00  0.00     0.188 C 
HETATM    6  O   UNL     1      42.719  -6.591  11.406  1.00  0.00    -0.339 OA
HETATM    7  C   UNL     1      42.040  -7.496  12.160  1.00  0.00     0.077 A 
HETATM    8  C   UNL     1      40.772  -7.985  11.844  1.00  0.00     0.001 A 
HETATM    9  C   UNL     1      42.651  -7.853  13.366  1.00  0.00     0.037 A 
HETATM   10  C   UNL     1      40.171  -8.918  12.712  1.00  0.00     0.012 A 
HETATM   11  C   UNL     1      40.006  -7.481  10.665  1.00  0.00     0.276 C 
HETATM   12  C   UNL     1      40.813  -9.319  13.884  1.00  0.00     0.001 A 
HETATM   13  C   UNL     1      42.048  -8.775  14.218  1.00  0.00     0.003 A 
HETATM   14  H   UNL     1      39.926  -7.493   8.649  1.00  0.00     0.280 HD
BRANCH   5  15
HETATM   15  C   UNL     1      43.975  -8.053   9.743  1.00  0.00    -0.020 A 
HETATM   16  C   UNL     1      44.750  -8.102   8.590  1.00  0.00     0.059 A 
HETATM   17  S   UNL     1      45.718  -9.503   8.476  1.00  0.00    -0.113 SA
HETATM   18  C   UNL     1      45.199 -10.045  10.003  1.00  0.00     0.050 A 
HETATM   19  C   UNL     1      44.271  -9.194  10.564  1.00  0.00     0.017 A 
ENDBRANCH   5  15
ENDBRANCH   2   3
ENDBRANCH   1   2
BRANCH   1  20
HETATM   20  N   UNL     1      40.858 -10.668   6.981  1.00  0.00    -0.357 N 
HETATM   21  C   UNL     1      41.369 -11.153   5.789  1.00  0.00     0.253 C 
HETATM   22  O   UNL     1      42.262 -10.556   5.192  1.00  0.00    -0.271 OA
HETATM   23  H   UNL     1      40.261 -11.283   7.532  1.00  0.00     0.162 HD
BRANCH  21  24
HETATM   24  C   UNL     1      40.748 -12.487   5.250  1.00  0.00     0.314 C 
BRANCH  24  25
HETATM   25  N   UNL     1      40.812 -12.655   3.716  1.00  0.00    -0.050 N 
HETATM   26  H   UNL     1      41.003 -11.716   3.341  1.00  0.00     0.281 HD
HETATM   27  C   UNL     1      41.960 -13.555   3.269  1.00  0.00     0.262 C 
HETATM   28  C   UNL     1      42.031 -13.578   1.738  1.00  0.00     0.195 C 
HETATM   29  O   UNL     1      40.792 -14.026   1.184  1.00  0.00    -0.388 OA
HETATM   30  C   UNL     1      39.708 -13.152   1.523  1.00  0.00     0.195 C 
HETATM   31  C   UNL     1      39.508 -13.103   3.044  1.00  0.00     0.262 C 
ENDBRANCH  24  25
BRANCH  24  32
HETATM   32  C   UNL     1      41.282 -13.702   5.974  1.00  0.00    -0.001 A 
HETATM   33  C   UNL     1      42.576 -13.745   6.491  1.00  0.00     0.126 A 
HETATM   34  N   UNL     1      43.103 -14.817   7.111  1.00  0.00    -0.272 NA
HETATM   35  C   UNL     1      42.326 -15.915   7.231  1.00  0.00     0.116 A 
HETATM   36  C   UNL     1      41.032 -15.982   6.748  1.00  0.00     0.020 A 
HETATM   37  C   UNL     1      40.505 -14.860   6.110  1.00  0.00     0.012 A 
ENDBRANCH  24  32
ENDBRANCH  21  24
ENDBRANCH   1  20
TORSDOF 7
ENDMDL
MODEL 10
REMARK VINA RESULT:      -7.4      2.608      8.384
REMARK  7 active torsions:
REMARK  status: ('A' for Active; 'I' for Inactive)
REMARK    1  A    between atoms: C_6  and  C_7 
REMARK    2  A    between atoms: N_13  and  C_15 
REMARK    3  A    between atoms: C_15  and  C_16 
REMARK    4  A    between atoms: C_16  and  N_17 
REMARK       I    between atoms: N_17  and  C_18 
REMARK    5  A    between atoms: C_18  and  C_19 
REMARK    6  A    between atoms: C_19  and  N_20 
REMARK    7  A    between atoms: C_19  and  C_27 
ROOT
HETATM    1  C   UNL     1      38.905 -13.130   2.648  1.00  0.00     0.150 C 
ENDROOT
BRANCH   1   2
HETATM    2  C   UNL     1      39.372 -11.905   1.830  1.00  0.00     0.255 C 
BRANCH   2   3
HETATM    3  N   UNL     1      40.854 -11.941   1.491  1.00  0.00    -0.063 N 
HETATM    4  C   UNL     1      41.470 -10.720   0.830  1.00  0.00     0.272 C 
HETATM    5  C   UNL     1      41.007 -10.382  -0.609  1.00  0.00     0.188 C 
HETATM    6  O   UNL     1      41.311 -11.393  -1.588  1.00  0.00    -0.339 OA
HETATM    7  C   UNL     1      40.585 -12.543  -1.608  1.00  0.00     0.077 A 
HETATM    8  C   UNL     1      40.475 -13.421  -0.529  1.00  0.00     0.001 A 
HETATM    9  C   UNL     1      40.011 -12.870  -2.841  1.00  0.00     0.037 A 
HETATM   10  C   UNL     1      39.695 -14.583  -0.679  1.00  0.00     0.012 A 
HETATM   11  C   UNL     1      41.231 -13.202   0.741  1.00  0.00     0.276 C 
HETATM   12  C   UNL     1      39.072 -14.873  -1.893  1.00  0.00     0.001 A 
HETATM   13  C   UNL     1      39.242 -14.023  -2.979  1.00  0.00     0.003 A 
HETATM   14  H   UNL     1      41.350 -12.040   2.386  1.00  0.00     0.280 HD
BRANCH   5  15
HETATM   15  C   UNL     1      39.655  -9.681  -0.689  1.00  0.00    -0.020 A 
HETATM   16  C   UNL     1      39.502  -8.331  -0.400  1.00  0.00     0.059 A 
HETATM   17  S   UNL     1      37.891  -7.780  -0.533  1.00  0.00    -0.113 SA
HETATM   18  C   UNL     1      37.363  -9.307  -1.068  1.00  0.00     0.050 A 
HETATM   19  C   UNL     1      38.389 -10.226  -1.098  1.00  0.00     0.017 A 
ENDBRANCH   5  15
ENDBRANCH   2   3
ENDBRANCH   1   2
BRANCH   1  20
HETATM   20  N   UNL     1      39.717 -13.476   3.821  1.00  0.00    -0.357 N 
HETATM   21  C   UNL     1      40.441 -14.652   3.907  1.00  0.00     0.253 C 
HETATM   22  O   UNL     1      40.269 -15.563   3.101  1.00  0.00    -0.271 OA
HETATM   23  H   UNL     1      40.020 -12.683   4.385  1.00  0.00     0.162 HD
BRANCH  21  24
HETATM   24  C   UNL     1      41.476 -14.755   5.079  1.00  0.00     0.314 C 
BRANCH  24  25
HETATM   25  N   UNL     1      42.180 -16.125   5.200  1.00  0.00    -0.050 N 
HETATM   26  H   UNL     1      41.486 -16.822   4.901  1.00  0.00     0.281 HD
HETATM   27  C   UNL     1      43.377 -16.257   4.263  1.00  0.00     0.262 C 
HETATM   28  C   UNL     1      43.948 -17.677   4.353  1.00  0.00     0.195 C 
HETATM   29  O   UNL     1      44.322 -17.983   5.698  1.00  0.00    -0.388 OA
HETATM   30  C   UNL     1      43.200 -17.944   6.587  1.00  0.00     0.195 C 
HETATM   31  C   UNL     1      42.584 -16.538   6.621  1.00  0.00     0.262 C 
ENDBRANCH  24  25
BRANCH  24  32
HETATM   32  C   UNL     1      42.464 -13.611   5.075  1.00  0.00    -0.001 A 
HETATM   33  C   UNL     1      42.919 -13.031   3.892  1.00  0.00     0.126 A 
HETATM   34  N   UNL     1      43.822 -12.035   3.841  1.00  0.00    -0.272 NA
HETATM   35  C   UNL     1      44.318 -11.579   5.011  1.00  0.00     0.116 A 
HETATM   36  C   UNL     1      43.941 -12.087   6.240  1.00  0.00     0.020 A 
HETATM   37  C   UNL     1      43.003 -13.118   6.272  1.00  0.00     0.012 A 
ENDBRANCH  24  32
ENDBRANCH  21  24
ENDBRANCH   1  20
TORSDOF 7
ENDMDL
