MODEL 1
REMARK VINA RESULT:      -9.5      0.000      0.000
REMARK  7 active torsions:
REMARK  status: ('A' for Active; 'I' for Inactive)
REMARK    1  A    between atoms: C_5  and  N_6 
REMARK    2  A    between atoms: C_7  and  S_8 
REMARK    3  A    between atoms: S_8  and  C_9 
REMARK    4  A    between atoms: C_9  and  C_10 
REMARK       I    between atoms: C_10  and  N_11 
REMARK    5  A    between atoms: C_13  and  C_14 
REMARK    6  A    between atoms: C_14  and  N_15 
REMARK       I    between atoms: N_15  and  C_16 
REMARK       I    between atoms: C_16  and  N_17 
REMARK    7  A    between atoms: N_17  and  C_18 
ROOT
HETATM    1  C   UNL     1      42.507 -11.369   3.735  1.00  0.00     0.229 C 
HETATM    2  N   UNL     1      41.862 -10.644   4.739  1.00  0.00    -0.351 N 
HETATM    3  C   UNL     1      41.492 -11.186   6.046  1.00  0.00     0.132 C 
HETATM    4  C   UNL     1      41.673 -10.144   7.159  1.00  0.00     0.021 C 
HETATM    5  C   UNL     1      40.888  -8.870   6.806  1.00  0.00     0.009 C 
HETATM    6  C   UNL     1      41.252  -8.335   5.420  1.00  0.00     0.020 C 
HETATM    7  C   UNL     1      41.166  -9.418   4.349  1.00  0.00     0.126 C 
HETATM    8  O   UNL     1      42.858 -10.827   2.680  1.00  0.00    -0.273 OA
ENDROOT
BRANCH   1   9
HETATM    9  C   UNL     1      42.859 -12.832   3.975  1.00  0.00     0.185 C 
BRANCH   9  10
HETATM   10  S   UNL     1      43.297 -13.709   2.443  1.00  0.00    -0.082 SA
BRANCH  10  11
HETATM   11  C   UNL     1      41.800 -14.526   2.115  1.00  0.00     0.173 A 
HETATM   12  N   UNL     1      41.585 -15.881   2.316  1.00  0.00    -0.299 N 
HETATM   13  C   UNL     1      40.366 -16.146   1.721  1.00  0.00     0.118 A 
HETATM   14  C   UNL     1      39.901 -14.943   1.249  1.00  0.00     0.137 A 
HETATM   15  N   UNL     1      40.792 -13.940   1.509  1.00  0.00    -0.235 NA
BRANCH  12  16
HETATM   16  C   UNL     1      42.350 -16.818   3.066  1.00  0.00     0.047 A 
HETATM   17  C   UNL     1      42.347 -16.828   4.483  1.00  0.00    -0.029 A 
HETATM   18  C   UNL     1      43.255 -17.684   5.155  1.00  0.00    -0.054 A 
HETATM   19  C   UNL     1      41.385 -15.992   5.292  1.00  0.00     0.051 C 
HETATM   20  C   UNL     1      43.339 -17.740   6.658  1.00  0.00     0.049 C 
HETATM   21  C   UNL     1      44.075 -18.553   4.415  1.00  0.00     0.007 A 
HETATM   22  C   UNL     1      44.034 -18.563   3.025  1.00  0.00     0.003 A 
HETATM   23  C   UNL     1      43.183 -17.695   2.351  1.00  0.00     0.030 A 
ENDBRANCH  12  16
ENDBRANCH  10  11
ENDBRANCH   9  10
ENDBRANCH   1   9
BRANCH   4  24
HETATM   24  C   UNL     1      43.157  -9.819   7.422  1.00  0.00     0.130 C 
BRANCH  24  25
HETATM   25  N   UNL     1      43.705 -10.595   8.524  1.00  0.00    -0.342 N 
HETATM   26  C   UNL     1      43.599 -10.452   9.875  1.00  0.00     0.320 C 
HETATM   27  N   UNL     1      42.775  -9.459  10.323  1.00  0.00    -0.309 N 
HETATM   28  O   UNL     1      44.257 -11.218  10.571  1.00  0.00    -0.247 OA
HETATM   29  H   UNL     1      42.201  -9.001   9.635  1.00  0.00     0.170 HD
HETATM   30  H   UNL     1      44.303 -11.378   8.288  1.00  0.00     0.164 HD
BRANCH  27  31
HETATM   31  C   UNL     1      42.520  -9.086  11.661  1.00  0.00     0.039 A 
HETATM   32  C   UNL     1      43.311  -8.199  12.390  1.00  0.00     0.071 A 
HETATM   33  C   UNL     1      42.979  -7.898  13.710  1.00  0.00     0.118 A 
HETATM   34  F   UNL     1      43.744  -7.044  14.403  1.00  0.00    -0.206 F 
HETATM   35  C   UNL     1      41.870  -8.467  14.324  1.00  0.00     0.042 A 
HETATM   36  C   UNL     1      41.070  -9.348  13.604  1.00  0.00     0.005 A 
HETATM   37  C   UNL     1      41.392  -9.651  12.276  1.00  0.00     0.030 A 
ENDBRANCH  27  31
ENDBRANCH  24  25
ENDBRANCH   4  24
TORSDOF 7
ENDMDL
MODEL 2
REMARK VINA RESULT:      -9.4      4.770      7.460
REMARK  7 active torsions:
REMARK  status: ('A' for Active; 'I' for Inactive)
REMARK    1  A    between atoms: C_5  and  N_6 
REMARK    2  A    between atoms: C_7  and  S_8 
REMARK    3  A    between atoms: S_8  and  C_9 
REMARK    4  A    between atoms: C_9  and  C_10 
REMARK       I    between atoms: C_10  and  N_11 
REMARK    5  A    between atoms: C_13  and  C_14 
REMARK    6  A    between atoms: C_14  and  N_15 
REMARK       I    between atoms: N_15  and  C_16 
REMARK       I    between atoms: C_16  and  N_17 
REMARK    7  A    between atoms: N_17  and  C_18 
ROOT
HETATM    1  C   UNL     1      40.087 -12.556   6.097  1.00  0.00     0.229 C 
HETATM    2  N   UNL     1      40.196 -11.171   6.232  1.00  0.00    -0.351 N 
HETATM    3  C   UNL     1      41.456 -10.451   6.414  1.00  0.00     0.132 C 
HETATM    4  C   UNL     1      41.451  -9.110   5.666  1.00  0.00     0.021 C 
HETATM    5  C   UNL     1      40.232  -8.281   6.100  1.00  0.00     0.009 C 
HETATM    6  C   UNL     1      38.924  -9.057   5.945  1.00  0.00     0.020 C 
HETATM    7  C   UNL     1      38.992 -10.430   6.608  1.00  0.00     0.126 C 
HETATM    8  O   UNL     1      38.996 -13.093   5.871  1.00  0.00    -0.273 OA
ENDROOT
BRANCH   1   9
HETATM    9  C   UNL     1      41.345 -13.415   6.146  1.00  0.00     0.185 C 
BRANCH   9  10
HETATM   10  S   UNL     1      40.980 -15.183   6.367  1.00  0.00    -0.082 SA
BRANCH  10  11
HETATM   11  C   UNL     1      42.534 -15.758   6.886  1.00  0.00     0.173 A 
HETATM   12  N   UNL     1      43.366 -16.565   6.124  1.00  0.00    -0.299 N 
HETATM   13  C   UNL     1      44.369 -16.967   6.987  1.00  0.00     0.118 A 
HETATM   14  C   UNL     1      44.114 -16.345   8.185  1.00  0.00     0.137 A 
HETATM   15  N   UNL     1      42.980 -15.586   8.110  1.00  0.00    -0.235 NA
BRANCH  12  16
HETATM   16  C   UNL     1      43.321 -16.854   4.731  1.00  0.00     0.047 A 
HETATM   17  C   UNL     1      43.491 -18.170   4.232  1.00  0.00    -0.029 A 
HETATM   18  C   UNL     1      43.592 -18.352   2.830  1.00  0.00    -0.054 A 
HETATM   19  C   UNL     1      43.525 -19.378   5.138  1.00  0.00     0.051 C 
HETATM   20  C   UNL     1      43.801 -19.712   2.213  1.00  0.00     0.049 C 
HETATM   21  C   UNL     1      43.446 -17.252   1.969  1.00  0.00     0.007 A 
HETATM   22  C   UNL     1      43.235 -15.974   2.473  1.00  0.00     0.003 A 
HETATM   23  C   UNL     1      43.181 -15.771   3.848  1.00  0.00     0.030 A 
ENDBRANCH  12  16
ENDBRANCH  10  11
ENDBRANCH   9  10
ENDBRANCH   1   9
BRANCH   4  24
HETATM   24  C   UNL     1      41.474  -9.294   4.136  1.00  0.00     0.130 C 
BRANCH  24  25
HETATM   25  N   UNL     1      42.464 -10.272   3.712  1.00  0.00    -0.342 N 
HETATM   26  C   UNL     1      42.345 -11.457   3.049  1.00  0.00     0.320 C 
HETATM   27  N   UNL     1      41.093 -11.792   2.615  1.00  0.00    -0.309 N 
HETATM   28  O   UNL     1      43.365 -12.123   2.907  1.00  0.00    -0.247 OA
HETATM   29  H   UNL     1      40.383 -11.083   2.690  1.00  0.00     0.170 HD
HETATM   30  H   UNL     1      43.431 -10.091   3.957  1.00  0.00     0.164 HD
BRANCH  27  31
HETATM   31  C   UNL     1      40.699 -12.967   1.939  1.00  0.00     0.039 A 
HETATM   32  C   UNL     1      40.780 -13.139   0.557  1.00  0.00     0.071 A 
HETATM   33  C   UNL     1      40.359 -14.337  -0.017  1.00  0.00     0.118 A 
HETATM   34  F   UNL     1      40.441 -14.494  -1.346  1.00  0.00    -0.206 F 
HETATM   35  C   UNL     1      39.855 -15.373   0.758  1.00  0.00     0.042 A 
HETATM   36  C   UNL     1      39.777 -15.216   2.138  1.00  0.00     0.005 A 
HETATM   37  C   UNL     1      40.203 -14.019   2.725  1.00  0.00     0.030 A 
ENDBRANCH  27  31
ENDBRANCH  24  25
ENDBRANCH   4  24
TORSDOF 7
ENDMDL
MODEL 3
REMARK VINA RESULT:      -9.4      3.302      5.859
REMARK  7 active torsions:
REMARK  status: ('A' for Active; 'I' for Inactive)
REMARK    1  A    between atoms: C_5  and  N_6 
REMARK    2  A    between atoms: C_7  and  S_8 
REMARK    3  A    between atoms: S_8  and  C_9 
REMARK    4  A    between atoms: C_9  and  C_10 
REMARK       I    between atoms: C_10  and  N_11 
REMARK    5  A    between atoms: C_13  and  C_14 
REMARK    6  A    between atoms: C_14  and  N_15 
REMARK       I    between atoms: N_15  and  C_16 
REMARK       I    between atoms: C_16  and  N_17 
REMARK    7  A    between atoms: N_17  and  C_18 
ROOT
HETATM    1  C   UNL     1      42.740 -10.274   5.824  1.00  0.00     0.229 C 
HETATM    2  N   UNL     1      41.978  -9.561   6.752  1.00  0.00    -0.351 N 
HETATM    3  C   UNL     1      40.776  -8.794   6.423  1.00  0.00     0.132 C 
HETATM    4  C   UNL     1      39.719  -8.903   7.532  1.00  0.00     0.021 C 
HETATM    5  C   UNL     1      40.336  -8.484   8.877  1.00  0.00     0.009 C 
HETATM    6  C   UNL     1      41.614  -9.263   9.190  1.00  0.00     0.020 C 
HETATM    7  C   UNL     1      42.605  -9.227   8.030  1.00  0.00     0.126 C 
HETATM    8  O   UNL     1      43.702 -10.963   6.182  1.00  0.00    -0.273 OA
ENDROOT
BRANCH   1   9
HETATM    9  C   UNL     1      42.330 -10.270   4.356  1.00  0.00     0.185 C 
BRANCH   9  10
HETATM   10  S   UNL     1      42.977 -11.704   3.444  1.00  0.00    -0.082 SA
BRANCH  10  11
HETATM   11  C   UNL     1      42.050 -11.583   1.980  1.00  0.00     0.173 A 
HETATM   12  N   UNL     1      41.491 -12.663   1.315  1.00  0.00    -0.299 N 
HETATM   13  C   UNL     1      41.051 -12.156   0.106  1.00  0.00     0.118 A 
HETATM   14  C   UNL     1      41.321 -10.809   0.136  1.00  0.00     0.137 A 
HETATM   15  N   UNL     1      41.929 -10.460   1.309  1.00  0.00    -0.235 NA
BRANCH  12  16
HETATM   16  C   UNL     1      41.276 -13.995   1.769  1.00  0.00     0.047 A 
HETATM   17  C   UNL     1      42.329 -14.940   1.849  1.00  0.00    -0.029 A 
HETATM   18  C   UNL     1      42.006 -16.286   2.157  1.00  0.00    -0.054 A 
HETATM   19  C   UNL     1      43.776 -14.552   1.660  1.00  0.00     0.051 C 
HETATM   20  C   UNL     1      43.058 -17.363   2.237  1.00  0.00     0.049 C 
HETATM   21  C   UNL     1      40.679 -16.638   2.450  1.00  0.00     0.007 A 
HETATM   22  C   UNL     1      39.663 -15.689   2.410  1.00  0.00     0.003 A 
HETATM   23  C   UNL     1      39.956 -14.375   2.063  1.00  0.00     0.030 A 
ENDBRANCH  12  16
ENDBRANCH  10  11
ENDBRANCH   9  10
ENDBRANCH   1   9
BRANCH   4  24
HETATM   24  C   UNL     1      39.110 -10.316   7.623  1.00  0.00     0.130 C 
BRANCH  24  25
HETATM   25  N   UNL     1      38.951 -10.934   6.316  1.00  0.00    -0.342 N 
HETATM   26  C   UNL     1      39.455 -12.084   5.787  1.00  0.00     0.320 C 
HETATM   27  N   UNL     1      40.188 -12.874   6.627  1.00  0.00    -0.309 N 
HETATM   28  O   UNL     1      39.217 -12.307   4.605  1.00  0.00    -0.247 OA
HETATM   29  H   UNL     1      40.184 -12.625   7.602  1.00  0.00     0.170 HD
HETATM   30  H   UNL     1      38.391 -10.437   5.633  1.00  0.00     0.164 HD
BRANCH  27  31
HETATM   31  C   UNL     1      40.840 -14.088   6.321  1.00  0.00     0.039 A 
HETATM   32  C   UNL     1      42.170 -14.180   5.912  1.00  0.00     0.071 A 
HETATM   33  C   UNL     1      42.723 -15.427   5.627  1.00  0.00     0.118 A 
HETATM   34  F   UNL     1      44.002 -15.506   5.235  1.00  0.00    -0.206 F 
HETATM   35  C   UNL     1      41.975 -16.592   5.739  1.00  0.00     0.042 A 
HETATM   36  C   UNL     1      40.649 -16.513   6.153  1.00  0.00     0.005 A 
HETATM   37  C   UNL     1      40.088 -15.266   6.448  1.00  0.00     0.030 A 
ENDBRANCH  27  31
ENDBRANCH  24  25
ENDBRANCH   4  24
TORSDOF 7
ENDMDL
MODEL 4
REMARK VINA RESULT:      -9.3      4.032     10.029
REMARK  7 active torsions:
REMARK  status: ('A' for Active; 'I' for Inactive)
REMARK    1  A    between atoms: C_5  and  N_6 
REMARK    2  A    between atoms: C_7  and  S_8 
REMARK    3  A    between atoms: S_8  and  C_9 
REMARK    4  A    between atoms: C_9  and  C_10 
REMARK       I    between atoms: C_10  and  N_11 
REMARK    5  A    between atoms: C_13  and  C_14 
REMARK    6  A    between atoms: C_14  and  N_15 
REMARK       I    between atoms: N_15  and  C_16 
REMARK       I    between atoms: C_16  and  N_17 
REMARK    7  A    between atoms: N_17  and  C_18 
ROOT
HETATM    1  C   UNL     1      41.174 -10.384   4.458  1.00  0.00     0.229 C 
HETATM    2  N   UNL     1      41.595 -11.467   3.685  1.00  0.00    -0.351 N 
HETATM    3  C   UNL     1      42.962 -11.986   3.658  1.00  0.00     0.132 C 
HETATM    4  C   UNL     1      42.981 -13.517   3.542  1.00  0.00     0.021 C 
HETATM    5  C   UNL     1      42.163 -13.953   2.317  1.00  0.00     0.009 C 
HETATM    6  C   UNL     1      40.748 -13.372   2.334  1.00  0.00     0.020 C 
HETATM    7  C   UNL     1      40.753 -11.862   2.555  1.00  0.00     0.126 C 
HETATM    8  O   UNL     1      39.985 -10.045   4.490  1.00  0.00    -0.273 OA
ENDROOT
BRANCH   1   9
HETATM    9  C   UNL     1      42.180  -9.658   5.342  1.00  0.00     0.185 C 
BRANCH   9  10
HETATM   10  S   UNL     1      42.126 -10.216   7.072  1.00  0.00    -0.082 SA
BRANCH  10  11
HETATM   11  C   UNL     1      43.824 -10.327   7.416  1.00  0.00     0.173 A 
HETATM   12  N   UNL     1      44.503  -9.496   8.293  1.00  0.00    -0.299 N 
HETATM   13  C   UNL     1      45.843  -9.776   8.093  1.00  0.00     0.118 A 
HETATM   14  C   UNL     1      45.888 -10.782   7.159  1.00  0.00     0.137 A 
HETATM   15  N   UNL     1      44.629 -11.127   6.754  1.00  0.00    -0.235 NA
BRANCH  12  16
HETATM   16  C   UNL     1      43.991  -8.616   9.288  1.00  0.00     0.047 A 
HETATM   17  C   UNL     1      43.746  -9.047  10.616  1.00  0.00    -0.029 A 
HETATM   18  C   UNL     1      43.088  -8.158  11.503  1.00  0.00    -0.054 A 
HETATM   19  C   UNL     1      44.198 -10.396  11.122  1.00  0.00     0.051 C 
HETATM   20  C   UNL     1      42.763  -8.542  12.924  1.00  0.00     0.049 C 
HETATM   21  C   UNL     1      42.766  -6.858  11.081  1.00  0.00     0.007 A 
HETATM   22  C   UNL     1      43.054  -6.436   9.787  1.00  0.00     0.003 A 
HETATM   23  C   UNL     1      43.656  -7.312   8.890  1.00  0.00     0.030 A 
ENDBRANCH  12  16
ENDBRANCH  10  11
ENDBRANCH   9  10
ENDBRANCH   1   9
BRANCH   4  24
HETATM   24  C   UNL     1      42.466 -14.207   4.821  1.00  0.00     0.130 C 
BRANCH  24  25
HETATM   25  N   UNL     1      43.505 -14.970   5.494  1.00  0.00    -0.342 N 
HETATM   26  C   UNL     1      43.919 -16.261   5.355  1.00  0.00     0.320 C 
HETATM   27  N   UNL     1      43.330 -16.988   4.359  1.00  0.00    -0.309 N 
HETATM   28  O   UNL     1      44.774 -16.661   6.138  1.00  0.00    -0.247 OA
HETATM   29  H   UNL     1      42.743 -16.484   3.716  1.00  0.00     0.170 HD
HETATM   30  H   UNL     1      44.024 -14.501   6.228  1.00  0.00     0.164 HD
BRANCH  27  31
HETATM   31  C   UNL     1      43.555 -18.342   4.030  1.00  0.00     0.039 A 
HETATM   32  C   UNL     1      43.495 -18.852   2.733  1.00  0.00     0.071 A 
HETATM   33  C   UNL     1      43.727 -20.209   2.511  1.00  0.00     0.118 A 
HETATM   34  F   UNL     1      43.668 -20.690   1.262  1.00  0.00    -0.206 F 
HETATM   35  C   UNL     1      44.017 -21.074   3.558  1.00  0.00     0.042 A 
HETATM   36  C   UNL     1      44.087 -20.575   4.855  1.00  0.00     0.005 A 
HETATM   37  C   UNL     1      43.862 -19.213   5.087  1.00  0.00     0.030 A 
ENDBRANCH  27  31
ENDBRANCH  24  25
ENDBRANCH   4  24
TORSDOF 7
ENDMDL
MODEL 5
REMARK VINA RESULT:      -9.1      4.800      8.734
REMARK  7 active torsions:
REMARK  status: ('A' for Active; 'I' for Inactive)
REMARK    1  A    between atoms: C_5  and  N_6 
REMARK    2  A    between atoms: C_7  and  S_8 
REMARK    3  A    between atoms: S_8  and  C_9 
REMARK    4  A    between atoms: C_9  and  C_10 
REMARK       I    between atoms: C_10  and  N_11 
REMARK    5  A    between atoms: C_13  and  C_14 
REMARK    6  A    between atoms: C_14  and  N_15 
REMARK       I    between atoms: N_15  and  C_16 
REMARK       I    between atoms: C_16  and  N_17 
REMARK    7  A    between atoms: N_17  and  C_18 
ROOT
HETATM    1  C   UNL     1      39.857 -10.307   1.306  1.00  0.00     0.229 C 
HETATM    2  N   UNL     1      39.663 -11.190   0.242  1.00  0.00    -0.351 N 
HETATM    3  C   UNL     1      40.731 -11.700  -0.618  1.00  0.00     0.132 C 
HETATM    4  C   UNL     1      40.487 -13.165  -1.008  1.00  0.00     0.021 C 
HETATM    5  C   UNL     1      39.097 -13.304  -1.650  1.00  0.00     0.009 C 
HETATM    6  C   UNL     1      37.993 -12.731  -0.761  1.00  0.00     0.020 C 
HETATM    7  C   UNL     1      38.310 -11.311  -0.301  1.00  0.00     0.126 C 
HETATM    8  O   UNL     1      38.918  -9.974   2.039  1.00  0.00    -0.273 OA
ENDROOT
BRANCH   1   9
HETATM    9  C   UNL     1      41.262  -9.808   1.620  1.00  0.00     0.185 C 
BRANCH   9  10
HETATM   10  S   UNL     1      42.160 -10.910   2.754  1.00  0.00    -0.082 SA
BRANCH  10  11
HETATM   11  C   UNL     1      41.844 -10.121   4.269  1.00  0.00     0.173 A 
HETATM   12  N   UNL     1      41.737 -10.775   5.486  1.00  0.00    -0.299 N 
HETATM   13  C   UNL     1      41.261  -9.823   6.369  1.00  0.00     0.118 A 
HETATM   14  C   UNL     1      41.161  -8.655   5.652  1.00  0.00     0.137 A 
HETATM   15  N   UNL     1      41.537  -8.846   4.352  1.00  0.00    -0.235 NA
BRANCH  12  16
HETATM   16  C   UNL     1      42.130 -12.096   5.843  1.00  0.00     0.047 A 
HETATM   17  C   UNL     1      41.204 -13.169   5.885  1.00  0.00    -0.029 A 
HETATM   18  C   UNL     1      41.638 -14.415   6.402  1.00  0.00    -0.054 A 
HETATM   19  C   UNL     1      39.794 -13.037   5.362  1.00  0.00     0.051 C 
HETATM   20  C   UNL     1      40.715 -15.602   6.510  1.00  0.00     0.049 C 
HETATM   21  C   UNL     1      42.978 -14.585   6.785  1.00  0.00     0.007 A 
HETATM   22  C   UNL     1      43.886 -13.535   6.695  1.00  0.00     0.003 A 
HETATM   23  C   UNL     1      43.464 -12.293   6.235  1.00  0.00     0.030 A 
ENDBRANCH  12  16
ENDBRANCH  10  11
ENDBRANCH   9  10
ENDBRANCH   1   9
BRANCH   4  24
HETATM   24  C   UNL     1      40.638 -14.122   0.191  1.00  0.00     0.130 C 
BRANCH  24  25
HETATM   25  N   UNL     1      41.874 -13.899   0.924  1.00  0.00    -0.342 N 
HETATM   26  C   UNL     1      42.629 -14.724   1.704  1.00  0.00     0.320 C 
HETATM   27  N   UNL     1      42.234 -16.029   1.775  1.00  0.00    -0.309 N 
HETATM   28  O   UNL     1      43.590 -14.223   2.278  1.00  0.00    -0.247 OA
HETATM   29  H   UNL     1      41.506 -16.318   1.144  1.00  0.00     0.170 HD
HETATM   30  H   UNL     1      42.265 -12.965   0.900  1.00  0.00     0.164 HD
BRANCH  27  31
HETATM   31  C   UNL     1      42.820 -17.069   2.531  1.00  0.00     0.039 A 
HETATM   32  C   UNL     1      43.177 -18.310   2.006  1.00  0.00     0.071 A 
HETATM   33  C   UNL     1      43.745 -19.275   2.836  1.00  0.00     0.118 A 
HETATM   34  F   UNL     1      44.087 -20.465   2.324  1.00  0.00    -0.206 F 
HETATM   35  C   UNL     1      43.964 -19.030   4.186  1.00  0.00     0.042 A 
HETATM   36  C   UNL     1      43.617 -17.793   4.718  1.00  0.00     0.005 A 
HETATM   37  C   UNL     1      43.053 -16.815   3.891  1.00  0.00     0.030 A 
ENDBRANCH  27  31
ENDBRANCH  24  25
ENDBRANCH   4  24
TORSDOF 7
ENDMDL
MODEL 6
REMARK VINA RESULT:      -9.1      4.069      9.854
REMARK  7 active torsions:
REMARK  status: ('A' for Active; 'I' for Inactive)
REMARK    1  A    between atoms: C_5  and  N_6 
REMARK    2  A    between atoms: C_7  and  S_8 
REMARK    3  A    between atoms: S_8  and  C_9 
REMARK    4  A    between atoms: C_9  and  C_10 
REMARK       I    between atoms: C_10  and  N_11 
REMARK    5  A    between atoms: C_13  and  C_14 
REMARK    6  A    between atoms: C_14  and  N_15 
REMARK       I    between atoms: N_15  and  C_16 
REMARK       I    between atoms: C_16  and  N_17 
REMARK    7  A    between atoms: N_17  and  C_18 
ROOT
HETATM    1  C   UNL     1      41.812 -14.851   5.186  1.00  0.00     0.229 C 
HETATM    2  N   UNL     1      42.090 -15.955   4.378  1.00  0.00    -0.351 N 
HETATM    3  C   UNL     1      41.297 -16.351   3.214  1.00  0.00     0.132 C 
HETATM    4  C   UNL     1      42.187 -16.891   2.085  1.00  0.00     0.021 C 
HETATM    5  C   UNL     1      43.062 -18.037   2.620  1.00  0.00     0.009 C 
HETATM    6  C   UNL     1      43.855 -17.624   3.861  1.00  0.00     0.020 C 
HETATM    7  C   UNL     1      42.961 -16.994   4.926  1.00  0.00     0.126 C 
HETATM    8  O   UNL     1      42.567 -14.529   6.111  1.00  0.00    -0.273 OA
ENDROOT
BRANCH   1   9
HETATM    9  C   UNL     1      40.602 -13.979   4.874  1.00  0.00     0.185 C 
BRANCH   9  10
HETATM   10  S   UNL     1      40.393 -12.617   6.061  1.00  0.00    -0.082 SA
BRANCH  10  11
HETATM   11  C   UNL     1      40.848 -11.267   5.069  1.00  0.00     0.173 A 
HETATM   12  N   UNL     1      41.961 -10.470   5.290  1.00  0.00    -0.299 N 
HETATM   13  C   UNL     1      41.818  -9.401   4.425  1.00  0.00     0.118 A 
HETATM   14  C   UNL     1      40.672  -9.640   3.708  1.00  0.00     0.137 A 
HETATM   15  N   UNL     1      40.083 -10.808   4.104  1.00  0.00    -0.235 NA
BRANCH  12  16
HETATM   16  C   UNL     1      43.094 -10.705   6.120  1.00  0.00     0.047 A 
HETATM   17  C   UNL     1      43.193 -10.164   7.426  1.00  0.00    -0.029 A 
HETATM   18  C   UNL     1      44.416 -10.311   8.126  1.00  0.00    -0.054 A 
HETATM   19  C   UNL     1      42.031  -9.480   8.106  1.00  0.00     0.051 C 
HETATM   20  C   UNL     1      44.621  -9.744   9.508  1.00  0.00     0.049 C 
HETATM   21  C   UNL     1      45.467 -11.046   7.553  1.00  0.00     0.007 A 
HETATM   22  C   UNL     1      45.338 -11.609   6.288  1.00  0.00     0.003 A 
HETATM   23  C   UNL     1      44.161 -11.434   5.569  1.00  0.00     0.030 A 
ENDBRANCH  12  16
ENDBRANCH  10  11
ENDBRANCH   9  10
ENDBRANCH   1   9
BRANCH   4  24
HETATM   24  C   UNL     1      43.056 -15.789   1.447  1.00  0.00     0.130 C 
BRANCH  24  25
HETATM   25  N   UNL     1      42.503 -14.460   1.656  1.00  0.00    -0.342 N 
HETATM   26  C   UNL     1      41.539 -13.761   0.992  1.00  0.00     0.320 C 
HETATM   27  N   UNL     1      40.891 -14.420  -0.014  1.00  0.00    -0.309 N 
HETATM   28  O   UNL     1      41.343 -12.604   1.347  1.00  0.00    -0.247 OA
HETATM   29  H   UNL     1      41.069 -15.407  -0.100  1.00  0.00     0.170 HD
HETATM   30  H   UNL     1      42.898 -13.906   2.408  1.00  0.00     0.164 HD
BRANCH  27  31
HETATM   31  C   UNL     1      39.885 -13.917  -0.868  1.00  0.00     0.039 A 
HETATM   32  C   UNL     1      38.986 -12.912  -0.510  1.00  0.00     0.071 A 
HETATM   33  C   UNL     1      38.023 -12.486  -1.423  1.00  0.00     0.118 A 
HETATM   34  F   UNL     1      37.164 -11.519  -1.071  1.00  0.00    -0.206 F 
HETATM   35  C   UNL     1      37.933 -13.044  -2.692  1.00  0.00     0.042 A 
HETATM   36  C   UNL     1      38.829 -14.042  -3.062  1.00  0.00     0.005 A 
HETATM   37  C   UNL     1      39.804 -14.471  -2.155  1.00  0.00     0.030 A 
ENDBRANCH  27  31
ENDBRANCH  24  25
ENDBRANCH   4  24
TORSDOF 7
ENDMDL
MODEL 7
REMARK VINA RESULT:      -9.1      3.891     10.279
REMARK  7 active torsions:
REMARK  status: ('A' for Active; 'I' for Inactive)
REMARK    1  A    between atoms: C_5  and  N_6 
REMARK    2  A    between atoms: C_7  and  S_8 
REMARK    3  A    between atoms: S_8  and  C_9 
REMARK    4  A    between atoms: C_9  and  C_10 
REMARK       I    between atoms: C_10  and  N_11 
REMARK    5  A    between atoms: C_13  and  C_14 
REMARK    6  A    between atoms: C_14  and  N_15 
REMARK       I    between atoms: N_15  and  C_16 
REMARK       I    between atoms: C_16  and  N_17 
REMARK    7  A    between atoms: N_17  and  C_18 
ROOT
HETATM    1  C   UNL     1      44.522  -8.539   8.936  1.00  0.00     0.229 C 
HETATM    2  N   UNL     1      44.755  -9.789   8.360  1.00  0.00    -0.351 N 
HETATM    3  C   UNL     1      44.076 -11.023   8.756  1.00  0.00     0.132 C 
HETATM    4  C   UNL     1      43.793 -11.922   7.544  1.00  0.00     0.021 C 
HETATM    5  C   UNL     1      45.101 -12.188   6.781  1.00  0.00     0.009 C 
HETATM    6  C   UNL     1      45.823 -10.893   6.409  1.00  0.00     0.020 C 
HETATM    7  C   UNL     1      45.998  -9.970   7.612  1.00  0.00     0.126 C 
HETATM    8  O   UNL     1      45.077  -7.522   8.502  1.00  0.00    -0.273 OA
ENDROOT
BRANCH   1   9
HETATM    9  C   UNL     1      43.505  -8.409  10.063  1.00  0.00     0.185 C 
BRANCH   9  10
HETATM   10  S   UNL     1      42.158  -7.255   9.664  1.00  0.00    -0.082 SA
BRANCH  10  11
HETATM   11  C   UNL     1      40.798  -8.334   9.723  1.00  0.00     0.173 A 
HETATM   12  N   UNL     1      40.333  -8.949  10.875  1.00  0.00    -0.299 N 
HETATM   13  C   UNL     1      39.406  -9.878  10.441  1.00  0.00     0.118 A 
HETATM   14  C   UNL     1      39.331  -9.733   9.077  1.00  0.00     0.137 A 
HETATM   15  N   UNL     1      40.188  -8.763   8.641  1.00  0.00    -0.235 NA
BRANCH  12  16
HETATM   16  C   UNL     1      40.616  -8.652  12.238  1.00  0.00     0.047 A 
HETATM   17  C   UNL     1      39.981  -7.585  12.922  1.00  0.00    -0.029 A 
HETATM   18  C   UNL     1      40.432  -7.254  14.224  1.00  0.00    -0.054 A 
HETATM   19  C   UNL     1      38.820  -6.825  12.327  1.00  0.00     0.051 C 
HETATM   20  C   UNL     1      39.833  -6.118  15.014  1.00  0.00     0.049 C 
HETATM   21  C   UNL     1      41.432  -8.027  14.836  1.00  0.00     0.007 A 
HETATM   22  C   UNL     1      42.014  -9.099  14.168  1.00  0.00     0.003 A 
HETATM   23  C   UNL     1      41.616  -9.407  12.872  1.00  0.00     0.030 A 
ENDBRANCH  12  16
ENDBRANCH  10  11
ENDBRANCH   9  10
ENDBRANCH   1   9
BRANCH   4  24
HETATM   24  C   UNL     1      42.723 -11.324   6.608  1.00  0.00     0.130 C 
BRANCH  24  25
HETATM   25  N   UNL     1      41.639 -12.257   6.342  1.00  0.00    -0.342 N 
HETATM   26  C   UNL     1      41.558 -13.347   5.527  1.00  0.00     0.320 C 
HETATM   27  N   UNL     1      42.705 -13.714   4.881  1.00  0.00    -0.309 N 
HETATM   28  O   UNL     1      40.466 -13.896   5.436  1.00  0.00    -0.247 OA
HETATM   29  H   UNL     1      43.551 -13.246   5.158  1.00  0.00     0.170 HD
HETATM   30  H   UNL     1      40.755 -12.086   6.806  1.00  0.00     0.164 HD
BRANCH  27  31
HETATM   31  C   UNL     1      42.878 -14.775   3.966  1.00  0.00     0.039 A 
HETATM   32  C   UNL     1      43.094 -16.102   4.338  1.00  0.00     0.071 A 
HETATM   33  C   UNL     1      43.260 -17.079   3.358  1.00  0.00     0.118 A 
HETATM   34  F   UNL     1      43.466 -18.351   3.725  1.00  0.00    -0.206 F 
HETATM   35  C   UNL     1      43.218 -16.761   2.006  1.00  0.00     0.042 A 
HETATM   36  C   UNL     1      42.996 -15.442   1.623  1.00  0.00     0.005 A 
HETATM   37  C   UNL     1      42.821 -14.456   2.600  1.00  0.00     0.030 A 
ENDBRANCH  27  31
ENDBRANCH  24  25
ENDBRANCH   4  24
TORSDOF 7
ENDMDL
MODEL 8
REMARK VINA RESULT:      -9.1      4.169      9.946
REMARK  7 active torsions:
REMARK  status: ('A' for Active; 'I' for Inactive)
REMARK    1  A    between atoms: C_5  and  N_6 
REMARK    2  A    between atoms: C_7  and  S_8 
REMARK    3  A    between atoms: S_8  and  C_9 
REMARK    4  A    between atoms: C_9  and  C_10 
REMARK       I    between atoms: C_10  and  N_11 
REMARK    5  A    between atoms: C_13  and  C_14 
REMARK    6  A    between atoms: C_14  and  N_15 
REMARK       I    between atoms: N_15  and  C_16 
REMARK       I    between atoms: C_16  and  N_17 
REMARK    7  A    between atoms: N_17  and  C_18 
ROOT
HETATM    1  C   UNL     1      39.528 -10.773   6.777  1.00  0.00     0.229 C 
HETATM    2  N   UNL     1      40.292 -11.447   5.823  1.00  0.00    -0.351 N 
HETATM    3  C   UNL     1      41.748 -11.360   5.713  1.00  0.00     0.132 C 
HETATM    4  C   UNL     1      42.365 -12.710   5.321  1.00  0.00     0.021 C 
HETATM    5  C   UNL     1      41.706 -13.223   4.029  1.00  0.00     0.009 C 
HETATM    6  C   UNL     1      40.182 -13.272   4.141  1.00  0.00     0.020 C 
HETATM    7  C   UNL     1      39.603 -11.948   4.634  1.00  0.00     0.126 C 
HETATM    8  O   UNL     1      38.307 -10.951   6.861  1.00  0.00    -0.273 OA
ENDROOT
BRANCH   1   9
HETATM    9  C   UNL     1      40.220  -9.866   7.787  1.00  0.00     0.185 C 
BRANCH   9  10
HETATM   10  S   UNL     1      39.399  -9.865   9.409  1.00  0.00    -0.082 SA
BRANCH  10  11
HETATM   11  C   UNL     1      39.730  -8.240   9.924  1.00  0.00     0.173 A 
HETATM   12  N   UNL     1      40.912  -7.832  10.523  1.00  0.00    -0.299 N 
HETATM   13  C   UNL     1      40.667  -6.547  10.970  1.00  0.00     0.118 A 
HETATM   14  C   UNL     1      39.388  -6.242  10.573  1.00  0.00     0.137 A 
HETATM   15  N   UNL     1      38.818  -7.294   9.913  1.00  0.00    -0.235 NA
BRANCH  12  16
HETATM   16  C   UNL     1      42.171  -8.494  10.588  1.00  0.00     0.047 A 
HETATM   17  C   UNL     1      43.194  -8.257   9.637  1.00  0.00    -0.029 A 
HETATM   18  C   UNL     1      44.354  -9.070   9.676  1.00  0.00    -0.054 A 
HETATM   19  C   UNL     1      43.105  -7.146   8.618  1.00  0.00     0.051 C 
HETATM   20  C   UNL     1      45.480  -8.907   8.687  1.00  0.00     0.049 C 
HETATM   21  C   UNL     1      44.502 -10.030  10.691  1.00  0.00     0.007 A 
HETATM   22  C   UNL     1      43.508 -10.220  11.644  1.00  0.00     0.003 A 
HETATM   23  C   UNL     1      42.343  -9.463  11.591  1.00  0.00     0.030 A 
ENDBRANCH  12  16
ENDBRANCH  10  11
ENDBRANCH   9  10
ENDBRANCH   1   9
BRANCH   4  24
HETATM   24  C   UNL     1      42.250 -13.756   6.448  1.00  0.00     0.130 C 
BRANCH  24  25
HETATM   25  N   UNL     1      43.492 -14.485   6.652  1.00  0.00    -0.342 N 
HETATM   26  C   UNL     1      43.952 -15.659   6.133  1.00  0.00     0.320 C 
HETATM   27  N   UNL     1      43.171 -16.255   5.184  1.00  0.00    -0.309 N 
HETATM   28  O   UNL     1      45.018 -16.081   6.567  1.00  0.00    -0.247 OA
HETATM   29  H   UNL     1      42.392 -15.722   4.837  1.00  0.00     0.170 HD
HETATM   30  H   UNL     1      44.154 -14.099   7.316  1.00  0.00     0.164 HD
BRANCH  27  31
HETATM   31  C   UNL     1      43.403 -17.480   4.520  1.00  0.00     0.039 A 
HETATM   32  C   UNL     1      43.918 -18.619   5.138  1.00  0.00     0.071 A 
HETATM   33  C   UNL     1      44.117 -19.781   4.394  1.00  0.00     0.118 A 
HETATM   34  F   UNL     1      44.611 -20.872   4.995  1.00  0.00    -0.206 F 
HETATM   35  C   UNL     1      43.815 -19.832   3.038  1.00  0.00     0.042 A 
HETATM   36  C   UNL     1      43.295 -18.703   2.413  1.00  0.00     0.005 A 
HETATM   37  C   UNL     1      43.085 -17.535   3.154  1.00  0.00     0.030 A 
ENDBRANCH  27  31
ENDBRANCH  24  25
ENDBRANCH   4  24
TORSDOF 7
ENDMDL
MODEL 9
REMARK VINA RESULT:      -8.9      5.053      8.894
REMARK  7 active torsions:
REMARK  status: ('A' for Active; 'I' for Inactive)
REMARK    1  A    between atoms: C_5  and  N_6 
REMARK    2  A    between atoms: C_7  and  S_8 
REMARK    3  A    between atoms: S_8  and  C_9 
REMARK    4  A    between atoms: C_9  and  C_10 
REMARK       I    between atoms: C_10  and  N_11 
REMARK    5  A    between atoms: C_13  and  C_14 
REMARK    6  A    between atoms: C_14  and  N_15 
REMARK       I    between atoms: N_15  and  C_16 
REMARK       I    between atoms: C_16  and  N_17 
REMARK    7  A    between atoms: N_17  and  C_18 
ROOT
HETATM    1  C   UNL     1      42.205 -12.040   3.614  1.00  0.00     0.229 C 
HETATM    2  N   UNL     1      42.912 -11.965   4.815  1.00  0.00    -0.351 N 
HETATM    3  C   UNL     1      42.354 -12.290   6.128  1.00  0.00     0.132 C 
HETATM    4  C   UNL     1      43.389 -12.986   7.023  1.00  0.00     0.021 C 
HETATM    5  C   UNL     1      44.654 -12.118   7.120  1.00  0.00     0.009 C 
HETATM    6  C   UNL     1      45.206 -11.750   5.742  1.00  0.00     0.020 C 
HETATM    7  C   UNL     1      44.131 -11.158   4.836  1.00  0.00     0.126 C 
HETATM    8  O   UNL     1      42.761 -11.823   2.530  1.00  0.00    -0.273 OA
ENDROOT
BRANCH   1   9
HETATM    9  C   UNL     1      40.745 -12.476   3.628  1.00  0.00     0.185 C 
BRANCH   9  10
HETATM   10  S   UNL     1      39.824 -11.895   2.172  1.00  0.00    -0.082 SA
BRANCH  10  11
HETATM   11  C   UNL     1      39.959 -13.288   1.144  1.00  0.00     0.173 A 
HETATM   12  N   UNL     1      39.849 -13.257  -0.238  1.00  0.00    -0.299 N 
HETATM   13  C   UNL     1      39.788 -14.583  -0.626  1.00  0.00     0.118 A 
HETATM   14  C   UNL     1      39.916 -15.324   0.523  1.00  0.00     0.137 A 
HETATM   15  N   UNL     1      40.035 -14.512   1.616  1.00  0.00    -0.235 NA
BRANCH  12  16
HETATM   16  C   UNL     1      39.904 -12.147  -1.127  1.00  0.00     0.047 A 
HETATM   17  C   UNL     1      38.736 -11.580  -1.694  1.00  0.00    -0.029 A 
HETATM   18  C   UNL     1      38.884 -10.583  -2.690  1.00  0.00    -0.054 A 
HETATM   19  C   UNL     1      37.349 -11.973  -1.243  1.00  0.00     0.051 C 
HETATM   20  C   UNL     1      37.698  -9.945  -3.367  1.00  0.00     0.049 C 
HETATM   21  C   UNL     1      40.166 -10.125  -3.036  1.00  0.00     0.007 A 
HETATM   22  C   UNL     1      41.301 -10.660  -2.438  1.00  0.00     0.003 A 
HETATM   23  C   UNL     1      41.175 -11.672  -1.493  1.00  0.00     0.030 A 
ENDBRANCH  12  16
ENDBRANCH  10  11
ENDBRANCH   9  10
ENDBRANCH   1   9
BRANCH   4  24
HETATM   24  C   UNL     1      43.732 -14.405   6.527  1.00  0.00     0.130 C 
BRANCH  24  25
HETATM   25  N   UNL     1      42.558 -15.123   6.056  1.00  0.00    -0.342 N 
HETATM   26  C   UNL     1      42.418 -16.338   5.453  1.00  0.00     0.320 C 
HETATM   27  N   UNL     1      43.553 -17.087   5.315  1.00  0.00    -0.309 N 
HETATM   28  O   UNL     1      41.293 -16.649   5.079  1.00  0.00    -0.247 OA
HETATM   29  H   UNL     1      44.376 -16.755   5.790  1.00  0.00     0.170 HD
HETATM   30  H   UNL     1      41.662 -14.660   6.149  1.00  0.00     0.164 HD
BRANCH  27  31
HETATM   31  C   UNL     1      43.683 -18.353   4.703  1.00  0.00     0.039 A 
HETATM   32  C   UNL     1      43.647 -18.562   3.324  1.00  0.00     0.071 A 
HETATM   33  C   UNL     1      43.779 -19.853   2.816  1.00  0.00     0.118 A 
HETATM   34  F   UNL     1      43.745 -20.045   1.491  1.00  0.00    -0.206 F 
HETATM   35  C   UNL     1      43.944 -20.947   3.656  1.00  0.00     0.042 A 
HETATM   36  C   UNL     1      43.987 -20.749   5.032  1.00  0.00     0.005 A 
HETATM   37  C   UNL     1      43.863 -19.456   5.552  1.00  0.00     0.030 A 
ENDBRANCH  27  31
ENDBRANCH  24  25
ENDBRANCH   4  24
TORSDOF 7
ENDMDL
MODEL 10
REMARK VINA RESULT:      -8.9      5.872      9.535
REMARK  7 active torsions:
REMARK  status: ('A' for Active; 'I' for Inactive)
REMARK    1  A    between atoms: C_5  and  N_6 
REMARK    2  A    between atoms: C_7  and  S_8 
REMARK    3  A    between atoms: S_8  and  C_9 
REMARK    4  A    between atoms: C_9  and  C_10 
REMARK       I    between atoms: C_10  and  N_11 
REMARK    5  A    between atoms: C_13  and  C_14 
REMARK    6  A    between atoms: C_14  and  N_15 
REMARK       I    between atoms: N_15  and  C_16 
REMARK       I    between atoms: C_16  and  N_17 
REMARK    7  A    between atoms: N_17  and  C_18 
ROOT
HETATM    1  C   UNL     1      41.352 -11.217   1.136  1.00  0.00     0.229 C 
HETATM    2  N   UNL     1      40.847 -11.627   2.372  1.00  0.00    -0.351 N 
HETATM    3  C   UNL     1      40.311 -12.960   2.648  1.00  0.00     0.132 C 
HETATM    4  C   UNL     1      40.676 -13.430   4.064  1.00  0.00     0.021 C 
HETATM    5  C   UNL     1      40.213 -12.384   5.091  1.00  0.00     0.009 C 
HETATM    6  C   UNL     1      40.745 -10.987   4.769  1.00  0.00     0.020 C 
HETATM    7  C   UNL     1      40.461 -10.587   3.324  1.00  0.00     0.126 C 
HETATM    8  O   UNL     1      41.859 -10.099   0.992  1.00  0.00    -0.273 OA
ENDROOT
BRANCH   1   9
HETATM    9  C   UNL     1      41.356 -12.194  -0.033  1.00  0.00     0.185 C 
BRANCH   9  10
HETATM   10  S   UNL     1      40.953 -11.395  -1.616  1.00  0.00    -0.082 SA
BRANCH  10  11
HETATM   11  C   UNL     1      39.790 -12.522  -2.245  1.00  0.00     0.173 A 
HETATM   12  N   UNL     1      38.479 -12.623  -1.805  1.00  0.00    -0.299 N 
HETATM   13  C   UNL     1      37.987 -13.773  -2.395  1.00  0.00     0.118 A 
HETATM   14  C   UNL     1      39.000 -14.260  -3.185  1.00  0.00     0.137 A 
HETATM   15  N   UNL     1      40.111 -13.470  -3.096  1.00  0.00    -0.235 NA
BRANCH  12  16
HETATM   16  C   UNL     1      37.713 -11.715  -1.020  1.00  0.00     0.047 A 
HETATM   17  C   UNL     1      37.004 -10.635  -1.600  1.00  0.00    -0.029 A 
HETATM   18  C   UNL     1      36.398  -9.685  -0.740  1.00  0.00    -0.054 A 
HETATM   19  C   UNL     1      36.838 -10.488  -3.094  1.00  0.00     0.051 C 
HETATM   20  C   UNL     1      35.647  -8.490  -1.269  1.00  0.00     0.049 C 
HETATM   21  C   UNL     1      36.444  -9.872   0.652  1.00  0.00     0.007 A 
HETATM   22  C   UNL     1      37.107 -10.962   1.204  1.00  0.00     0.003 A 
HETATM   23  C   UNL     1      37.747 -11.877   0.375  1.00  0.00     0.030 A 
ENDBRANCH  12  16
ENDBRANCH  10  11
ENDBRANCH   9  10
ENDBRANCH   1   9
BRANCH   4  24
HETATM   24  C   UNL     1      42.183 -13.718   4.214  1.00  0.00     0.130 C 
BRANCH  24  25
HETATM   25  N   UNL     1      42.768 -14.249   2.993  1.00  0.00    -0.342 N 
HETATM   26  C   UNL     1      43.170 -15.506   2.650  1.00  0.00     0.320 C 
HETATM   27  N   UNL     1      42.927 -16.495   3.560  1.00  0.00    -0.309 N 
HETATM   28  O   UNL     1      43.721 -15.639   1.562  1.00  0.00    -0.247 OA
HETATM   29  H   UNL     1      42.349 -16.255   4.348  1.00  0.00     0.170 HD
HETATM   30  H   UNL     1      42.953 -13.593   2.242  1.00  0.00     0.164 HD
BRANCH  27  31
HETATM   31  C   UNL     1      43.270 -17.862   3.462  1.00  0.00     0.039 A 
HETATM   32  C   UNL     1      43.095 -18.631   2.312  1.00  0.00     0.071 A 
HETATM   33  C   UNL     1      43.460 -19.977   2.317  1.00  0.00     0.118 A 
HETATM   34  F   UNL     1      43.290 -20.708   1.207  1.00  0.00    -0.206 F 
HETATM   35  C   UNL     1      43.995 -20.577   3.450  1.00  0.00     0.042 A 
HETATM   36  C   UNL     1      44.180 -19.817   4.600  1.00  0.00     0.005 A 
HETATM   37  C   UNL     1      43.823 -18.464   4.603  1.00  0.00     0.030 A 
ENDBRANCH  27  31
ENDBRANCH  24  25
ENDBRANCH   4  24
TORSDOF 7
ENDMDL
