MODEL 1
REMARK VINA RESULT:      -8.8      0.000      0.000
REMARK  8 active torsions:
REMARK  status: ('A' for Active; 'I' for Inactive)
REMARK    1  A    between atoms: C_2  and  C_3 
REMARK    2  A    between atoms: C_3  and  N_4 
REMARK       I    between atoms: N_4  and  C_5 
REMARK    3  A    between atoms: C_5  and  C_6 
REMARK    4  A    between atoms: C_7  and  N_8 
REMARK    5  A    between atoms: N_11  and  C_12 
REMARK    6  A    between atoms: C_13  and  O_14 
REMARK    7  A    between atoms: C_24  and  N_25 
REMARK       I    between atoms: N_25  and  C_26 
REMARK       I    between atoms: C_26  and  N_27 
REMARK    8  A    between atoms: N_27  and  C_28 
ROOT
HETATM    1  C   UNL     1      41.296 -11.588   6.001  1.00  0.00     0.060 A 
HETATM    2  C   UNL     1      42.309 -12.536   5.745  1.00  0.00     0.046 A 
HETATM    3  C   UNL     1      43.528 -12.332   6.410  1.00  0.00     0.032 A 
HETATM    4  C   UNL     1      43.739 -11.241   7.264  1.00  0.00     0.032 A 
HETATM    5  C   UNL     1      42.734 -10.304   7.488  1.00  0.00     0.037 A 
HETATM    6  C   UNL     1      41.506 -10.483   6.852  1.00  0.00     0.049 A 
ENDROOT
BRANCH   2   7
HETATM    7  N   UNL     1      42.125 -13.615   4.872  1.00  0.00    -0.377 N 
HETATM    8  C   UNL     1      41.571 -14.843   5.497  1.00  0.00     0.143 C 
HETATM    9  C   UNL     1      41.044 -15.803   4.405  1.00  0.00     0.143 C 
HETATM   10  N   UNL     1      42.074 -16.109   3.392  1.00  0.00    -0.376 N 
HETATM   11  C   UNL     1      42.691 -14.895   2.807  1.00  0.00     0.143 C 
HETATM   12  C   UNL     1      43.204 -13.935   3.907  1.00  0.00     0.143 C 
BRANCH  10  13
HETATM   13  C   UNL     1      42.763 -17.317   3.338  1.00  0.00     0.064 A 
HETATM   14  C   UNL     1      43.653 -17.804   4.325  1.00  0.00     0.094 A 
HETATM   15  C   UNL     1      44.283 -19.055   4.173  1.00  0.00     0.039 A 
HETATM   16  C   UNL     1      44.016 -19.863   3.070  1.00  0.00     0.003 A 
HETATM   17  C   UNL     1      43.130 -19.420   2.101  1.00  0.00     0.002 A 
HETATM   18  C   UNL     1      42.520 -18.169   2.238  1.00  0.00     0.032 A 
BRANCH  14  19
HETATM   19  O   UNL     1      43.974 -16.993   5.390  1.00  0.00    -0.354 OA
HETATM   20  C   UNL     1      43.616 -17.519   6.666  1.00  0.00     0.210 C 
ENDBRANCH  14  19
ENDBRANCH  10  13
ENDBRANCH   2   7
BRANCH   1  21
HETATM   21  C   UNL     1      39.972 -11.645   5.330  1.00  0.00     0.254 C 
HETATM   22  N   UNL     1      39.915 -10.951   4.134  1.00  0.00    -0.353 N 
HETATM   23  H   UNL     1      40.678 -10.325   3.912  1.00  0.00     0.163 HD
HETATM   24  O   UNL     1      39.047 -12.299   5.792  1.00  0.00    -0.268 OA
BRANCH  22  25
HETATM   25  C   UNL     1      38.683 -10.858   3.361  1.00  0.00     0.080 C 
HETATM   26  C   UNL     1      38.791 -11.712   2.100  1.00  0.00     0.032 C 
BRANCH  25  27
HETATM   27  C   UNL     1      38.307  -9.396   3.061  1.00  0.00     0.020 C 
HETATM   28  C   UNL     1      38.293  -8.478   4.277  1.00  0.00     0.007 C 
ENDBRANCH  25  27
ENDBRANCH  22  25
ENDBRANCH   1  21
BRANCH   5  29
HETATM   29  N   UNL     1      42.912  -9.148   8.277  1.00  0.00    -0.309 N 
HETATM   30  C   UNL     1      42.460  -8.956   9.576  1.00  0.00     0.325 C 
HETATM   31  N   UNL     1      43.079  -7.858  10.149  1.00  0.00    -0.307 N 
HETATM   32  O   UNL     1      41.641  -9.672  10.137  1.00  0.00    -0.247 OA
HETATM   33  H   UNL     1      43.901  -7.509   9.676  1.00  0.00     0.170 HD
HETATM   34  H   UNL     1      43.305  -8.338   7.819  1.00  0.00     0.170 HD
BRANCH  31  35
HETATM   35  C   UNL     1      42.889  -7.352  11.460  1.00  0.00     0.053 A 
HETATM   36  C   UNL     1      42.248  -6.110  11.621  1.00  0.00     0.037 A 
HETATM   37 BR   UNL     1      41.623  -5.115  10.123  1.00  0.00    -0.049 Br
HETATM   38  C   UNL     1      42.062  -5.554  12.891  1.00  0.00     0.021 A 
HETATM   39  C   UNL     1      42.506  -6.238  14.021  1.00  0.00     0.002 A 
HETATM   40  C   UNL     1      43.124  -7.477  13.878  1.00  0.00     0.002 A 
HETATM   41  C   UNL     1      43.310  -8.033  12.607  1.00  0.00     0.031 A 
ENDBRANCH  31  35
ENDBRANCH   5  29
TORSDOF 8
ENDMDL
MODEL 2
REMARK VINA RESULT:      -8.7      2.905      5.531
REMARK  8 active torsions:
REMARK  status: ('A' for Active; 'I' for Inactive)
REMARK    1  A    between atoms: C_2  and  C_3 
REMARK    2  A    between atoms: C_3  and  N_4 
REMARK       I    between atoms: N_4  and  C_5 
REMARK    3  A    between atoms: C_5  and  C_6 
REMARK    4  A    between atoms: C_7  and  N_8 
REMARK    5  A    between atoms: N_11  and  C_12 
REMARK    6  A    between atoms: C_13  and  O_14 
REMARK    7  A    between atoms: C_24  and  N_25 
REMARK       I    between atoms: N_25  and  C_26 
REMARK       I    between atoms: C_26  and  N_27 
REMARK    8  A    between atoms: N_27  and  C_28 
ROOT
HETATM    1  C   UNL     1      42.424 -13.168   5.396  1.00  0.00     0.060 A 
HETATM    2  C   UNL     1      42.043 -12.636   4.145  1.00  0.00     0.046 A 
HETATM    3  C   UNL     1      42.268 -11.263   3.964  1.00  0.00     0.032 A 
HETATM    4  C   UNL     1      42.820 -10.458   4.969  1.00  0.00     0.032 A 
HETATM    5  C   UNL     1      43.171 -10.996   6.205  1.00  0.00     0.037 A 
HETATM    6  C   UNL     1      42.971 -12.360   6.414  1.00  0.00     0.049 A 
ENDROOT
BRANCH   2   7
HETATM    7  N   UNL     1      41.463 -13.420   3.141  1.00  0.00    -0.377 N 
HETATM    8  C   UNL     1      42.342 -13.707   1.979  1.00  0.00     0.143 C 
HETATM    9  C   UNL     1      41.762 -14.876   1.150  1.00  0.00     0.143 C 
HETATM   10  N   UNL     1      40.365 -14.629   0.744  1.00  0.00    -0.376 N 
HETATM   11  C   UNL     1      39.485 -14.272   1.882  1.00  0.00     0.143 C 
HETATM   12  C   UNL     1      40.078 -13.109   2.713  1.00  0.00     0.143 C 
BRANCH  10  13
HETATM   13  C   UNL     1      39.992 -14.262  -0.545  1.00  0.00     0.064 A 
HETATM   14  C   UNL     1      40.332 -13.049  -1.189  1.00  0.00     0.094 A 
HETATM   15  C   UNL     1      39.915 -12.791  -2.509  1.00  0.00     0.039 A 
HETATM   16  C   UNL     1      39.194 -13.739  -3.231  1.00  0.00     0.003 A 
HETATM   17  C   UNL     1      38.869 -14.946  -2.634  1.00  0.00     0.002 A 
HETATM   18  C   UNL     1      39.263 -15.196  -1.315  1.00  0.00     0.032 A 
BRANCH  14  19
HETATM   19  O   UNL     1      40.991 -12.076  -0.470  1.00  0.00    -0.354 OA
HETATM   20  C   UNL     1      40.264 -10.860  -0.313  1.00  0.00     0.210 C 
ENDBRANCH  14  19
ENDBRANCH  10  13
ENDBRANCH   2   7
BRANCH   1  21
HETATM   21  C   UNL     1      42.200 -14.592   5.751  1.00  0.00     0.254 C 
HETATM   22  N   UNL     1      43.257 -15.427   5.432  1.00  0.00    -0.353 N 
HETATM   23  H   UNL     1      43.986 -15.062   4.834  1.00  0.00     0.163 HD
HETATM   24  O   UNL     1      41.180 -14.958   6.320  1.00  0.00    -0.268 OA
BRANCH  22  25
HETATM   25  C   UNL     1      43.195 -16.865   5.666  1.00  0.00     0.080 C 
HETATM   26  C   UNL     1      43.645 -17.183   7.089  1.00  0.00     0.032 C 
BRANCH  25  27
HETATM   27  C   UNL     1      43.981 -17.650   4.601  1.00  0.00     0.020 C 
HETATM   28  C   UNL     1      43.357 -17.640   3.211  1.00  0.00     0.007 C 
ENDBRANCH  25  27
ENDBRANCH  22  25
ENDBRANCH   1  21
BRANCH   5  29
HETATM   29  N   UNL     1      43.661 -10.222   7.278  1.00  0.00    -0.309 N 
HETATM   30  C   UNL     1      42.901  -9.552   8.228  1.00  0.00     0.325 C 
HETATM   31  N   UNL     1      43.689  -9.172   9.301  1.00  0.00    -0.307 N 
HETATM   32  O   UNL     1      41.698  -9.346   8.132  1.00  0.00    -0.247 OA
HETATM   33  H   UNL     1      44.596  -9.612   9.369  1.00  0.00     0.170 HD
HETATM   34  H   UNL     1      44.653 -10.040   7.294  1.00  0.00     0.170 HD
BRANCH  31  35
HETATM   35  C   UNL     1      43.276  -8.480  10.467  1.00  0.00     0.053 A 
HETATM   36  C   UNL     1      43.221  -9.179  11.687  1.00  0.00     0.037 A 
HETATM   37 BR   UNL     1      43.705 -11.017  11.798  1.00  0.00    -0.049 Br
HETATM   38  C   UNL     1      42.793  -8.549  12.860  1.00  0.00     0.021 A 
HETATM   39  C   UNL     1      42.422  -7.206  12.832  1.00  0.00     0.002 A 
HETATM   40  C   UNL     1      42.490  -6.497  11.637  1.00  0.00     0.002 A 
HETATM   41  C   UNL     1      42.918  -7.128  10.463  1.00  0.00     0.031 A 
ENDBRANCH  31  35
ENDBRANCH   5  29
TORSDOF 8
ENDMDL
MODEL 3
REMARK VINA RESULT:      -8.7      1.040      1.451
REMARK  8 active torsions:
REMARK  status: ('A' for Active; 'I' for Inactive)
REMARK    1  A    between atoms: C_2  and  C_3 
REMARK    2  A    between atoms: C_3  and  N_4 
REMARK       I    between atoms: N_4  and  C_5 
REMARK    3  A    between atoms: C_5  and  C_6 
REMARK    4  A    between atoms: C_7  and  N_8 
REMARK    5  A    between atoms: N_11  and  C_12 
REMARK    6  A    between atoms: C_13  and  O_14 
REMARK    7  A    between atoms: C_24  and  N_25 
REMARK       I    between atoms: N_25  and  C_26 
REMARK       I    between atoms: C_26  and  N_27 
REMARK    8  A    between atoms: N_27  and  C_28 
ROOT
HETATM    1  C   UNL     1      42.261 -11.534   5.208  1.00  0.00     0.060 A 
HETATM    2  C   UNL     1      42.684 -12.847   5.504  1.00  0.00     0.046 A 
HETATM    3  C   UNL     1      43.333 -13.024   6.735  1.00  0.00     0.032 A 
HETATM    4  C   UNL     1      43.568 -11.959   7.615  1.00  0.00     0.032 A 
HETATM    5  C   UNL     1      43.161 -10.665   7.297  1.00  0.00     0.037 A 
HETATM    6  C   UNL     1      42.503 -10.457   6.086  1.00  0.00     0.049 A 
ENDROOT
BRANCH   2   7
HETATM    7  N   UNL     1      42.485 -13.917   4.623  1.00  0.00    -0.377 N 
HETATM    8  C   UNL     1      41.754 -15.076   5.196  1.00  0.00     0.143 C 
HETATM    9  C   UNL     1      41.249 -15.998   4.062  1.00  0.00     0.143 C 
HETATM   10  N   UNL     1      42.340 -16.418   3.161  1.00  0.00    -0.376 N 
HETATM   11  C   UNL     1      43.127 -15.278   2.633  1.00  0.00     0.143 C 
HETATM   12  C   UNL     1      43.618 -14.354   3.774  1.00  0.00     0.143 C 
BRANCH  10  13
HETATM   13  C   UNL     1      42.910 -17.687   3.183  1.00  0.00     0.064 A 
HETATM   14  C   UNL     1      43.670 -18.231   4.246  1.00  0.00     0.094 A 
HETATM   15  C   UNL     1      44.185 -19.540   4.168  1.00  0.00     0.039 A 
HETATM   16  C   UNL     1      43.926 -20.347   3.064  1.00  0.00     0.003 A 
HETATM   17  C   UNL     1      43.164 -19.848   2.020  1.00  0.00     0.002 A 
HETATM   18  C   UNL     1      42.670 -18.541   2.085  1.00  0.00     0.032 A 
BRANCH  14  19
HETATM   19  O   UNL     1      43.987 -17.426   5.318  1.00  0.00    -0.354 OA
HETATM   20  C   UNL     1      43.512 -17.898   6.576  1.00  0.00     0.210 C 
ENDBRANCH  14  19
ENDBRANCH  10  13
ENDBRANCH   2   7
BRANCH   1  21
HETATM   21  C   UNL     1      41.608 -11.185   3.921  1.00  0.00     0.254 C 
HETATM   22  N   UNL     1      40.225 -11.159   3.978  1.00  0.00    -0.353 N 
HETATM   23  H   UNL     1      39.777 -11.551   4.796  1.00  0.00     0.163 HD
HETATM   24  O   UNL     1      42.262 -10.901   2.926  1.00  0.00    -0.268 OA
BRANCH  22  25
HETATM   25  C   UNL     1      39.415 -10.882   2.799  1.00  0.00     0.080 C 
HETATM   26  C   UNL     1      38.516  -9.675   3.054  1.00  0.00     0.032 C 
BRANCH  25  27
HETATM   27  C   UNL     1      38.630 -12.124   2.341  1.00  0.00     0.020 C 
HETATM   28  C   UNL     1      39.375 -13.444   2.500  1.00  0.00     0.007 C 
ENDBRANCH  25  27
ENDBRANCH  22  25
ENDBRANCH   1  21
BRANCH   5  29
HETATM   29  N   UNL     1      43.435  -9.544   8.108  1.00  0.00    -0.309 N 
HETATM   30  C   UNL     1      42.766  -9.181   9.269  1.00  0.00     0.325 C 
HETATM   31  N   UNL     1      43.490  -8.232   9.971  1.00  0.00    -0.307 N 
HETATM   32  O   UNL     1      41.694  -9.652   9.627  1.00  0.00    -0.247 OA
HETATM   33  H   UNL     1      44.456  -8.113   9.699  1.00  0.00     0.170 HD
HETATM   34  H   UNL     1      44.104  -8.876   7.753  1.00  0.00     0.170 HD
BRANCH  31  35
HETATM   35  C   UNL     1      43.142  -7.625  11.205  1.00  0.00     0.053 A 
HETATM   36  C   UNL     1      42.477  -6.386  11.187  1.00  0.00     0.037 A 
HETATM   37 BR   UNL     1      42.025  -5.526   9.549  1.00  0.00    -0.049 Br
HETATM   38  C   UNL     1      42.138  -5.734  12.377  1.00  0.00     0.021 A 
HETATM   39  C   UNL     1      42.450  -6.316  13.603  1.00  0.00     0.002 A 
HETATM   40  C   UNL     1      43.091  -7.552  13.636  1.00  0.00     0.002 A 
HETATM   41  C   UNL     1      43.430  -8.204  12.445  1.00  0.00     0.031 A 
ENDBRANCH  31  35
ENDBRANCH   5  29
TORSDOF 8
ENDMDL
MODEL 4
REMARK VINA RESULT:      -8.2      2.276      2.944
REMARK  8 active torsions:
REMARK  status: ('A' for Active; 'I' for Inactive)
REMARK    1  A    between atoms: C_2  and  C_3 
REMARK    2  A    between atoms: C_3  and  N_4 
REMARK       I    between atoms: N_4  and  C_5 
REMARK    3  A    between atoms: C_5  and  C_6 
REMARK    4  A    between atoms: C_7  and  N_8 
REMARK    5  A    between atoms: N_11  and  C_12 
REMARK    6  A    between atoms: C_13  and  O_14 
REMARK    7  A    between atoms: C_24  and  N_25 
REMARK       I    between atoms: N_25  and  C_26 
REMARK       I    between atoms: C_26  and  N_27 
REMARK    8  A    between atoms: N_27  and  C_28 
ROOT
HETATM    1  C   UNL     1      40.965 -11.960   3.351  1.00  0.00     0.060 A 
HETATM    2  C   UNL     1      42.001 -12.876   3.634  1.00  0.00     0.046 A 
HETATM    3  C   UNL     1      42.995 -12.430   4.517  1.00  0.00     0.032 A 
HETATM    4  C   UNL     1      42.977 -11.143   5.074  1.00  0.00     0.032 A 
HETATM    5  C   UNL     1      41.958 -10.245   4.767  1.00  0.00     0.037 A 
HETATM    6  C   UNL     1      40.948 -10.661   3.901  1.00  0.00     0.049 A 
ENDROOT
BRANCH   2   7
HETATM    7  N   UNL     1      42.050 -14.153   3.063  1.00  0.00    -0.377 N 
HETATM    8  C   UNL     1      41.307 -15.203   3.805  1.00  0.00     0.143 C 
HETATM    9  C   UNL     1      41.095 -16.442   2.903  1.00  0.00     0.143 C 
HETATM   10  N   UNL     1      42.366 -16.946   2.347  1.00  0.00    -0.376 N 
HETATM   11  C   UNL     1      43.157 -15.896   1.663  1.00  0.00     0.143 C 
HETATM   12  C   UNL     1      43.354 -14.656   2.568  1.00  0.00     0.143 C 
BRANCH  10  13
HETATM   13  C   UNL     1      43.010 -18.087   2.814  1.00  0.00     0.064 A 
HETATM   14  C   UNL     1      43.690 -18.204   4.050  1.00  0.00     0.094 A 
HETATM   15  C   UNL     1      44.292 -19.420   4.430  1.00  0.00     0.039 A 
HETATM   16  C   UNL     1      44.198 -20.549   3.622  1.00  0.00     0.003 A 
HETATM   17  C   UNL     1      43.517 -20.470   2.418  1.00  0.00     0.002 A 
HETATM   18  C   UNL     1      42.938 -19.258   2.027  1.00  0.00     0.032 A 
BRANCH  14  19
HETATM   19  O   UNL     1      43.844 -17.082   4.833  1.00  0.00    -0.354 OA
HETATM   20  C   UNL     1      43.369 -17.220   6.170  1.00  0.00     0.210 C 
ENDBRANCH  14  19
ENDBRANCH  10  13
ENDBRANCH   2   7
BRANCH   1  21
HETATM   21  C   UNL     1      39.873 -12.272   2.395  1.00  0.00     0.254 C 
HETATM   22  N   UNL     1      40.173 -11.975   1.077  1.00  0.00    -0.353 N 
HETATM   23  H   UNL     1      40.995 -11.413   0.893  1.00  0.00     0.163 HD
HETATM   24  O   UNL     1      38.829 -12.794   2.762  1.00  0.00    -0.268 OA
BRANCH  22  25
HETATM   25  C   UNL     1      39.204 -12.171   0.007  1.00  0.00     0.080 C 
HETATM   26  C   UNL     1      39.499 -13.472  -0.735  1.00  0.00     0.032 C 
BRANCH  25  27
HETATM   27  C   UNL     1      39.133 -10.952  -0.930  1.00  0.00     0.020 C 
HETATM   28  C   UNL     1      39.732  -9.673  -0.359  1.00  0.00     0.007 C 
ENDBRANCH  25  27
ENDBRANCH  22  25
ENDBRANCH   1  21
BRANCH   5  29
HETATM   29  N   UNL     1      41.927  -8.916   5.238  1.00  0.00    -0.309 N 
HETATM   30  C   UNL     1      41.636  -8.504   6.532  1.00  0.00     0.325 C 
HETATM   31  N   UNL     1      42.009  -7.183   6.716  1.00  0.00    -0.307 N 
HETATM   32  O   UNL     1      41.138  -9.220   7.391  1.00  0.00    -0.247 OA
HETATM   33  H   UNL     1      42.624  -6.789   6.018  1.00  0.00     0.170 HD
HETATM   34  H   UNL     1      42.010  -8.185   4.547  1.00  0.00     0.170 HD
BRANCH  31  35
HETATM   35  C   UNL     1      41.883  -6.413   7.900  1.00  0.00     0.053 A 
HETATM   36  C   UNL     1      42.807  -6.614   8.942  1.00  0.00     0.037 A 
HETATM   37 BR   UNL     1      44.219  -7.881   8.782  1.00  0.00    -0.049 Br
HETATM   38  C   UNL     1      42.708  -5.900  10.140  1.00  0.00     0.021 A 
HETATM   39  C   UNL     1      41.690  -4.965  10.311  1.00  0.00     0.002 A 
HETATM   40  C   UNL     1      40.780  -4.741   9.281  1.00  0.00     0.002 A 
HETATM   41  C   UNL     1      40.879  -5.456   8.082  1.00  0.00     0.031 A 
ENDBRANCH  31  35
ENDBRANCH   5  29
TORSDOF 8
ENDMDL
MODEL 5
REMARK VINA RESULT:      -8.1      5.650      9.750
REMARK  8 active torsions:
REMARK  status: ('A' for Active; 'I' for Inactive)
REMARK    1  A    between atoms: C_2  and  C_3 
REMARK    2  A    between atoms: C_3  and  N_4 
REMARK       I    between atoms: N_4  and  C_5 
REMARK    3  A    between atoms: C_5  and  C_6 
REMARK    4  A    between atoms: C_7  and  N_8 
REMARK    5  A    between atoms: N_11  and  C_12 
REMARK    6  A    between atoms: C_13  and  O_14 
REMARK    7  A    between atoms: C_24  and  N_25 
REMARK       I    between atoms: N_25  and  C_26 
REMARK       I    between atoms: C_26  and  N_27 
REMARK    8  A    between atoms: N_27  and  C_28 
ROOT
HETATM    1  C   UNL     1      39.664 -12.876   0.782  1.00  0.00     0.060 A 
HETATM    2  C   UNL     1      40.259 -14.144   0.610  1.00  0.00     0.046 A 
HETATM    3  C   UNL     1      40.054 -14.758  -0.635  1.00  0.00     0.032 A 
HETATM    4  C   UNL     1      39.287 -14.160  -1.645  1.00  0.00     0.032 A 
HETATM    5  C   UNL     1      38.690 -12.918  -1.449  1.00  0.00     0.037 A 
HETATM    6  C   UNL     1      38.883 -12.275  -0.227  1.00  0.00     0.049 A 
ENDROOT
BRANCH   2   7
HETATM    7  N   UNL     1      41.003 -14.768   1.618  1.00  0.00    -0.377 N 
HETATM    8  C   UNL     1      42.417 -15.058   1.269  1.00  0.00     0.143 C 
HETATM    9  C   UNL     1      43.228 -15.365   2.550  1.00  0.00     0.143 C 
HETATM   10  N   UNL     1      42.617 -16.448   3.346  1.00  0.00    -0.376 N 
HETATM   11  C   UNL     1      41.185 -16.210   3.645  1.00  0.00     0.143 C 
HETATM   12  C   UNL     1      40.384 -15.892   2.360  1.00  0.00     0.143 C 
BRANCH  10  13
HETATM   13  C   UNL     1      43.116 -17.746   3.388  1.00  0.00     0.064 A 
HETATM   14  C   UNL     1      43.812 -18.328   4.474  1.00  0.00     0.094 A 
HETATM   15  C   UNL     1      44.256 -19.663   4.414  1.00  0.00     0.039 A 
HETATM   16  C   UNL     1      43.985 -20.459   3.303  1.00  0.00     0.003 A 
HETATM   17  C   UNL     1      43.284 -19.922   2.236  1.00  0.00     0.002 A 
HETATM   18  C   UNL     1      42.861 -18.589   2.284  1.00  0.00     0.032 A 
BRANCH  14  19
HETATM   19  O   UNL     1      44.141 -17.539   5.553  1.00  0.00    -0.354 OA
HETATM   20  C   UNL     1      43.312 -17.722   6.698  1.00  0.00     0.210 C 
ENDBRANCH  14  19
ENDBRANCH  10  13
ENDBRANCH   2   7
BRANCH   1  21
HETATM   21  C   UNL     1      39.752 -12.130   2.063  1.00  0.00     0.254 C 
HETATM   22  N   UNL     1      40.774 -11.197   2.105  1.00  0.00    -0.353 N 
HETATM   23  H   UNL     1      41.474 -11.228   1.375  1.00  0.00     0.163 HD
HETATM   24  O   UNL     1      38.946 -12.309   2.966  1.00  0.00    -0.268 OA
BRANCH  22  25
HETATM   25  C   UNL     1      41.040 -10.405   3.299  1.00  0.00     0.080 C 
HETATM   26  C   UNL     1      40.732  -8.935   3.031  1.00  0.00     0.032 C 
BRANCH  25  27
HETATM   27  C   UNL     1      42.469 -10.629   3.826  1.00  0.00     0.020 C 
HETATM   28  C   UNL     1      42.734 -12.024   4.380  1.00  0.00     0.007 C 
ENDBRANCH  25  27
ENDBRANCH  22  25
ENDBRANCH   1  21
BRANCH   5  29
HETATM   29  N   UNL     1      37.848 -12.302  -2.399  1.00  0.00    -0.309 N 
HETATM   30  C   UNL     1      37.064 -11.173  -2.200  1.00  0.00     0.325 C 
HETATM   31  N   UNL     1      36.627 -10.665  -3.411  1.00  0.00    -0.307 N 
HETATM   32  O   UNL     1      36.813 -10.689  -1.103  1.00  0.00    -0.247 OA
HETATM   33  H   UNL     1      37.100 -11.006  -4.237  1.00  0.00     0.170 HD
HETATM   34  H   UNL     1      37.710 -12.790  -3.271  1.00  0.00     0.170 HD
BRANCH  31  35
HETATM   35  C   UNL     1      35.818  -9.520  -3.620  1.00  0.00     0.053 A 
HETATM   36  C   UNL     1      34.440  -9.695  -3.847  1.00  0.00     0.037 A 
HETATM   37 BR   UNL     1      33.650 -11.427  -3.859  1.00  0.00    -0.049 Br
HETATM   38  C   UNL     1      33.605  -8.599  -4.086  1.00  0.00     0.021 A 
HETATM   39  C   UNL     1      34.133  -7.310  -4.094  1.00  0.00     0.002 A 
HETATM   40  C   UNL     1      35.491  -7.120  -3.851  1.00  0.00     0.002 A 
HETATM   41  C   UNL     1      36.326  -8.216  -3.612  1.00  0.00     0.031 A 
ENDBRANCH  31  35
ENDBRANCH   5  29
TORSDOF 8
ENDMDL
MODEL 6
REMARK VINA RESULT:      -8.0      2.747      3.549
REMARK  8 active torsions:
REMARK  status: ('A' for Active; 'I' for Inactive)
REMARK    1  A    between atoms: C_2  and  C_3 
REMARK    2  A    between atoms: C_3  and  N_4 
REMARK       I    between atoms: N_4  and  C_5 
REMARK    3  A    between atoms: C_5  and  C_6 
REMARK    4  A    between atoms: C_7  and  N_8 
REMARK    5  A    between atoms: N_11  and  C_12 
REMARK    6  A    between atoms: C_13  and  O_14 
REMARK    7  A    between atoms: C_24  and  N_25 
REMARK       I    between atoms: N_25  and  C_26 
REMARK       I    between atoms: C_26  and  N_27 
REMARK    8  A    between atoms: N_27  and  C_28 
ROOT
HETATM    1  C   UNL     1      40.728 -11.944   3.395  1.00  0.00     0.060 A 
HETATM    2  C   UNL     1      40.825 -13.223   3.983  1.00  0.00     0.046 A 
HETATM    3  C   UNL     1      40.311 -13.344   5.284  1.00  0.00     0.032 A 
HETATM    4  C   UNL     1      39.753 -12.258   5.970  1.00  0.00     0.032 A 
HETATM    5  C   UNL     1      39.685 -10.998   5.381  1.00  0.00     0.037 A 
HETATM    6  C   UNL     1      40.176 -10.845   4.085  1.00  0.00     0.049 A 
ENDROOT
BRANCH   2   7
HETATM    7  N   UNL     1      41.406 -14.311   3.323  1.00  0.00    -0.377 N 
HETATM    8  C   UNL     1      40.623 -15.571   3.376  1.00  0.00     0.143 C 
HETATM    9  C   UNL     1      41.141 -16.564   2.308  1.00  0.00     0.143 C 
HETATM   10  N   UNL     1      42.592 -16.804   2.432  1.00  0.00    -0.376 N 
HETATM   11  C   UNL     1      43.387 -15.553   2.452  1.00  0.00     0.143 C 
HETATM   12  C   UNL     1      42.855 -14.562   3.514  1.00  0.00     0.143 C 
BRANCH  10  13
HETATM   13  C   UNL     1      43.135 -17.965   2.972  1.00  0.00     0.064 A 
HETATM   14  C   UNL     1      43.608 -18.116   4.298  1.00  0.00     0.094 A 
HETATM   15  C   UNL     1      44.122 -19.349   4.744  1.00  0.00     0.039 A 
HETATM   16  C   UNL     1      44.141 -20.462   3.908  1.00  0.00     0.003 A 
HETATM   17  C   UNL     1      43.662 -20.349   2.613  1.00  0.00     0.002 A 
HETATM   18  C   UNL     1      43.171 -19.120   2.160  1.00  0.00     0.032 A 
BRANCH  14  19
HETATM   19  O   UNL     1      43.653 -17.010   5.118  1.00  0.00    -0.354 OA
HETATM   20  C   UNL     1      42.843 -17.105   6.287  1.00  0.00     0.210 C 
ENDBRANCH  14  19
ENDBRANCH  10  13
ENDBRANCH   2   7
BRANCH   1  21
HETATM   21  C   UNL     1      41.274 -11.651   2.045  1.00  0.00     0.254 C 
HETATM   22  N   UNL     1      40.407 -11.949   1.008  1.00  0.00    -0.353 N 
HETATM   23  H   UNL     1      39.585 -12.498   1.220  1.00  0.00     0.163 HD
HETATM   24  O   UNL     1      42.378 -11.144   1.897  1.00  0.00    -0.268 OA
BRANCH  22  25
HETATM   25  C   UNL     1      40.792 -11.771  -0.387  1.00  0.00     0.080 C 
HETATM   26  C   UNL     1      40.241 -10.449  -0.916  1.00  0.00     0.032 C 
BRANCH  25  27
HETATM   27  C   UNL     1      40.382 -12.977  -1.250  1.00  0.00     0.020 C 
HETATM   28  C   UNL     1      40.051 -14.240  -0.465  1.00  0.00     0.007 C 
ENDBRANCH  25  27
ENDBRANCH  22  25
ENDBRANCH   1  21
BRANCH   5  29
HETATM   29  N   UNL     1      39.202  -9.853   6.050  1.00  0.00    -0.309 N 
HETATM   30  C   UNL     1      39.810  -9.199   7.114  1.00  0.00     0.325 C 
HETATM   31  N   UNL     1      39.242  -7.952   7.306  1.00  0.00    -0.307 N 
HETATM   32  O   UNL     1      40.733  -9.660   7.773  1.00  0.00    -0.247 OA
HETATM   33  H   UNL     1      38.669  -7.599   6.553  1.00  0.00     0.170 HD
HETATM   34  H   UNL     1      38.271  -9.544   5.813  1.00  0.00     0.170 HD
BRANCH  31  35
HETATM   35  C   UNL     1      39.598  -6.988   8.283  1.00  0.00     0.053 A 
HETATM   36  C   UNL     1      40.634  -6.080   7.995  1.00  0.00     0.037 A 
HETATM   37 BR   UNL     1      41.546  -6.116   6.325  1.00  0.00    -0.049 Br
HETATM   38  C   UNL     1      41.041  -5.130   8.937  1.00  0.00     0.021 A 
HETATM   39  C   UNL     1      40.410  -5.065  10.177  1.00  0.00     0.002 A 
HETATM   40  C   UNL     1      39.370  -5.943  10.469  1.00  0.00     0.002 A 
HETATM   41  C   UNL     1      38.963  -6.894   9.527  1.00  0.00     0.031 A 
ENDBRANCH  31  35
ENDBRANCH   5  29
TORSDOF 8
ENDMDL
MODEL 7
REMARK VINA RESULT:      -7.8      5.190     10.923
REMARK  8 active torsions:
REMARK  status: ('A' for Active; 'I' for Inactive)
REMARK    1  A    between atoms: C_2  and  C_3 
REMARK    2  A    between atoms: C_3  and  N_4 
REMARK       I    between atoms: N_4  and  C_5 
REMARK    3  A    between atoms: C_5  and  C_6 
REMARK    4  A    between atoms: C_7  and  N_8 
REMARK    5  A    between atoms: N_11  and  C_12 
REMARK    6  A    between atoms: C_13  and  O_14 
REMARK    7  A    between atoms: C_24  and  N_25 
REMARK       I    between atoms: N_25  and  C_26 
REMARK       I    between atoms: C_26  and  N_27 
REMARK    8  A    between atoms: N_27  and  C_28 
ROOT
HETATM    1  C   UNL     1      40.513 -12.082   1.034  1.00  0.00     0.060 A 
HETATM    2  C   UNL     1      39.635 -12.414  -0.020  1.00  0.00     0.046 A 
HETATM    3  C   UNL     1      39.717 -13.729  -0.500  1.00  0.00     0.032 A 
HETATM    4  C   UNL     1      40.629 -14.658   0.019  1.00  0.00     0.032 A 
HETATM    5  C   UNL     1      41.502 -14.307   1.045  1.00  0.00     0.037 A 
HETATM    6  C   UNL     1      41.439 -13.010   1.554  1.00  0.00     0.049 A 
ENDROOT
BRANCH   2   7
HETATM    7  N   UNL     1      38.739 -11.490  -0.570  1.00  0.00    -0.377 N 
HETATM    8  C   UNL     1      37.438 -11.377   0.137  1.00  0.00     0.143 C 
HETATM    9  C   UNL     1      36.710 -10.082  -0.295  1.00  0.00     0.143 C 
HETATM   10  N   UNL     1      36.557  -9.994  -1.761  1.00  0.00    -0.376 N 
HETATM   11  C   UNL     1      37.836 -10.175  -2.488  1.00  0.00     0.143 C 
HETATM   12  C   UNL     1      38.563 -11.466  -2.042  1.00  0.00     0.143 C 
BRANCH  10  13
HETATM   13  C   UNL     1      35.357 -10.229  -2.424  1.00  0.00     0.064 A 
HETATM   14  C   UNL     1      34.162  -9.490  -2.254  1.00  0.00     0.094 A 
HETATM   15  C   UNL     1      33.007  -9.806  -2.996  1.00  0.00     0.039 A 
HETATM   16  C   UNL     1      33.022 -10.825  -3.946  1.00  0.00     0.003 A 
HETATM   17  C   UNL     1      34.186 -11.548  -4.150  1.00  0.00     0.002 A 
HETATM   18  C   UNL     1      35.328 -11.251  -3.398  1.00  0.00     0.032 A 
BRANCH  14  19
HETATM   19  O   UNL     1      34.112  -8.521  -1.277  1.00  0.00    -0.354 OA
HETATM   20  C   UNL     1      32.813  -8.290  -0.737  1.00  0.00     0.210 C 
ENDBRANCH  14  19
ENDBRANCH  10  13
ENDBRANCH   2   7
BRANCH   1  21
HETATM   21  C   UNL     1      40.576 -10.714   1.609  1.00  0.00     0.254 C 
HETATM   22  N   UNL     1      40.030 -10.608   2.877  1.00  0.00    -0.353 N 
HETATM   23  H   UNL     1      39.479 -11.383   3.222  1.00  0.00     0.163 HD
HETATM   24  O   UNL     1      41.116  -9.792   1.013  1.00  0.00    -0.268 OA
BRANCH  22  25
HETATM   25  C   UNL     1      39.962  -9.332   3.578  1.00  0.00     0.080 C 
HETATM   26  C   UNL     1      41.175  -9.172   4.491  1.00  0.00     0.032 C 
BRANCH  25  27
HETATM   27  C   UNL     1      38.627  -9.161   4.323  1.00  0.00     0.020 C 
HETATM   28  C   UNL     1      38.702  -8.297   5.576  1.00  0.00     0.007 C 
ENDBRANCH  25  27
ENDBRANCH  22  25
ENDBRANCH   1  21
BRANCH   5  29
HETATM   29  N   UNL     1      42.490 -15.175   1.556  1.00  0.00    -0.309 N 
HETATM   30  C   UNL     1      42.272 -16.342   2.277  1.00  0.00     0.325 C 
HETATM   31  N   UNL     1      43.429 -17.100   2.336  1.00  0.00    -0.307 N 
HETATM   32  O   UNL     1      41.198 -16.659   2.772  1.00  0.00    -0.247 OA
HETATM   33  H   UNL     1      44.163 -16.849   1.689  1.00  0.00     0.170 HD
HETATM   34  H   UNL     1      43.448 -14.864   1.494  1.00  0.00     0.170 HD
BRANCH  31  35
HETATM   35  C   UNL     1      43.601 -18.356   2.972  1.00  0.00     0.053 A 
HETATM   36  C   UNL     1      43.929 -18.384   4.340  1.00  0.00     0.037 A 
HETATM   37 BR   UNL     1      44.127 -16.780   5.345  1.00  0.00    -0.049 Br
HETATM   38  C   UNL     1      44.138 -19.597   5.005  1.00  0.00     0.021 A 
HETATM   39  C   UNL     1      44.011 -20.800   4.315  1.00  0.00     0.002 A 
HETATM   40  C   UNL     1      43.667 -20.788   2.966  1.00  0.00     0.002 A 
HETATM   41  C   UNL     1      43.459 -19.574   2.300  1.00  0.00     0.031 A 
ENDBRANCH  31  35
ENDBRANCH   5  29
TORSDOF 8
ENDMDL
MODEL 8
REMARK VINA RESULT:      -7.6      4.738      8.391
REMARK  8 active torsions:
REMARK  status: ('A' for Active; 'I' for Inactive)
REMARK    1  A    between atoms: C_2  and  C_3 
REMARK    2  A    between atoms: C_3  and  N_4 
REMARK       I    between atoms: N_4  and  C_5 
REMARK    3  A    between atoms: C_5  and  C_6 
REMARK    4  A    between atoms: C_7  and  N_8 
REMARK    5  A    between atoms: N_11  and  C_12 
REMARK    6  A    between atoms: C_13  and  O_14 
REMARK    7  A    between atoms: C_24  and  N_25 
REMARK       I    between atoms: N_25  and  C_26 
REMARK       I    between atoms: C_26  and  N_27 
REMARK    8  A    between atoms: N_27  and  C_28 
ROOT
HETATM    1  C   UNL     1      40.942  -6.900  12.567  1.00  0.00     0.060 A 
HETATM    2  C   UNL     1      41.975  -7.523  11.834  1.00  0.00     0.046 A 
HETATM    3  C   UNL     1      43.168  -7.765  12.531  1.00  0.00     0.032 A 
HETATM    4  C   UNL     1      43.338  -7.393  13.872  1.00  0.00     0.032 A 
HETATM    5  C   UNL     1      42.315  -6.760  14.574  1.00  0.00     0.037 A 
HETATM    6  C   UNL     1      41.112  -6.515  13.913  1.00  0.00     0.049 A 
ENDROOT
BRANCH   2   7
HETATM    7  N   UNL     1      41.833  -7.874  10.486  1.00  0.00    -0.377 N 
HETATM    8  C   UNL     1      41.331  -9.250  10.243  1.00  0.00     0.143 C 
HETATM    9  C   UNL     1      40.841  -9.387   8.782  1.00  0.00     0.143 C 
HETATM   10  N   UNL     1      41.879  -8.992   7.810  1.00  0.00    -0.376 N 
HETATM   11  C   UNL     1      42.444  -7.647   8.078  1.00  0.00     0.143 C 
HETATM   12  C   UNL     1      42.920  -7.516   9.544  1.00  0.00     0.143 C 
BRANCH  10  13
HETATM   13  C   UNL     1      42.618  -9.903   7.062  1.00  0.00     0.064 A 
HETATM   14  C   UNL     1      43.642 -10.742   7.560  1.00  0.00     0.094 A 
HETATM   15  C   UNL     1      44.313 -11.645   6.711  1.00  0.00     0.039 A 
HETATM   16  C   UNL     1      43.957 -11.766   5.370  1.00  0.00     0.003 A 
HETATM   17  C   UNL     1      42.940 -10.974   4.862  1.00  0.00     0.002 A 
HETATM   18  C   UNL     1      42.288 -10.061   5.698  1.00  0.00     0.032 A 
BRANCH  14  19
HETATM   19  O   UNL     1      44.048 -10.592   8.867  1.00  0.00    -0.354 OA
HETATM   20  C   UNL     1      45.425 -10.259   9.027  1.00  0.00     0.210 C 
ENDBRANCH  14  19
ENDBRANCH  10  13
ENDBRANCH   2   7
BRANCH   1  21
HETATM   21  C   UNL     1      39.643  -6.535  11.948  1.00  0.00     0.254 C 
HETATM   22  N   UNL     1      39.564  -5.216  11.536  1.00  0.00    -0.353 N 
HETATM   23  H   UNL     1      40.286  -4.578  11.846  1.00  0.00     0.163 HD
HETATM   24  O   UNL     1      38.756  -7.361  11.785  1.00  0.00    -0.268 OA
BRANCH  22  25
HETATM   25  C   UNL     1      38.348  -4.667  10.949  1.00  0.00     0.080 C 
HETATM   26  C   UNL     1      38.696  -3.772   9.763  1.00  0.00     0.032 C 
BRANCH  25  27
HETATM   27  C   UNL     1      37.479  -3.955  12.001  1.00  0.00     0.020 C 
HETATM   28  C   UNL     1      36.028  -3.738  11.589  1.00  0.00     0.007 C 
ENDBRANCH  25  27
ENDBRANCH  22  25
ENDBRANCH   1  21
BRANCH   5  29
HETATM   29  N   UNL     1      42.454  -6.298  15.899  1.00  0.00    -0.309 N 
HETATM   30  C   UNL     1      41.996  -6.931  17.048  1.00  0.00     0.325 C 
HETATM   31  N   UNL     1      42.578  -6.374  18.174  1.00  0.00    -0.307 N 
HETATM   32  O   UNL     1      41.204  -7.864  17.055  1.00  0.00    -0.247 OA
HETATM   33  H   UNL     1      43.386  -5.788  18.018  1.00  0.00     0.170 HD
HETATM   34  H   UNL     1      42.817  -5.364  16.021  1.00  0.00     0.170 HD
BRANCH  31  35
HETATM   35  C   UNL     1      42.372  -6.755  19.524  1.00  0.00     0.053 A 
HETATM   36  C   UNL     1      41.483  -6.001  20.313  1.00  0.00     0.037 A 
HETATM   37 BR   UNL     1      40.549  -4.504  19.599  1.00  0.00    -0.049 Br
HETATM   38  C   UNL     1      41.268  -6.319  21.658  1.00  0.00     0.021 A 
HETATM   39  C   UNL     1      41.930  -7.402  22.232  1.00  0.00     0.002 A 
HETATM   40  C   UNL     1      42.797  -8.168  21.458  1.00  0.00     0.002 A 
HETATM   41  C   UNL     1      43.013  -7.850  20.112  1.00  0.00     0.031 A 
ENDBRANCH  31  35
ENDBRANCH   5  29
TORSDOF 8
ENDMDL
MODEL 9
REMARK VINA RESULT:      -7.6      2.108      3.321
REMARK  8 active torsions:
REMARK  status: ('A' for Active; 'I' for Inactive)
REMARK    1  A    between atoms: C_2  and  C_3 
REMARK    2  A    between atoms: C_3  and  N_4 
REMARK       I    between atoms: N_4  and  C_5 
REMARK    3  A    between atoms: C_5  and  C_6 
REMARK    4  A    between atoms: C_7  and  N_8 
REMARK    5  A    between atoms: N_11  and  C_12 
REMARK    6  A    between atoms: C_13  and  O_14 
REMARK    7  A    between atoms: C_24  and  N_25 
REMARK       I    between atoms: N_25  and  C_26 
REMARK       I    between atoms: C_26  and  N_27 
REMARK    8  A    between atoms: N_27  and  C_28 
ROOT
HETATM    1  C   UNL     1      42.050  -9.244   7.132  1.00  0.00     0.060 A 
HETATM    2  C   UNL     1      42.730 -10.458   6.893  1.00  0.00     0.046 A 
HETATM    3  C   UNL     1      43.543 -10.926   7.937  1.00  0.00     0.032 A 
HETATM    4  C   UNL     1      43.691 -10.224   9.140  1.00  0.00     0.032 A 
HETATM    5  C   UNL     1      43.028  -9.017   9.351  1.00  0.00     0.037 A 
HETATM    6  C   UNL     1      42.204  -8.529   8.338  1.00  0.00     0.049 A 
ENDROOT
BRANCH   2   7
HETATM    7  N   UNL     1      42.617 -11.157   5.686  1.00  0.00    -0.377 N 
HETATM    8  C   UNL     1      41.499 -12.131   5.625  1.00  0.00     0.143 C 
HETATM    9  C   UNL     1      41.226 -12.537   4.157  1.00  0.00     0.143 C 
HETATM   10  N   UNL     1      42.441 -13.039   3.486  1.00  0.00    -0.376 N 
HETATM   11  C   UNL     1      43.591 -12.110   3.596  1.00  0.00     0.143 C 
HETATM   12  C   UNL     1      43.849 -11.701   5.066  1.00  0.00     0.143 C 
BRANCH  10  13
HETATM   13  C   UNL     1      42.677 -14.386   3.230  1.00  0.00     0.064 A 
HETATM   14  C   UNL     1      42.509 -15.031   1.982  1.00  0.00     0.094 A 
HETATM   15  C   UNL     1      42.797 -16.402   1.833  1.00  0.00     0.039 A 
HETATM   16  C   UNL     1      43.294 -17.149   2.898  1.00  0.00     0.003 A 
HETATM   17  C   UNL     1      43.491 -16.537   4.126  1.00  0.00     0.002 A 
HETATM   18  C   UNL     1      43.185 -15.181   4.282  1.00  0.00     0.032 A 
BRANCH  14  19
HETATM   19  O   UNL     1      41.962 -14.323   0.935  1.00  0.00    -0.354 OA
HETATM   20  C   UNL     1      40.579 -14.581   0.703  1.00  0.00     0.210 C 
ENDBRANCH  14  19
ENDBRANCH  10  13
ENDBRANCH   2   7
BRANCH   1  21
HETATM   21  C   UNL     1      41.196  -8.600   6.102  1.00  0.00     0.254 C 
HETATM   22  N   UNL     1      39.856  -8.534   6.440  1.00  0.00    -0.353 N 
HETATM   23  H   UNL     1      39.539  -9.076   7.234  1.00  0.00     0.163 HD
HETATM   24  O   UNL     1      41.672  -8.133   5.076  1.00  0.00    -0.268 OA
BRANCH  22  25
HETATM   25  C   UNL     1      38.863  -7.977   5.530  1.00  0.00     0.080 C 
HETATM   26  C   UNL     1      38.084  -6.862   6.224  1.00  0.00     0.032 C 
BRANCH  25  27
HETATM   27  C   UNL     1      37.949  -9.069   4.946  1.00  0.00     0.020 C 
HETATM   28  C   UNL     1      38.595  -9.932   3.868  1.00  0.00     0.007 C 
ENDBRANCH  25  27
ENDBRANCH  22  25
ENDBRANCH   1  21
BRANCH   5  29
HETATM   29  N   UNL     1      43.196  -8.231  10.510  1.00  0.00    -0.309 N 
HETATM   30  C   UNL     1      42.281  -8.075  11.543  1.00  0.00     0.325 C 
HETATM   31  N   UNL     1      42.890  -7.508  12.650  1.00  0.00    -0.307 N 
HETATM   32  O   UNL     1      41.106  -8.413  11.483  1.00  0.00    -0.247 OA
HETATM   33  H   UNL     1      43.900  -7.506  12.654  1.00  0.00     0.170 HD
HETATM   34  H   UNL     1      44.008  -7.632  10.542  1.00  0.00     0.170 HD
BRANCH  31  35
HETATM   35  C   UNL     1      42.290  -7.204  13.898  1.00  0.00     0.053 A 
HETATM   36  C   UNL     1      41.925  -5.872  14.169  1.00  0.00     0.037 A 
HETATM   37 BR   UNL     1      42.206  -4.488  12.891  1.00  0.00    -0.049 Br
HETATM   38  C   UNL     1      41.356  -5.516  15.396  1.00  0.00     0.021 A 
HETATM   39  C   UNL     1      41.134  -6.489  16.367  1.00  0.00     0.002 A 
HETATM   40  C   UNL     1      41.472  -7.814  16.106  1.00  0.00     0.002 A 
HETATM   41  C   UNL     1      42.041  -8.170  14.878  1.00  0.00     0.031 A 
ENDBRANCH  31  35
ENDBRANCH   5  29
TORSDOF 8
ENDMDL
MODEL 10
REMARK VINA RESULT:      -7.5      3.010     10.625
REMARK  8 active torsions:
REMARK  status: ('A' for Active; 'I' for Inactive)
REMARK    1  A    between atoms: C_2  and  C_3 
REMARK    2  A    between atoms: C_3  and  N_4 
REMARK       I    between atoms: N_4  and  C_5 
REMARK    3  A    between atoms: C_5  and  C_6 
REMARK    4  A    between atoms: C_7  and  N_8 
REMARK    5  A    between atoms: N_11  and  C_12 
REMARK    6  A    between atoms: C_13  and  O_14 
REMARK    7  A    between atoms: C_24  and  N_25 
REMARK       I    between atoms: N_25  and  C_26 
REMARK       I    between atoms: C_26  and  N_27 
REMARK    8  A    between atoms: N_27  and  C_28 
ROOT
HETATM    1  C   UNL     1      41.087  -9.733   7.241  1.00  0.00     0.060 A 
HETATM    2  C   UNL     1      41.871  -9.401   8.366  1.00  0.00     0.046 A 
HETATM    3  C   UNL     1      43.162  -9.950   8.403  1.00  0.00     0.032 A 
HETATM    4  C   UNL     1      43.642 -10.796   7.394  1.00  0.00     0.032 A 
HETATM    5  C   UNL     1      42.846 -11.130   6.301  1.00  0.00     0.037 A 
HETATM    6  C   UNL     1      41.562 -10.591   6.228  1.00  0.00     0.049 A 
ENDROOT
BRANCH   2   7
HETATM    7  N   UNL     1      41.396  -8.582   9.397  1.00  0.00    -0.377 N 
HETATM    8  C   UNL     1      42.333  -7.517   9.838  1.00  0.00     0.143 C 
HETATM    9  C   UNL     1      41.577  -6.454  10.668  1.00  0.00     0.143 C 
HETATM   10  N   UNL     1      40.842  -7.053  11.799  1.00  0.00    -0.376 N 
HETATM   11  C   UNL     1      39.953  -8.166  11.389  1.00  0.00     0.143 C 
HETATM   12  C   UNL     1      40.715  -9.219  10.549  1.00  0.00     0.143 C 
BRANCH  10  13
HETATM   13  C   UNL     1      41.270  -6.975  13.121  1.00  0.00     0.064 A 
HETATM   14  C   UNL     1      40.431  -6.836  14.252  1.00  0.00     0.094 A 
HETATM   15  C   UNL     1      40.975  -6.787  15.551  1.00  0.00     0.039 A 
HETATM   16  C   UNL     1      42.346  -6.916  15.759  1.00  0.00     0.003 A 
HETATM   17  C   UNL     1      43.187  -7.079  14.671  1.00  0.00     0.002 A 
HETATM   18  C   UNL     1      42.652  -7.105  13.378  1.00  0.00     0.032 A 
BRANCH  14  19
HETATM   19  O   UNL     1      39.081  -6.645  14.061  1.00  0.00    -0.354 OA
HETATM   20  C   UNL     1      38.608  -5.349  14.418  1.00  0.00     0.210 C 
ENDBRANCH  14  19
ENDBRANCH  10  13
ENDBRANCH   2   7
BRANCH   1  21
HETATM   21  C   UNL     1      39.685  -9.268   7.089  1.00  0.00     0.254 C 
HETATM   22  N   UNL     1      39.556  -8.076   6.398  1.00  0.00    -0.353 N 
HETATM   23  H   UNL     1      40.393  -7.535   6.226  1.00  0.00     0.163 HD
HETATM   24  O   UNL     1      38.742  -9.928   7.506  1.00  0.00    -0.268 OA
BRANCH  22  25
HETATM   25  C   UNL     1      38.258  -7.445   6.194  1.00  0.00     0.080 C 
HETATM   26  C   UNL     1      37.943  -7.368   4.703  1.00  0.00     0.032 C 
BRANCH  25  27
HETATM   27  C   UNL     1      38.173  -6.077   6.894  1.00  0.00     0.020 C 
HETATM   28  C   UNL     1      38.843  -6.016   8.261  1.00  0.00     0.007 C 
ENDBRANCH  25  27
ENDBRANCH  22  25
ENDBRANCH   1  21
BRANCH   5  29
HETATM   29  N   UNL     1      43.248 -12.033   5.295  1.00  0.00    -0.309 N 
HETATM   30  C   UNL     1      42.898 -13.374   5.200  1.00  0.00     0.325 C 
HETATM   31  N   UNL     1      43.196 -13.866   3.941  1.00  0.00    -0.307 N 
HETATM   32  O   UNL     1      42.381 -14.020   6.102  1.00  0.00    -0.247 OA
HETATM   33  H   UNL     1      43.386 -13.179   3.225  1.00  0.00     0.170 HD
HETATM   34  H   UNL     1      43.949 -11.710   4.644  1.00  0.00     0.170 HD
BRANCH  31  35
HETATM   35  C   UNL     1      42.976 -15.181   3.459  1.00  0.00     0.053 A 
HETATM   36  C   UNL     1      42.119 -15.366   2.358  1.00  0.00     0.037 A 
HETATM   37 BR   UNL     1      41.271 -13.891   1.504  1.00  0.00    -0.049 Br
HETATM   38  C   UNL     1      41.847 -16.645   1.863  1.00  0.00     0.021 A 
HETATM   39  C   UNL     1      42.437 -17.759   2.456  1.00  0.00     0.002 A 
HETATM   40  C   UNL     1      43.303 -17.591   3.532  1.00  0.00     0.002 A 
HETATM   41  C   UNL     1      43.574 -16.310   4.027  1.00  0.00     0.031 A 
ENDBRANCH  31  35
ENDBRANCH   5  29
TORSDOF 8
ENDMDL
