MODEL 1
REMARK VINA RESULT:      -9.3      0.000      0.000
REMARK  4 active torsions:
REMARK  status: ('A' for Active; 'I' for Inactive)
REMARK    1  A    between atoms: C_4  and  C_5 
REMARK    2  A    between atoms: C_5  and  N_6 
REMARK    3  A    between atoms: C_9  and  C_10 
REMARK    4  A    between atoms: C_22  and  C_23 
ROOT
HETATM    1  N   UNL     1      44.114 -10.919   7.822  1.00  0.00    -0.314 N 
HETATM    2  N   UNL     1      43.911 -12.271   7.611  1.00  0.00    -0.203 NA
HETATM    3  C   UNL     1      42.780 -12.428   6.809  1.00  0.00     0.041 C 
HETATM    4  C   UNL     1      42.289 -13.517   6.198  1.00  0.00     0.044 C 
HETATM    5  C   UNL     1      42.176 -11.075   6.707  1.00  0.00     0.015 C 
HETATM    6  C   UNL     1      43.019 -10.230   7.338  1.00  0.00     0.119 C 
HETATM    7  H   UNL     1      44.739 -12.806   7.331  1.00  0.00     0.153 HD
ENDROOT
BRANCH   4   8
HETATM    8  C   UNL     1      42.785 -14.869   6.268  1.00  0.00     0.046 A 
HETATM    9  C   UNL     1      43.125 -15.623   7.491  1.00  0.00     0.257 A 
HETATM   10  O   UNL     1      43.180 -15.350   8.665  1.00  0.00    -0.267 OA
HETATM   11  N   UNL     1      43.566 -17.014   7.070  1.00  0.00    -0.322 N 
HETATM   12  C   UNL     1      43.523 -17.005   5.796  1.00  0.00     0.046 A 
HETATM   13  H   UNL     1      43.851 -17.740   7.716  1.00  0.00     0.169 HD
HETATM   14  C   UNL     1      43.057 -15.703   5.246  1.00  0.00     0.008 A 
HETATM   15  C   UNL     1      43.873 -18.092   4.871  1.00  0.00     0.032 A 
HETATM   16  C   UNL     1      42.962 -15.545   3.819  1.00  0.00     0.038 A 
HETATM   17  C   UNL     1      43.303 -16.570   3.019  1.00  0.00     0.035 A 
HETATM   18  C   UNL     1      43.757 -17.845   3.555  1.00  0.00     0.026 A 
HETATM   19 CL   UNL     1      43.214 -16.406   1.306  1.00  0.00    -0.084 Cl
ENDBRANCH   4   8
BRANCH   5  20
HETATM   20  C   UNL     1      40.905 -10.654   6.125  1.00  0.00    -0.005 A 
HETATM   21  C   UNL     1      39.807 -10.367   6.933  1.00  0.00     0.128 A 
HETATM   22  N   UNL     1      38.590 -10.002   6.466  1.00  0.00    -0.272 NA
HETATM   23  C   UNL     1      38.470  -9.876   5.126  1.00  0.00     0.116 A 
HETATM   24  C   UNL     1      39.503 -10.117   4.236  1.00  0.00     0.020 A 
HETATM   25  C   UNL     1      40.737 -10.517   4.746  1.00  0.00     0.015 A 
ENDBRANCH   5  20
BRANCH   1  26
HETATM   26  C   UNL     1      45.064 -10.437   8.820  1.00  0.00     0.181 C 
BRANCH  26  27
HETATM   27  C   UNL     1      44.350 -10.017  10.086  1.00  0.00    -0.039 A 
HETATM   28  C   UNL     1      44.095  -8.659  10.344  1.00  0.00     0.009 A 
HETATM   29  C   UNL     1      43.400  -8.271  11.490  1.00  0.00     0.001 A 
HETATM   30  C   UNL     1      42.945  -9.234  12.388  1.00  0.00     0.000 A 
HETATM   31  C   UNL     1      43.187 -10.584  12.142  1.00  0.00     0.001 A 
HETATM   32  C   UNL     1      43.885 -10.975  10.998  1.00  0.00     0.009 A 
ENDBRANCH  26  27
ENDBRANCH   1  26
TORSDOF 4
ENDMDL
MODEL 2
REMARK VINA RESULT:      -9.2      1.735      2.128
REMARK  4 active torsions:
REMARK  status: ('A' for Active; 'I' for Inactive)
REMARK    1  A    between atoms: C_4  and  C_5 
REMARK    2  A    between atoms: C_5  and  N_6 
REMARK    3  A    between atoms: C_9  and  C_10 
REMARK    4  A    between atoms: C_22  and  C_23 
ROOT
HETATM    1  N   UNL     1      45.008 -11.669   6.617  1.00  0.00    -0.314 N 
HETATM    2  N   UNL     1      44.565 -12.967   6.797  1.00  0.00    -0.203 NA
HETATM    3  C   UNL     1      43.610 -13.248   5.820  1.00  0.00     0.041 C 
HETATM    4  C   UNL     1      43.028 -14.408   5.478  1.00  0.00     0.044 C 
HETATM    5  C   UNL     1      43.345 -11.953   5.142  1.00  0.00     0.015 C 
HETATM    6  C   UNL     1      44.207 -11.059   5.672  1.00  0.00     0.119 C 
HETATM    7  H   UNL     1      45.297 -13.672   6.928  1.00  0.00     0.153 HD
ENDROOT
BRANCH   4   8
HETATM    8  C   UNL     1      43.197 -15.698   6.097  1.00  0.00     0.046 A 
HETATM    9  C   UNL     1      43.217 -15.987   7.545  1.00  0.00     0.257 A 
HETATM   10  O   UNL     1      43.195 -15.309   8.543  1.00  0.00    -0.267 OA
HETATM   11  N   UNL     1      43.380 -17.487   7.716  1.00  0.00    -0.322 N 
HETATM   12  C   UNL     1      43.487 -17.947   6.531  1.00  0.00     0.046 A 
HETATM   13  H   UNL     1      43.419 -17.956   8.612  1.00  0.00     0.169 HD
HETATM   14  C   UNL     1      43.391 -16.886   5.493  1.00  0.00     0.008 A 
HETATM   15  C   UNL     1      43.689 -19.342   6.118  1.00  0.00     0.032 A 
HETATM   16  C   UNL     1      43.499 -17.258   4.107  1.00  0.00     0.038 A 
HETATM   17  C   UNL     1      43.691 -18.549   3.786  1.00  0.00     0.035 A 
HETATM   18  C   UNL     1      43.784 -19.588   4.799  1.00  0.00     0.026 A 
HETATM   19 CL   UNL     1      43.838 -19.023   2.135  1.00  0.00    -0.084 Cl
ENDBRANCH   4   8
BRANCH   5  20
HETATM   20  C   UNL     1      42.336 -11.602   4.147  1.00  0.00    -0.005 A 
HETATM   21  C   UNL     1      40.999 -11.446   4.504  1.00  0.00     0.128 A 
HETATM   22  N   UNL     1      40.005 -11.153   3.634  1.00  0.00    -0.272 NA
HETATM   23  C   UNL     1      40.365 -10.966   2.346  1.00  0.00     0.116 A 
HETATM   24  C   UNL     1      41.667 -11.077   1.888  1.00  0.00     0.020 A 
HETATM   25  C   UNL     1      42.666 -11.405   2.804  1.00  0.00     0.015 A 
ENDBRANCH   5  20
BRANCH   1  26
HETATM   26  C   UNL     1      45.821 -10.993   7.623  1.00  0.00     0.181 C 
BRANCH  26  27
HETATM   27  C   UNL     1      44.970 -10.083   8.482  1.00  0.00    -0.039 A 
HETATM   28  C   UNL     1      45.095  -8.686   8.381  1.00  0.00     0.009 A 
HETATM   29  C   UNL     1      44.283  -7.843   9.140  1.00  0.00     0.001 A 
HETATM   30  C   UNL     1      43.332  -8.383  10.003  1.00  0.00     0.000 A 
HETATM   31  C   UNL     1      43.195  -9.766  10.110  1.00  0.00     0.001 A 
HETATM   32  C   UNL     1      44.009 -10.612   9.354  1.00  0.00     0.009 A 
ENDBRANCH  26  27
ENDBRANCH   1  26
TORSDOF 4
ENDMDL
MODEL 3
REMARK VINA RESULT:      -9.2      2.792      4.183
REMARK  4 active torsions:
REMARK  status: ('A' for Active; 'I' for Inactive)
REMARK    1  A    between atoms: C_4  and  C_5 
REMARK    2  A    between atoms: C_5  and  N_6 
REMARK    3  A    between atoms: C_9  and  C_10 
REMARK    4  A    between atoms: C_22  and  C_23 
ROOT
HETATM    1  N   UNL     1      42.304 -12.268   5.296  1.00  0.00    -0.314 N 
HETATM    2  N   UNL     1      42.404 -13.620   5.572  1.00  0.00    -0.203 NA
HETATM    3  C   UNL     1      42.167 -14.330   4.395  1.00  0.00     0.041 C 
HETATM    4  C   UNL     1      42.321 -15.634   4.118  1.00  0.00     0.044 C 
HETATM    5  C   UNL     1      41.710 -13.319   3.408  1.00  0.00     0.015 C 
HETATM    6  C   UNL     1      41.811 -12.117   4.016  1.00  0.00     0.119 C 
HETATM    7  H   UNL     1      43.228 -13.903   6.111  1.00  0.00     0.153 HD
ENDROOT
BRANCH   4   8
HETATM    8  C   UNL     1      42.724 -16.687   5.015  1.00  0.00     0.046 A 
HETATM    9  C   UNL     1      42.745 -16.631   6.490  1.00  0.00     0.257 A 
HETATM   10  O   UNL     1      42.548 -15.764   7.306  1.00  0.00    -0.267 OA
HETATM   11  N   UNL     1      43.202 -17.986   6.999  1.00  0.00    -0.322 N 
HETATM   12  C   UNL     1      43.447 -18.670   5.951  1.00  0.00     0.046 A 
HETATM   13  H   UNL     1      43.301 -18.222   7.979  1.00  0.00     0.169 HD
HETATM   14  C   UNL     1      43.179 -17.915   4.697  1.00  0.00     0.008 A 
HETATM   15  C   UNL     1      43.944 -20.050   5.867  1.00  0.00     0.032 A 
HETATM   16  C   UNL     1      43.414 -18.560   3.433  1.00  0.00     0.038 A 
HETATM   17  C   UNL     1      43.877 -19.822   3.415  1.00  0.00     0.035 A 
HETATM   18  C   UNL     1      44.138 -20.563   4.639  1.00  0.00     0.026 A 
HETATM   19 CL   UNL     1      44.181 -20.617   1.916  1.00  0.00    -0.084 Cl
ENDBRANCH   4   8
BRANCH   5  20
HETATM   20  C   UNL     1      41.178 -13.494   2.060  1.00  0.00    -0.005 A 
HETATM   21  C   UNL     1      41.283 -12.481   1.110  1.00  0.00     0.128 A 
HETATM   22  N   UNL     1      40.788 -12.558  -0.147  1.00  0.00    -0.272 NA
HETATM   23  C   UNL     1      40.191 -13.719  -0.491  1.00  0.00     0.116 A 
HETATM   24  C   UNL     1      40.052 -14.796   0.368  1.00  0.00     0.020 A 
HETATM   25  C   UNL     1      40.549 -14.677   1.665  1.00  0.00     0.015 A 
ENDBRANCH   5  20
BRANCH   1  26
HETATM   26  C   UNL     1      42.252 -11.273   6.363  1.00  0.00     0.181 C 
BRANCH  26  27
HETATM   27  C   UNL     1      43.637 -10.984   6.899  1.00  0.00    -0.039 A 
HETATM   28  C   UNL     1      44.775 -11.452   6.221  1.00  0.00     0.009 A 
HETATM   29  C   UNL     1      46.056 -11.152   6.687  1.00  0.00     0.001 A 
HETATM   30  C   UNL     1      46.214 -10.375   7.833  1.00  0.00     0.000 A 
HETATM   31  C   UNL     1      45.094  -9.901   8.513  1.00  0.00     0.001 A 
HETATM   32  C   UNL     1      43.812 -10.203   8.049  1.00  0.00     0.009 A 
ENDBRANCH  26  27
ENDBRANCH   1  26
TORSDOF 4
ENDMDL
MODEL 4
REMARK VINA RESULT:      -8.9      2.560      7.451
REMARK  4 active torsions:
REMARK  status: ('A' for Active; 'I' for Inactive)
REMARK    1  A    between atoms: C_4  and  C_5 
REMARK    2  A    between atoms: C_5  and  N_6 
REMARK    3  A    between atoms: C_9  and  C_10 
REMARK    4  A    between atoms: C_22  and  C_23 
ROOT
HETATM    1  N   UNL     1      42.437 -14.865   5.792  1.00  0.00    -0.314 N 
HETATM    2  N   UNL     1      41.509 -13.899   5.450  1.00  0.00    -0.203 NA
HETATM    3  C   UNL     1      42.055 -12.644   5.722  1.00  0.00     0.041 C 
HETATM    4  C   UNL     1      41.617 -11.416   5.404  1.00  0.00     0.044 C 
HETATM    5  C   UNL     1      43.319 -12.913   6.452  1.00  0.00     0.015 C 
HETATM    6  C   UNL     1      43.479 -14.254   6.462  1.00  0.00     0.119 C 
HETATM    7  H   UNL     1      41.071 -14.010   4.530  1.00  0.00     0.153 HD
ENDROOT
BRANCH   4   8
HETATM    8  C   UNL     1      40.393 -11.060   4.733  1.00  0.00     0.046 A 
HETATM    9  C   UNL     1      39.274 -10.275   5.293  1.00  0.00     0.257 A 
HETATM   10  O   UNL     1      39.021  -9.823   6.382  1.00  0.00    -0.267 OA
HETATM   11  N   UNL     1      38.226 -10.122   4.205  1.00  0.00    -0.322 N 
HETATM   12  C   UNL     1      38.683 -10.774   3.209  1.00  0.00     0.046 A 
HETATM   13  H   UNL     1      37.354  -9.620   4.322  1.00  0.00     0.169 HD
HETATM   14  C   UNL     1      40.013 -11.382   3.481  1.00  0.00     0.008 A 
HETATM   15  C   UNL     1      38.055 -10.975   1.895  1.00  0.00     0.032 A 
HETATM   16  C   UNL     1      40.650 -12.152   2.446  1.00  0.00     0.038 A 
HETATM   17  C   UNL     1      40.027 -12.310   1.265  1.00  0.00     0.035 A 
HETATM   18  C   UNL     1      38.727 -11.715   0.996  1.00  0.00     0.026 A 
HETATM   19 CL   UNL     1      40.759 -13.238   0.012  1.00  0.00    -0.084 Cl
ENDBRANCH   4   8
BRANCH   5  20
HETATM   20  C   UNL     1      44.235 -11.992   7.118  1.00  0.00    -0.005 A 
HETATM   21  C   UNL     1      43.941 -11.472   8.376  1.00  0.00     0.128 A 
HETATM   22  N   UNL     1      44.724 -10.591   9.040  1.00  0.00    -0.272 NA
HETATM   23  C   UNL     1      45.881 -10.237   8.440  1.00  0.00     0.116 A 
HETATM   24  C   UNL     1      46.279 -10.710   7.200  1.00  0.00     0.020 A 
HETATM   25  C   UNL     1      45.439 -11.597   6.529  1.00  0.00     0.015 A 
ENDBRANCH   5  20
BRANCH   1  26
HETATM   26  C   UNL     1      42.079 -16.278   5.862  1.00  0.00     0.181 C 
BRANCH  26  27
HETATM   27  C   UNL     1      42.762 -17.062   4.762  1.00  0.00    -0.039 A 
HETATM   28  C   UNL     1      43.738 -18.024   5.074  1.00  0.00     0.009 A 
HETATM   29  C   UNL     1      44.340 -18.779   4.067  1.00  0.00     0.001 A 
HETATM   30  C   UNL     1      43.969 -18.588   2.737  1.00  0.00     0.000 A 
HETATM   31  C   UNL     1      42.998 -17.641   2.414  1.00  0.00     0.001 A 
HETATM   32  C   UNL     1      42.397 -16.882   3.421  1.00  0.00     0.009 A 
ENDBRANCH  26  27
ENDBRANCH   1  26
TORSDOF 4
ENDMDL
MODEL 5
REMARK VINA RESULT:      -8.8      3.241      7.091
REMARK  4 active torsions:
REMARK  status: ('A' for Active; 'I' for Inactive)
REMARK    1  A    between atoms: C_4  and  C_5 
REMARK    2  A    between atoms: C_5  and  N_6 
REMARK    3  A    between atoms: C_9  and  C_10 
REMARK    4  A    between atoms: C_22  and  C_23 
ROOT
HETATM    1  N   UNL     1      40.863 -13.644   5.966  1.00  0.00    -0.314 N 
HETATM    2  N   UNL     1      41.974 -12.992   6.470  1.00  0.00    -0.203 NA
HETATM    3  C   UNL     1      42.177 -11.828   5.729  1.00  0.00     0.041 C 
HETATM    4  C   UNL     1      43.006 -10.794   5.940  1.00  0.00     0.044 C 
HETATM    5  C   UNL     1      41.224 -11.911   4.593  1.00  0.00     0.015 C 
HETATM    6  C   UNL     1      40.480 -13.019   4.796  1.00  0.00     0.119 C 
HETATM    7  H   UNL     1      42.005 -12.889   7.489  1.00  0.00     0.153 HD
ENDROOT
BRANCH   4   8
HETATM    8  C   UNL     1      43.983 -10.644   6.988  1.00  0.00     0.046 A 
HETATM    9  C   UNL     1      45.410 -11.018   6.926  1.00  0.00     0.257 A 
HETATM   10  O   UNL     1      46.101 -11.583   6.114  1.00  0.00    -0.267 OA
HETATM   11  N   UNL     1      46.047 -10.637   8.250  1.00  0.00    -0.322 N 
HETATM   12  C   UNL     1      45.093 -10.169   8.956  1.00  0.00     0.046 A 
HETATM   13  H   UNL     1      47.024 -10.780   8.473  1.00  0.00     0.169 HD
HETATM   14  C   UNL     1      43.794 -10.159   8.230  1.00  0.00     0.008 A 
HETATM   15  C   UNL     1      45.149  -9.673  10.338  1.00  0.00     0.032 A 
HETATM   16  C   UNL     1      42.625  -9.661   8.905  1.00  0.00     0.038 A 
HETATM   17  C   UNL     1      42.732  -9.226  10.173  1.00  0.00     0.035 A 
HETATM   18  C   UNL     1      44.002  -9.234  10.884  1.00  0.00     0.026 A 
HETATM   19 CL   UNL     1      41.347  -8.637  11.012  1.00  0.00    -0.084 Cl
ENDBRANCH   4   8
BRANCH   5  20
HETATM   20  C   UNL     1      41.087 -11.058   3.416  1.00  0.00    -0.005 A 
HETATM   21  C   UNL     1      41.982 -11.154   2.353  1.00  0.00     0.128 A 
HETATM   22  N   UNL     1      41.938 -10.378   1.245  1.00  0.00    -0.272 NA
HETATM   23  C   UNL     1      40.927  -9.486   1.172  1.00  0.00     0.116 A 
HETATM   24  C   UNL     1      39.973  -9.323   2.162  1.00  0.00     0.020 A 
HETATM   25  C   UNL     1      40.059 -10.119   3.303  1.00  0.00     0.015 A 
ENDBRANCH   5  20
BRANCH   1  26
HETATM   26  C   UNL     1      40.536 -15.011   6.360  1.00  0.00     0.181 C 
BRANCH  26  27
HETATM   27  C   UNL     1      41.692 -15.946   6.075  1.00  0.00    -0.039 A 
HETATM   28  C   UNL     1      42.012 -16.300   4.753  1.00  0.00     0.009 A 
HETATM   29  C   UNL     1      43.102 -17.127   4.483  1.00  0.00     0.001 A 
HETATM   30  C   UNL     1      43.890 -17.605   5.528  1.00  0.00     0.000 A 
HETATM   31  C   UNL     1      43.586 -17.258   6.844  1.00  0.00     0.001 A 
HETATM   32  C   UNL     1      42.493 -16.433   7.117  1.00  0.00     0.009 A 
ENDBRANCH  26  27
ENDBRANCH   1  26
TORSDOF 4
ENDMDL
MODEL 6
REMARK VINA RESULT:      -8.8      4.067      9.005
REMARK  4 active torsions:
REMARK  status: ('A' for Active; 'I' for Inactive)
REMARK    1  A    between atoms: C_4  and  C_5 
REMARK    2  A    between atoms: C_5  and  N_6 
REMARK    3  A    between atoms: C_9  and  C_10 
REMARK    4  A    between atoms: C_22  and  C_23 
ROOT
HETATM    1  N   UNL     1      40.748 -14.630   1.524  1.00  0.00    -0.314 N 
HETATM    2  N   UNL     1      40.773 -13.924   2.713  1.00  0.00    -0.203 NA
HETATM    3  C   UNL     1      41.693 -14.530   3.569  1.00  0.00     0.041 C 
HETATM    4  C   UNL     1      42.189 -14.119   4.745  1.00  0.00     0.044 C 
HETATM    5  C   UNL     1      42.090 -15.791   2.893  1.00  0.00     0.015 C 
HETATM    6  C   UNL     1      41.484 -15.787   1.686  1.00  0.00     0.119 C 
HETATM    7  H   UNL     1      40.844 -12.905   2.622  1.00  0.00     0.153 HD
ENDROOT
BRANCH   4   8
HETATM    8  C   UNL     1      41.840 -12.935   5.488  1.00  0.00     0.046 A 
HETATM    9  C   UNL     1      40.483 -12.392   5.699  1.00  0.00     0.257 A 
HETATM   10  O   UNL     1      39.385 -12.679   5.289  1.00  0.00    -0.267 OA
HETATM   11  N   UNL     1      40.608 -11.158   6.574  1.00  0.00    -0.322 N 
HETATM   12  C   UNL     1      41.860 -11.016   6.771  1.00  0.00     0.046 A 
HETATM   13  H   UNL     1      39.824 -10.594   6.877  1.00  0.00     0.169 HD
HETATM   14  C   UNL     1      42.669 -12.078   6.116  1.00  0.00     0.008 A 
HETATM   15  C   UNL     1      42.541  -9.961   7.534  1.00  0.00     0.032 A 
HETATM   16  C   UNL     1      44.101 -12.043   6.249  1.00  0.00     0.038 A 
HETATM   17  C   UNL     1      44.672 -11.050   6.953  1.00  0.00     0.035 A 
HETATM   18  C   UNL     1      43.883 -10.011   7.596  1.00  0.00     0.026 A 
HETATM   19 CL   UNL     1      46.386 -10.974   7.118  1.00  0.00    -0.084 Cl
ENDBRANCH   4   8
BRANCH   5  20
HETATM   20  C   UNL     1      42.905 -16.901   3.378  1.00  0.00    -0.005 A 
HETATM   21  C   UNL     1      43.283 -16.983   4.716  1.00  0.00     0.128 A 
HETATM   22  N   UNL     1      44.062 -17.962   5.231  1.00  0.00    -0.272 NA
HETATM   23  C   UNL     1      44.453 -18.935   4.379  1.00  0.00     0.116 A 
HETATM   24  C   UNL     1      44.116 -18.960   3.036  1.00  0.00     0.020 A 
HETATM   25  C   UNL     1      43.334 -17.924   2.529  1.00  0.00     0.015 A 
ENDBRANCH   5  20
BRANCH   1  26
HETATM   26  C   UNL     1      39.712 -14.401   0.521  1.00  0.00     0.181 C 
BRANCH  26  27
HETATM   27  C   UNL     1      40.251 -13.581  -0.632  1.00  0.00    -0.039 A 
HETATM   28  C   UNL     1      40.149 -14.054  -1.951  1.00  0.00     0.009 A 
HETATM   29  C   UNL     1      40.605 -13.283  -3.021  1.00  0.00     0.001 A 
HETATM   30  C   UNL     1      41.163 -12.028  -2.786  1.00  0.00     0.000 A 
HETATM   31  C   UNL     1      41.266 -11.545  -1.483  1.00  0.00     0.001 A 
HETATM   32  C   UNL     1      40.812 -12.316  -0.410  1.00  0.00     0.009 A 
ENDBRANCH  26  27
ENDBRANCH   1  26
TORSDOF 4
ENDMDL
MODEL 7
REMARK VINA RESULT:      -8.7      3.410      5.307
REMARK  4 active torsions:
REMARK  status: ('A' for Active; 'I' for Inactive)
REMARK    1  A    between atoms: C_4  and  C_5 
REMARK    2  A    between atoms: C_5  and  N_6 
REMARK    3  A    between atoms: C_9  and  C_10 
REMARK    4  A    between atoms: C_22  and  C_23 
ROOT
HETATM    1  N   UNL     1      39.953 -12.768   4.536  1.00  0.00    -0.314 N 
HETATM    2  N   UNL     1      40.757 -13.884   4.682  1.00  0.00    -0.203 NA
HETATM    3  C   UNL     1      41.203 -14.277   3.420  1.00  0.00     0.041 C 
HETATM    4  C   UNL     1      42.129 -15.180   3.065  1.00  0.00     0.044 C 
HETATM    5  C   UNL     1      40.446 -13.438   2.455  1.00  0.00     0.015 C 
HETATM    6  C   UNL     1      39.719 -12.570   3.190  1.00  0.00     0.119 C 
HETATM    7  H   UNL     1      41.473 -13.823   5.414  1.00  0.00     0.153 HD
ENDROOT
BRANCH   4   8
HETATM    8  C   UNL     1      42.883 -16.058   3.923  1.00  0.00     0.046 A 
HETATM    9  C   UNL     1      43.440 -15.730   5.251  1.00  0.00     0.257 A 
HETATM   10  O   UNL     1      43.512 -14.724   5.913  1.00  0.00    -0.267 OA
HETATM   11  N   UNL     1      44.118 -16.977   5.790  1.00  0.00    -0.322 N 
HETATM   12  C   UNL     1      43.995 -17.848   4.866  1.00  0.00     0.046 A 
HETATM   13  H   UNL     1      44.579 -17.030   6.690  1.00  0.00     0.169 HD
HETATM   14  C   UNL     1      43.250 -17.332   3.686  1.00  0.00     0.008 A 
HETATM   15  C   UNL     1      44.495 -19.230   4.853  1.00  0.00     0.032 A 
HETATM   16  C   UNL     1      43.038 -18.204   2.562  1.00  0.00     0.038 A 
HETATM   17  C   UNL     1      43.524 -19.458   2.601  1.00  0.00     0.035 A 
HETATM   18  C   UNL     1      44.252 -19.965   3.754  1.00  0.00     0.026 A 
HETATM   19 CL   UNL     1      43.298 -20.521   1.264  1.00  0.00    -0.084 Cl
ENDBRANCH   4   8
BRANCH   5  20
HETATM   20  C   UNL     1      40.382 -13.507   0.998  1.00  0.00    -0.005 A 
HETATM   21  C   UNL     1      40.886 -12.476   0.209  1.00  0.00     0.128 A 
HETATM   22  N   UNL     1      40.834 -12.454  -1.143  1.00  0.00    -0.272 NA
HETATM   23  C   UNL     1      40.288 -13.533  -1.745  1.00  0.00     0.116 A 
HETATM   24  C   UNL     1      39.777 -14.620  -1.056  1.00  0.00     0.020 A 
HETATM   25  C   UNL     1      39.821 -14.602   0.338  1.00  0.00     0.015 A 
ENDBRANCH   5  20
BRANCH   1  26
HETATM   26  C   UNL     1      39.135 -12.267   5.637  1.00  0.00     0.181 C 
BRANCH  26  27
HETATM   27  C   UNL     1      39.393 -10.795   5.873  1.00  0.00    -0.039 A 
HETATM   28  C   UNL     1      40.613 -10.365   6.422  1.00  0.00     0.009 A 
HETATM   29  C   UNL     1      40.872  -9.006   6.603  1.00  0.00     0.001 A 
HETATM   30  C   UNL     1      39.918  -8.060   6.231  1.00  0.00     0.000 A 
HETATM   31  C   UNL     1      38.705  -8.473   5.683  1.00  0.00     0.001 A 
HETATM   32  C   UNL     1      38.443  -9.833   5.503  1.00  0.00     0.009 A 
ENDBRANCH  26  27
ENDBRANCH   1  26
TORSDOF 4
ENDMDL
MODEL 8
REMARK VINA RESULT:      -8.7      4.240      6.950
REMARK  4 active torsions:
REMARK  status: ('A' for Active; 'I' for Inactive)
REMARK    1  A    between atoms: C_4  and  C_5 
REMARK    2  A    between atoms: C_5  and  N_6 
REMARK    3  A    between atoms: C_9  and  C_10 
REMARK    4  A    between atoms: C_22  and  C_23 
ROOT
HETATM    1  N   UNL     1      41.805 -12.739   5.123  1.00  0.00    -0.314 N 
HETATM    2  N   UNL     1      41.683 -12.394   3.789  1.00  0.00    -0.203 NA
HETATM    3  C   UNL     1      41.885 -13.538   3.017  1.00  0.00     0.041 C 
HETATM    4  C   UNL     1      41.700 -13.747   1.704  1.00  0.00     0.044 C 
HETATM    5  C   UNL     1      42.343 -14.582   3.968  1.00  0.00     0.015 C 
HETATM    6  C   UNL     1      42.277 -14.034   5.201  1.00  0.00     0.119 C 
HETATM    7  H   UNL     1      40.864 -11.827   3.550  1.00  0.00     0.153 HD
ENDROOT
BRANCH   4   8
HETATM    8  C   UNL     1      41.294 -12.791   0.705  1.00  0.00     0.046 A 
HETATM    9  C   UNL     1      41.575 -11.341   0.704  1.00  0.00     0.257 A 
HETATM   10  O   UNL     1      42.086 -10.579   1.486  1.00  0.00    -0.267 OA
HETATM   11  N   UNL     1      40.983 -10.756  -0.566  1.00  0.00    -0.322 N 
HETATM   12  C   UNL     1      40.415 -11.737  -1.151  1.00  0.00     0.046 A 
HETATM   13  H   UNL     1      41.038  -9.778  -0.821  1.00  0.00     0.169 HD
HETATM   14  C   UNL     1      40.566 -13.016  -0.405  1.00  0.00     0.008 A 
HETATM   15  C   UNL     1      39.663 -11.725  -2.413  1.00  0.00     0.032 A 
HETATM   16  C   UNL     1      39.971 -14.209  -0.945  1.00  0.00     0.038 A 
HETATM   17  C   UNL     1      39.287 -14.139  -2.101  1.00  0.00     0.035 A 
HETATM   18  C   UNL     1      39.139 -12.890  -2.832  1.00  0.00     0.026 A 
HETATM   19 CL   UNL     1      38.551 -15.549  -2.764  1.00  0.00    -0.084 Cl
ENDBRANCH   4   8
BRANCH   5  20
HETATM   20  C   UNL     1      42.847 -15.929   3.716  1.00  0.00    -0.005 A 
HETATM   21  C   UNL     1      43.675 -16.569   4.635  1.00  0.00     0.128 A 
HETATM   22  N   UNL     1      44.204 -17.802   4.456  1.00  0.00    -0.272 NA
HETATM   23  C   UNL     1      43.861 -18.449   3.322  1.00  0.00     0.116 A 
HETATM   24  C   UNL     1      43.029 -17.912   2.353  1.00  0.00     0.020 A 
HETATM   25  C   UNL     1      42.520 -16.630   2.553  1.00  0.00     0.015 A 
ENDBRANCH   5  20
BRANCH   1  26
HETATM   26  C   UNL     1      41.896 -11.724   6.169  1.00  0.00     0.181 C 
BRANCH  26  27
HETATM   27  C   UNL     1      43.340 -11.431   6.512  1.00  0.00    -0.039 A 
HETATM   28  C   UNL     1      43.702 -11.069   7.820  1.00  0.00     0.009 A 
HETATM   29  C   UNL     1      45.038 -10.839   8.151  1.00  0.00     0.001 A 
HETATM   30  C   UNL     1      46.029 -10.974   7.180  1.00  0.00     0.000 A 
HETATM   31  C   UNL     1      45.684 -11.337   5.879  1.00  0.00     0.001 A 
HETATM   32  C   UNL     1      44.347 -11.565   5.546  1.00  0.00     0.009 A 
ENDBRANCH  26  27
ENDBRANCH   1  26
TORSDOF 4
ENDMDL
MODEL 9
REMARK VINA RESULT:      -8.3      3.456      8.392
REMARK  4 active torsions:
REMARK  status: ('A' for Active; 'I' for Inactive)
REMARK    1  A    between atoms: C_4  and  C_5 
REMARK    2  A    between atoms: C_5  and  N_6 
REMARK    3  A    between atoms: C_9  and  C_10 
REMARK    4  A    between atoms: C_22  and  C_23 
ROOT
HETATM    1  N   UNL     1      41.962 -14.475   5.500  1.00  0.00    -0.314 N 
HETATM    2  N   UNL     1      41.111 -13.400   5.319  1.00  0.00    -0.203 NA
HETATM    3  C   UNL     1      41.793 -12.232   5.664  1.00  0.00     0.041 C 
HETATM    4  C   UNL     1      41.456 -10.945   5.494  1.00  0.00     0.044 C 
HETATM    5  C   UNL     1      43.071 -12.686   6.269  1.00  0.00     0.015 C 
HETATM    6  C   UNL     1      43.100 -14.030   6.143  1.00  0.00     0.119 C 
HETATM    7  H   UNL     1      40.605 -13.380   4.428  1.00  0.00     0.153 HD
ENDROOT
BRANCH   4   8
HETATM    8  C   UNL     1      40.231 -10.415   4.952  1.00  0.00     0.046 A 
HETATM    9  C   UNL     1      39.452 -10.966   3.826  1.00  0.00     0.257 A 
HETATM   10  O   UNL     1      39.622 -11.867   3.041  1.00  0.00    -0.267 OA
HETATM   11  N   UNL     1      38.222 -10.095   3.642  1.00  0.00    -0.322 N 
HETATM   12  C   UNL     1      38.339  -9.169   4.511  1.00  0.00     0.046 A 
HETATM   13  H   UNL     1      37.512 -10.255   2.938  1.00  0.00     0.169 HD
HETATM   14  C   UNL     1      39.566  -9.310   5.341  1.00  0.00     0.008 A 
HETATM   15  C   UNL     1      37.433  -8.037   4.753  1.00  0.00     0.032 A 
HETATM   16  C   UNL     1      39.831  -8.331   6.361  1.00  0.00     0.038 A 
HETATM   17  C   UNL     1      38.972  -7.312   6.534  1.00  0.00     0.035 A 
HETATM   18  C   UNL     1      37.771  -7.172   5.725  1.00  0.00     0.026 A 
HETATM   19 CL   UNL     1      39.270  -6.116   7.739  1.00  0.00    -0.084 Cl
ENDBRANCH   4   8
BRANCH   5  20
HETATM   20  C   UNL     1      44.114 -11.921   6.946  1.00  0.00    -0.005 A 
HETATM   21  C   UNL     1      43.940 -11.471   8.253  1.00  0.00     0.128 A 
HETATM   22  N   UNL     1      44.846 -10.732   8.934  1.00  0.00    -0.272 NA
HETATM   23  C   UNL     1      46.005 -10.459   8.296  1.00  0.00     0.116 A 
HETATM   24  C   UNL     1      46.288 -10.874   7.005  1.00  0.00     0.020 A 
HETATM   25  C   UNL     1      45.324 -11.612   6.320  1.00  0.00     0.015 A 
ENDBRANCH   5  20
BRANCH   1  26
HETATM   26  C   UNL     1      41.474 -15.850   5.465  1.00  0.00     0.181 C 
BRANCH  26  27
HETATM   27  C   UNL     1      42.319 -16.699   4.541  1.00  0.00    -0.039 A 
HETATM   28  C   UNL     1      43.327 -17.530   5.060  1.00  0.00     0.009 A 
HETATM   29  C   UNL     1      44.081 -18.346   4.216  1.00  0.00     0.001 A 
HETATM   30  C   UNL     1      43.832 -18.348   2.845  1.00  0.00     0.000 A 
HETATM   31  C   UNL     1      42.833 -17.533   2.317  1.00  0.00     0.001 A 
HETATM   32  C   UNL     1      42.079 -16.713   3.160  1.00  0.00     0.009 A 
ENDBRANCH  26  27
ENDBRANCH   1  26
TORSDOF 4
ENDMDL
MODEL 10
REMARK VINA RESULT:      -8.3      4.301      7.317
REMARK  4 active torsions:
REMARK  status: ('A' for Active; 'I' for Inactive)
REMARK    1  A    between atoms: C_4  and  C_5 
REMARK    2  A    between atoms: C_5  and  N_6 
REMARK    3  A    between atoms: C_9  and  C_10 
REMARK    4  A    between atoms: C_22  and  C_23 
ROOT
HETATM    1  N   UNL     1      40.263 -13.735   4.968  1.00  0.00    -0.314 N 
HETATM    2  N   UNL     1      40.500 -13.161   3.732  1.00  0.00    -0.203 NA
HETATM    3  C   UNL     1      41.171 -14.088   2.935  1.00  0.00     0.041 C 
HETATM    4  C   UNL     1      41.459 -14.063   1.625  1.00  0.00     0.044 C 
HETATM    5  C   UNL     1      41.516 -15.213   3.841  1.00  0.00     0.015 C 
HETATM    6  C   UNL     1      40.949 -14.932   5.034  1.00  0.00     0.119 C 
HETATM    7  H   UNL     1      39.697 -12.692   3.300  1.00  0.00     0.153 HD
ENDROOT
BRANCH   4   8
HETATM    8  C   UNL     1      41.197 -13.006   0.681  1.00  0.00     0.046 A 
HETATM    9  C   UNL     1      41.604 -11.591   0.803  1.00  0.00     0.257 A 
HETATM   10  O   UNL     1      42.135 -10.936   1.667  1.00  0.00    -0.267 OA
HETATM   11  N   UNL     1      41.141 -10.866  -0.447  1.00  0.00    -0.322 N 
HETATM   12  C   UNL     1      40.523 -11.746  -1.132  1.00  0.00     0.046 A 
HETATM   13  H   UNL     1      41.296  -9.881  -0.624  1.00  0.00     0.169 HD
HETATM   14  C   UNL     1      40.517 -13.083  -0.479  1.00  0.00     0.008 A 
HETATM   15  C   UNL     1      39.850 -11.576  -2.427  1.00  0.00     0.032 A 
HETATM   16  C   UNL     1      39.852 -14.176  -1.137  1.00  0.00     0.038 A 
HETATM   17  C   UNL     1      39.245 -13.962  -2.318  1.00  0.00     0.035 A 
HETATM   18  C   UNL     1      39.250 -12.656  -2.959  1.00  0.00     0.026 A 
HETATM   19 CL   UNL     1      38.428 -15.247  -3.123  1.00  0.00    -0.084 Cl
ENDBRANCH   4   8
BRANCH   5  20
HETATM   20  C   UNL     1      42.346 -16.390   3.604  1.00  0.00    -0.005 A 
HETATM   21  C   UNL     1      43.364 -16.739   4.488  1.00  0.00     0.128 A 
HETATM   22  N   UNL     1      44.193 -17.796   4.319  1.00  0.00    -0.272 NA
HETATM   23  C   UNL     1      43.972 -18.570   3.235  1.00  0.00     0.116 A 
HETATM   24  C   UNL     1      42.975 -18.325   2.306  1.00  0.00     0.020 A 
HETATM   25  C   UNL     1      42.153 -17.215   2.493  1.00  0.00     0.015 A 
ENDBRANCH   5  20
BRANCH   1  26
HETATM   26  C   UNL     1      39.803 -12.942   6.104  1.00  0.00     0.181 C 
BRANCH  26  27
HETATM   27  C   UNL     1      40.458 -11.578   6.109  1.00  0.00    -0.039 A 
HETATM   28  C   UNL     1      41.854 -11.459   6.219  1.00  0.00     0.009 A 
HETATM   29  C   UNL     1      42.466 -10.205   6.183  1.00  0.00     0.001 A 
HETATM   30  C   UNL     1      41.692  -9.057   6.029  1.00  0.00     0.000 A 
HETATM   31  C   UNL     1      40.307  -9.161   5.915  1.00  0.00     0.001 A 
HETATM   32  C   UNL     1      39.692 -10.414   5.954  1.00  0.00     0.009 A 
ENDBRANCH  26  27
ENDBRANCH   1  26
TORSDOF 4
ENDMDL
