MODEL 1
REMARK VINA RESULT:      -8.7      0.000      0.000
REMARK  2 active torsions:
REMARK  status: ('A' for Active; 'I' for Inactive)
REMARK    1  A    between atoms: C_2  and  N_3 
REMARK    2  A    between atoms: N_3  and  C_4 
ROOT
HETATM    1  C   UNL     1      41.188 -14.913   4.459  1.00  0.00     0.143 A 
HETATM    2  N   UNL     1      41.006 -13.908   5.350  1.00  0.00    -0.223 NA
HETATM    3  C   UNL     1      41.820 -13.794   6.404  1.00  0.00     0.236 A 
HETATM    4  N   UNL     1      42.841 -14.584   6.721  1.00  0.00    -0.234 NA
HETATM    5  C   UNL     1      43.020 -15.570   5.829  1.00  0.00     0.114 A 
HETATM    6  C   UNL     1      42.277 -15.802   4.676  1.00  0.00     0.053 A 
HETATM    7  S   UNL     1      44.262 -16.707   6.074  1.00  0.00    -0.073 SA
HETATM    8  C   UNL     1      43.854 -17.545   4.657  1.00  0.00    -0.008 A 
HETATM    9  C   UNL     1      42.812 -16.953   3.962  1.00  0.00    -0.028 A 
HETATM   10  C   UNL     1      42.328 -17.535   2.662  1.00  0.00     0.041 C 
HETATM   11  C   UNL     1      43.291 -18.584   2.084  1.00  0.00     0.005 C 
HETATM   12  C   UNL     1      43.815 -19.536   3.164  1.00  0.00     0.005 C 
HETATM   13  C   UNL     1      44.601 -18.773   4.237  1.00  0.00     0.047 C 
ENDROOT
BRANCH   1  14
HETATM   14  N   UNL     1      40.324 -15.037   3.359  1.00  0.00    -0.340 N 
HETATM   15  H   UNL     1      39.425 -15.425   3.592  1.00  0.00     0.167 HD
BRANCH  14  16
HETATM   16  C   UNL     1      40.366 -14.496   2.060  1.00  0.00     0.036 A 
HETATM   17  C   UNL     1      40.968 -13.237   1.885  1.00  0.00     0.032 A 
HETATM   18  C   UNL     1      41.046 -12.634   0.627  1.00  0.00     0.042 A 
HETATM   19  C   UNL     1      40.513 -13.280  -0.482  1.00  0.00     0.102 A 
HETATM   20  C   UNL     1      39.864 -14.506  -0.321  1.00  0.00     0.104 A 
HETATM   21  O   UNL     1      40.657 -12.655  -1.693  1.00  0.00    -0.346 OA
HETATM   22  C   UNL     1      39.795 -15.107   0.938  1.00  0.00     0.069 A 
HETATM   23  O   UNL     1      39.284 -15.188  -1.362  1.00  0.00    -0.346 OA
HETATM   24  C   UNL     1      39.127 -14.352  -2.514  1.00  0.00     0.202 C 
HETATM   25  C   UNL     1      40.396 -13.557  -2.775  1.00  0.00     0.202 C 
ENDBRANCH  14  16
ENDBRANCH   1  14
TORSDOF 2
ENDMDL
MODEL 2
REMARK VINA RESULT:      -8.6      0.846      1.661
REMARK  2 active torsions:
REMARK  status: ('A' for Active; 'I' for Inactive)
REMARK    1  A    between atoms: C_2  and  N_3 
REMARK    2  A    between atoms: N_3  and  C_4 
ROOT
HETATM    1  C   UNL     1      41.071 -15.002   4.448  1.00  0.00     0.143 A 
HETATM    2  N   UNL     1      40.849 -14.003   5.337  1.00  0.00    -0.223 NA
HETATM    3  C   UNL     1      41.650 -13.864   6.399  1.00  0.00     0.236 A 
HETATM    4  N   UNL     1      42.691 -14.622   6.725  1.00  0.00    -0.234 NA
HETATM    5  C   UNL     1      42.910 -15.601   5.835  1.00  0.00     0.114 A 
HETATM    6  C   UNL     1      42.186 -15.856   4.674  1.00  0.00     0.053 A 
HETATM    7  S   UNL     1      44.184 -16.700   6.091  1.00  0.00    -0.073 SA
HETATM    8  C   UNL     1      43.816 -17.549   4.670  1.00  0.00    -0.008 A 
HETATM    9  C   UNL     1      42.763 -16.990   3.966  1.00  0.00    -0.028 A 
HETATM   10  C   UNL     1      42.310 -17.586   2.661  1.00  0.00     0.041 C 
HETATM   11  C   UNL     1      43.311 -18.604   2.092  1.00  0.00     0.005 C 
HETATM   12  C   UNL     1      43.854 -19.540   3.177  1.00  0.00     0.005 C 
HETATM   13  C   UNL     1      44.605 -18.753   4.257  1.00  0.00     0.047 C 
ENDROOT
BRANCH   1  14
HETATM   14  N   UNL     1      40.221 -15.152   3.340  1.00  0.00    -0.340 N 
HETATM   15  H   UNL     1      39.358 -15.623   3.553  1.00  0.00     0.167 HD
BRANCH  14  16
HETATM   16  C   UNL     1      40.220 -14.557   2.064  1.00  0.00     0.036 A 
HETATM   17  C   UNL     1      39.899 -15.364   0.957  1.00  0.00     0.032 A 
HETATM   18  C   UNL     1      39.880 -14.847  -0.342  1.00  0.00     0.042 A 
HETATM   19  C   UNL     1      40.189 -13.509  -0.555  1.00  0.00     0.102 A 
HETATM   20  C   UNL     1      40.562 -12.705   0.523  1.00  0.00     0.104 A 
HETATM   21  O   UNL     1      40.113 -13.054  -1.846  1.00  0.00    -0.346 OA
HETATM   22  C   UNL     1      40.573 -13.226   1.820  1.00  0.00     0.069 A 
HETATM   23  O   UNL     1      40.913 -11.384   0.387  1.00  0.00    -0.346 OA
HETATM   24  C   UNL     1      41.179 -11.052  -0.980  1.00  0.00     0.202 C 
HETATM   25  C   UNL     1      40.102 -11.622  -1.889  1.00  0.00     0.202 C 
ENDBRANCH  14  16
ENDBRANCH   1  14
TORSDOF 2
ENDMDL
MODEL 3
REMARK VINA RESULT:      -8.0      3.568      6.893
REMARK  2 active torsions:
REMARK  status: ('A' for Active; 'I' for Inactive)
REMARK    1  A    between atoms: C_2  and  N_3 
REMARK    2  A    between atoms: N_3  and  C_4 
ROOT
HETATM    1  C   UNL     1      39.383 -13.247   2.436  1.00  0.00     0.143 A 
HETATM    2  N   UNL     1      39.218 -12.493   3.549  1.00  0.00    -0.223 NA
HETATM    3  C   UNL     1      39.114 -11.163   3.446  1.00  0.00     0.236 A 
HETATM    4  N   UNL     1      39.162 -10.437   2.335  1.00  0.00    -0.234 NA
HETATM    5  C   UNL     1      39.316 -11.192   1.236  1.00  0.00     0.114 A 
HETATM    6  C   UNL     1      39.411 -12.579   1.180  1.00  0.00     0.053 A 
HETATM    7  S   UNL     1      39.429 -10.445  -0.288  1.00  0.00    -0.073 SA
HETATM    8  C   UNL     1      39.609 -11.937  -1.072  1.00  0.00    -0.008 A 
HETATM    9  C   UNL     1      39.540 -13.014  -0.204  1.00  0.00    -0.028 A 
HETATM   10  C   UNL     1      39.646 -14.423  -0.719  1.00  0.00     0.041 C 
HETATM   11  C   UNL     1      39.506 -14.511  -2.248  1.00  0.00     0.005 C 
HETATM   12  C   UNL     1      40.298 -13.408  -2.958  1.00  0.00     0.005 C 
HETATM   13  C   UNL     1      39.789 -12.019  -2.557  1.00  0.00     0.047 C 
ENDROOT
BRANCH   1  14
HETATM   14  N   UNL     1      39.503 -14.642   2.548  1.00  0.00    -0.340 N 
HETATM   15  H   UNL     1      38.776 -15.151   2.074  1.00  0.00     0.167 HD
BRANCH  14  16
HETATM   16  C   UNL     1      40.565 -15.467   2.967  1.00  0.00     0.036 A 
HETATM   17  C   UNL     1      41.284 -16.171   1.985  1.00  0.00     0.032 A 
HETATM   18  C   UNL     1      42.349 -17.011   2.322  1.00  0.00     0.042 A 
HETATM   19  C   UNL     1      42.709 -17.167   3.655  1.00  0.00     0.102 A 
HETATM   20  C   UNL     1      41.974 -16.518   4.650  1.00  0.00     0.104 A 
HETATM   21  O   UNL     1      43.786 -17.973   3.917  1.00  0.00    -0.346 OA
HETATM   22  C   UNL     1      40.914 -15.675   4.306  1.00  0.00     0.069 A 
HETATM   23  O   UNL     1      42.247 -16.650   5.989  1.00  0.00    -0.346 OA
HETATM   24  C   UNL     1      43.114 -17.761   6.240  1.00  0.00     0.202 C 
HETATM   25  C   UNL     1      44.268 -17.774   5.251  1.00  0.00     0.202 C 
ENDBRANCH  14  16
ENDBRANCH   1  14
TORSDOF 2
ENDMDL
MODEL 4
REMARK VINA RESULT:      -8.0      4.582      7.102
REMARK  2 active torsions:
REMARK  status: ('A' for Active; 'I' for Inactive)
REMARK    1  A    between atoms: C_2  and  N_3 
REMARK    2  A    between atoms: N_3  and  C_4 
ROOT
HETATM    1  C   UNL     1      42.822 -13.369   4.345  1.00  0.00     0.143 A 
HETATM    2  N   UNL     1      42.405 -12.303   3.619  1.00  0.00    -0.223 NA
HETATM    3  C   UNL     1      42.129 -12.448   2.318  1.00  0.00     0.236 A 
HETATM    4  N   UNL     1      42.222 -13.558   1.595  1.00  0.00    -0.234 NA
HETATM    5  C   UNL     1      42.626 -14.610   2.323  1.00  0.00     0.114 A 
HETATM    6  C   UNL     1      42.922 -14.624   3.683  1.00  0.00     0.053 A 
HETATM    7  S   UNL     1      42.834 -16.122   1.571  1.00  0.00    -0.073 SA
HETATM    8  C   UNL     1      43.326 -16.844   3.024  1.00  0.00    -0.008 A 
HETATM    9  C   UNL     1      43.294 -15.969   4.098  1.00  0.00    -0.028 A 
HETATM   10  C   UNL     1      43.665 -16.436   5.479  1.00  0.00     0.041 C 
HETATM   11  C   UNL     1      43.744 -17.967   5.590  1.00  0.00     0.005 C 
HETATM   12  C   UNL     1      44.460 -18.591   4.387  1.00  0.00     0.005 C 
HETATM   13  C   UNL     1      43.712 -18.290   3.083  1.00  0.00     0.047 C 
ENDROOT
BRANCH   1  14
HETATM   14  N   UNL     1      43.121 -13.211   5.707  1.00  0.00    -0.340 N 
HETATM   15  H   UNL     1      43.139 -14.076   6.221  1.00  0.00     0.167 HD
BRANCH  14  16
HETATM   16  C   UNL     1      43.649 -12.130   6.439  1.00  0.00     0.036 A 
HETATM   17  C   UNL     1      45.043 -12.070   6.620  1.00  0.00     0.032 A 
HETATM   18  C   UNL     1      45.641 -11.029   7.337  1.00  0.00     0.042 A 
HETATM   19  C   UNL     1      44.850 -10.031   7.892  1.00  0.00     0.102 A 
HETATM   20  C   UNL     1      43.461 -10.101   7.768  1.00  0.00     0.104 A 
HETATM   21  O   UNL     1      45.500  -9.018   8.548  1.00  0.00    -0.346 OA
HETATM   22  C   UNL     1      42.869 -11.140   7.046  1.00  0.00     0.069 A 
HETATM   23  O   UNL     1      42.613  -9.171   8.318  1.00  0.00    -0.346 OA
HETATM   24  C   UNL     1      43.283  -8.358   9.286  1.00  0.00     0.202 C 
HETATM   25  C   UNL     1      44.632  -7.898   8.757  1.00  0.00     0.202 C 
ENDBRANCH  14  16
ENDBRANCH   1  14
TORSDOF 2
ENDMDL
MODEL 5
REMARK VINA RESULT:      -7.9      4.090      6.942
REMARK  2 active torsions:
REMARK  status: ('A' for Active; 'I' for Inactive)
REMARK    1  A    between atoms: C_2  and  N_3 
REMARK    2  A    between atoms: N_3  and  C_4 
ROOT
HETATM    1  C   UNL     1      42.017 -13.511   4.294  1.00  0.00     0.143 A 
HETATM    2  N   UNL     1      40.839 -13.760   3.670  1.00  0.00    -0.223 NA
HETATM    3  C   UNL     1      39.771 -13.000   3.934  1.00  0.00     0.236 A 
HETATM    4  N   UNL     1      39.699 -11.979   4.781  1.00  0.00    -0.234 NA
HETATM    5  C   UNL     1      40.871 -11.734   5.386  1.00  0.00     0.114 A 
HETATM    6  C   UNL     1      42.070 -12.413   5.197  1.00  0.00     0.053 A 
HETATM    7  S   UNL     1      40.978 -10.480   6.532  1.00  0.00    -0.073 SA
HETATM    8  C   UNL     1      42.619 -10.799   6.815  1.00  0.00    -0.008 A 
HETATM    9  C   UNL     1      43.115 -11.819   6.020  1.00  0.00    -0.028 A 
HETATM   10  C   UNL     1      44.561 -12.225   6.105  1.00  0.00     0.041 C 
HETATM   11  C   UNL     1      45.420 -11.210   6.877  1.00  0.00     0.005 C 
HETATM   12  C   UNL     1      44.720 -10.719   8.148  1.00  0.00     0.005 C 
HETATM   13  C   UNL     1      43.405 -10.005   7.812  1.00  0.00     0.047 C 
ENDROOT
BRANCH   1  14
HETATM   14  N   UNL     1      43.134 -14.317   4.023  1.00  0.00    -0.340 N 
HETATM   15  H   UNL     1      44.009 -13.820   4.049  1.00  0.00     0.167 HD
BRANCH  14  16
HETATM   16  C   UNL     1      43.301 -15.714   3.979  1.00  0.00     0.036 A 
HETATM   17  C   UNL     1      43.266 -16.347   2.723  1.00  0.00     0.032 A 
HETATM   18  C   UNL     1      43.421 -17.730   2.598  1.00  0.00     0.042 A 
HETATM   19  C   UNL     1      43.608 -18.508   3.733  1.00  0.00     0.102 A 
HETATM   20  C   UNL     1      43.593 -17.907   4.994  1.00  0.00     0.104 A 
HETATM   21  O   UNL     1      43.794 -19.852   3.541  1.00  0.00    -0.346 OA
HETATM   22  C   UNL     1      43.444 -16.523   5.112  1.00  0.00     0.069 A 
HETATM   23  O   UNL     1      43.737 -18.613   6.162  1.00  0.00    -0.346 OA
HETATM   24  C   UNL     1      43.557 -20.017   5.951  1.00  0.00     0.202 C 
HETATM   25  C   UNL     1      44.319 -20.476   4.718  1.00  0.00     0.202 C 
ENDBRANCH  14  16
ENDBRANCH   1  14
TORSDOF 2
ENDMDL
MODEL 6
REMARK VINA RESULT:      -7.9      3.439      6.708
REMARK  2 active torsions:
REMARK  status: ('A' for Active; 'I' for Inactive)
REMARK    1  A    between atoms: C_2  and  N_3 
REMARK    2  A    between atoms: N_3  and  C_4 
ROOT
HETATM    1  C   UNL     1      42.423 -13.746   3.371  1.00  0.00     0.143 A 
HETATM    2  N   UNL     1      42.783 -13.301   4.600  1.00  0.00    -0.223 NA
HETATM    3  C   UNL     1      42.093 -12.314   5.181  1.00  0.00     0.236 A 
HETATM    4  N   UNL     1      41.045 -11.665   4.685  1.00  0.00    -0.234 NA
HETATM    5  C   UNL     1      40.689 -12.118   3.473  1.00  0.00     0.114 A 
HETATM    6  C   UNL     1      41.288 -13.149   2.756  1.00  0.00     0.053 A 
HETATM    7  S   UNL     1      39.384 -11.394   2.656  1.00  0.00    -0.073 SA
HETATM    8  C   UNL     1      39.571 -12.425   1.323  1.00  0.00    -0.008 A 
HETATM    9  C   UNL     1      40.585 -13.353   1.497  1.00  0.00    -0.028 A 
HETATM   10  C   UNL     1      40.880 -14.376   0.433  1.00  0.00     0.041 C 
HETATM   11  C   UNL     1      39.775 -14.465  -0.631  1.00  0.00     0.005 C 
HETATM   12  C   UNL     1      39.283 -13.080  -1.062  1.00  0.00     0.005 C 
HETATM   13  C   UNL     1      38.680 -12.315   0.124  1.00  0.00     0.047 C 
ENDROOT
BRANCH   1  14
HETATM   14  N   UNL     1      43.157 -14.775   2.759  1.00  0.00    -0.340 N 
HETATM   15  H   UNL     1      43.838 -14.447   2.094  1.00  0.00     0.167 HD
BRANCH  14  16
HETATM   16  C   UNL     1      43.310 -16.139   3.070  1.00  0.00     0.036 A 
HETATM   17  C   UNL     1      43.199 -17.074   2.025  1.00  0.00     0.032 A 
HETATM   18  C   UNL     1      43.336 -18.446   2.256  1.00  0.00     0.042 A 
HETATM   19  C   UNL     1      43.581 -18.907   3.543  1.00  0.00     0.102 A 
HETATM   20  C   UNL     1      43.642 -18.000   4.603  1.00  0.00     0.104 A 
HETATM   21  O   UNL     1      43.745 -20.259   3.697  1.00  0.00    -0.346 OA
HETATM   22  C   UNL     1      43.510 -16.630   4.365  1.00  0.00     0.069 A 
HETATM   23  O   UNL     1      43.846 -18.383   5.906  1.00  0.00    -0.346 OA
HETATM   24  C   UNL     1      43.643 -19.789   6.077  1.00  0.00     0.202 C 
HETATM   25  C   UNL     1      44.331 -20.568   4.967  1.00  0.00     0.202 C 
ENDBRANCH  14  16
ENDBRANCH   1  14
TORSDOF 2
ENDMDL
MODEL 7
REMARK VINA RESULT:      -7.8      5.139      8.042
REMARK  2 active torsions:
REMARK  status: ('A' for Active; 'I' for Inactive)
REMARK    1  A    between atoms: C_2  and  N_3 
REMARK    2  A    between atoms: N_3  and  C_4 
ROOT
HETATM    1  C   UNL     1      43.628 -11.860   4.507  1.00  0.00     0.143 A 
HETATM    2  N   UNL     1      43.420 -11.032   3.454  1.00  0.00    -0.223 NA
HETATM    3  C   UNL     1      42.500 -11.341   2.534  1.00  0.00     0.236 A 
HETATM    4  N   UNL     1      41.721 -12.416   2.504  1.00  0.00    -0.234 NA
HETATM    5  C   UNL     1      41.926 -13.225   3.554  1.00  0.00     0.114 A 
HETATM    6  C   UNL     1      42.822 -13.029   4.601  1.00  0.00     0.053 A 
HETATM    7  S   UNL     1      41.044 -14.674   3.683  1.00  0.00    -0.073 SA
HETATM    8  C   UNL     1      41.821 -15.089   5.132  1.00  0.00    -0.008 A 
HETATM    9  C   UNL     1      42.718 -14.122   5.557  1.00  0.00    -0.028 A 
HETATM   10  C   UNL     1      43.482 -14.297   6.841  1.00  0.00     0.041 C 
HETATM   11  C   UNL     1      42.926 -15.431   7.716  1.00  0.00     0.005 C 
HETATM   12  C   UNL     1      42.586 -16.676   6.890  1.00  0.00     0.005 C 
HETATM   13  C   UNL     1      41.506 -16.366   5.846  1.00  0.00     0.047 C 
ENDROOT
BRANCH   1  14
HETATM   14  N   UNL     1      44.602 -11.540   5.466  1.00  0.00    -0.340 N 
HETATM   15  H   UNL     1      45.544 -11.563   5.110  1.00  0.00     0.167 HD
BRANCH  14  16
HETATM   16  C   UNL     1      44.514 -10.950   6.741  1.00  0.00     0.036 A 
HETATM   17  C   UNL     1      45.677 -10.900   7.530  1.00  0.00     0.032 A 
HETATM   18  C   UNL     1      45.668 -10.333   8.808  1.00  0.00     0.042 A 
HETATM   19  C   UNL     1      44.488  -9.809   9.321  1.00  0.00     0.102 A 
HETATM   20  C   UNL     1      43.311  -9.896   8.575  1.00  0.00     0.104 A 
HETATM   21  O   UNL     1      44.554  -9.231  10.562  1.00  0.00    -0.346 OA
HETATM   22  C   UNL     1      43.327 -10.459   7.296  1.00  0.00     0.069 A 
HETATM   23  O   UNL     1      42.101  -9.432   9.028  1.00  0.00    -0.346 OA
HETATM   24  C   UNL     1      42.130  -9.183  10.437  1.00  0.00     0.202 C 
HETATM   25  C   UNL     1      43.394  -8.432  10.823  1.00  0.00     0.202 C 
ENDBRANCH  14  16
ENDBRANCH   1  14
TORSDOF 2
ENDMDL
MODEL 8
REMARK VINA RESULT:      -7.5      4.292      6.853
REMARK  2 active torsions:
REMARK  status: ('A' for Active; 'I' for Inactive)
REMARK    1  A    between atoms: C_2  and  N_3 
REMARK    2  A    between atoms: N_3  and  C_4 
ROOT
HETATM    1  C   UNL     1      41.847 -13.407   4.014  1.00  0.00     0.143 A 
HETATM    2  N   UNL     1      41.418 -12.472   3.131  1.00  0.00    -0.223 NA
HETATM    3  C   UNL     1      41.469 -12.721   1.818  1.00  0.00     0.236 A 
HETATM    4  N   UNL     1      41.918 -13.822   1.225  1.00  0.00    -0.234 NA
HETATM    5  C   UNL     1      42.331 -14.745   2.106  1.00  0.00     0.114 A 
HETATM    6  C   UNL     1      42.315 -14.646   3.494  1.00  0.00     0.053 A 
HETATM    7  S   UNL     1      42.969 -16.218   1.541  1.00  0.00    -0.073 SA
HETATM    8  C   UNL     1      43.245 -16.772   3.120  1.00  0.00    -0.008 A 
HETATM    9  C   UNL     1      42.820 -15.876   4.087  1.00  0.00    -0.028 A 
HETATM   10  C   UNL     1      42.952 -16.205   5.549  1.00  0.00     0.041 C 
HETATM   11  C   UNL     1      43.277 -17.686   5.800  1.00  0.00     0.005 C 
HETATM   12  C   UNL     1      44.342 -18.209   4.830  1.00  0.00     0.005 C 
HETATM   13  C   UNL     1      43.861 -18.112   3.378  1.00  0.00     0.047 C 
ENDROOT
BRANCH   1  14
HETATM   14  N   UNL     1      41.803 -13.139   5.392  1.00  0.00    -0.340 N 
HETATM   15  H   UNL     1      41.483 -13.915   5.946  1.00  0.00     0.167 HD
BRANCH  14  16
HETATM   16  C   UNL     1      42.354 -12.102   6.170  1.00  0.00     0.036 A 
HETATM   17  C   UNL     1      41.638 -10.896   6.270  1.00  0.00     0.032 A 
HETATM   18  C   UNL     1      42.121  -9.821   7.021  1.00  0.00     0.042 A 
HETATM   19  C   UNL     1      43.338  -9.933   7.681  1.00  0.00     0.102 A 
HETATM   20  C   UNL     1      44.090 -11.103   7.551  1.00  0.00     0.104 A 
HETATM   21  O   UNL     1      43.737  -8.859   8.433  1.00  0.00    -0.346 OA
HETATM   22  C   UNL     1      43.599 -12.176   6.804  1.00  0.00     0.069 A 
HETATM   23  O   UNL     1      45.316 -11.275   8.145  1.00  0.00    -0.346 OA
HETATM   24  C   UNL     1      45.857 -10.030   8.599  1.00  0.00     0.202 C 
HETATM   25  C   UNL     1      44.798  -9.218   9.326  1.00  0.00     0.202 C 
ENDBRANCH  14  16
ENDBRANCH   1  14
TORSDOF 2
ENDMDL
MODEL 9
REMARK VINA RESULT:      -7.5      1.912      2.214
REMARK  2 active torsions:
REMARK  status: ('A' for Active; 'I' for Inactive)
REMARK    1  A    between atoms: C_2  and  N_3 
REMARK    2  A    between atoms: N_3  and  C_4 
ROOT
HETATM    1  C   UNL     1      42.332 -12.529   3.590  1.00  0.00     0.143 A 
HETATM    2  N   UNL     1      42.185 -11.538   4.503  1.00  0.00    -0.223 NA
HETATM    3  C   UNL     1      42.323 -11.804   5.806  1.00  0.00     0.236 A 
HETATM    4  N   UNL     1      42.593 -12.980   6.362  1.00  0.00    -0.234 NA
HETATM    5  C   UNL     1      42.746 -13.953   5.451  1.00  0.00     0.114 A 
HETATM    6  C   UNL     1      42.660 -13.828   4.068  1.00  0.00     0.053 A 
HETATM    7  S   UNL     1      43.069 -15.542   5.967  1.00  0.00    -0.073 SA
HETATM    8  C   UNL     1      43.104 -16.116   4.372  1.00  0.00    -0.008 A 
HETATM    9  C   UNL     1      42.920 -15.113   3.434  1.00  0.00    -0.028 A 
HETATM   10  C   UNL     1      42.952 -15.423   1.963  1.00  0.00     0.041 C 
HETATM   11  C   UNL     1      43.512 -16.822   1.660  1.00  0.00     0.005 C 
HETATM   12  C   UNL     1      42.958 -17.879   2.621  1.00  0.00     0.005 C 
HETATM   13  C   UNL     1      43.345 -17.563   4.071  1.00  0.00     0.047 C 
ENDROOT
BRANCH   1  14
HETATM   14  N   UNL     1      42.174 -12.249   2.223  1.00  0.00    -0.340 N 
HETATM   15  H   UNL     1      43.042 -12.202   1.716  1.00  0.00     0.167 HD
BRANCH  14  16
HETATM   16  C   UNL     1      41.048 -12.276   1.378  1.00  0.00     0.036 A 
HETATM   17  C   UNL     1      39.920 -11.524   1.752  1.00  0.00     0.032 A 
HETATM   18  C   UNL     1      38.764 -11.502   0.967  1.00  0.00     0.042 A 
HETATM   19  C   UNL     1      38.715 -12.242  -0.208  1.00  0.00     0.102 A 
HETATM   20  C   UNL     1      39.804 -13.037  -0.571  1.00  0.00     0.104 A 
HETATM   21  O   UNL     1      37.569 -12.147  -0.954  1.00  0.00    -0.346 OA
HETATM   22  C   UNL     1      40.959 -13.049   0.215  1.00  0.00     0.069 A 
HETATM   23  O   UNL     1      39.817 -13.821  -1.698  1.00  0.00    -0.346 OA
HETATM   24  C   UNL     1      38.502 -13.984  -2.237  1.00  0.00     0.202 C 
HETATM   25  C   UNL     1      37.770 -12.652  -2.279  1.00  0.00     0.202 C 
ENDBRANCH  14  16
ENDBRANCH   1  14
TORSDOF 2
ENDMDL
MODEL 10
REMARK VINA RESULT:      -7.5      3.183      6.351
REMARK  2 active torsions:
REMARK  status: ('A' for Active; 'I' for Inactive)
REMARK    1  A    between atoms: C_2  and  N_3 
REMARK    2  A    between atoms: N_3  and  C_4 
ROOT
HETATM    1  C   UNL     1      42.979 -14.058   5.873  1.00  0.00     0.143 A 
HETATM    2  N   UNL     1      43.866 -13.536   6.755  1.00  0.00    -0.223 NA
HETATM    3  C   UNL     1      44.397 -12.329   6.532  1.00  0.00     0.236 A 
HETATM    4  N   UNL     1      44.167 -11.527   5.498  1.00  0.00    -0.234 NA
HETATM    5  C   UNL     1      43.281 -12.048   4.635  1.00  0.00     0.114 A 
HETATM    6  C   UNL     1      42.626 -13.271   4.742  1.00  0.00     0.053 A 
HETATM    7  S   UNL     1      42.874 -11.184   3.226  1.00  0.00    -0.073 SA
HETATM    8  C   UNL     1      41.815 -12.405   2.713  1.00  0.00    -0.008 A 
HETATM    9  C   UNL     1      41.722 -13.452   3.615  1.00  0.00    -0.028 A 
HETATM   10  C   UNL     1      40.807 -14.616   3.348  1.00  0.00     0.041 C 
HETATM   11  C   UNL     1      39.816 -14.345   2.205  1.00  0.00     0.005 C 
HETATM   12  C   UNL     1      40.490 -13.654   1.015  1.00  0.00     0.005 C 
HETATM   13  C   UNL     1      41.064 -12.292   1.422  1.00  0.00     0.047 C 
ENDROOT
BRANCH   1  14
HETATM   14  N   UNL     1      42.432 -15.331   6.104  1.00  0.00    -0.340 N 
HETATM   15  H   UNL     1      41.480 -15.310   6.429  1.00  0.00     0.167 HD
BRANCH  14  16
HETATM   16  C   UNL     1      42.854 -16.621   5.731  1.00  0.00     0.036 A 
HETATM   17  C   UNL     1      43.216 -17.521   6.750  1.00  0.00     0.032 A 
HETATM   18  C   UNL     1      43.648 -18.818   6.459  1.00  0.00     0.042 A 
HETATM   19  C   UNL     1      43.731 -19.236   5.136  1.00  0.00     0.102 A 
HETATM   20  C   UNL     1      43.427 -18.342   4.108  1.00  0.00     0.104 A 
HETATM   21  O   UNL     1      44.123 -20.531   4.919  1.00  0.00    -0.346 OA
HETATM   22  C   UNL     1      42.990 -17.048   4.405  1.00  0.00     0.069 A 
HETATM   23  O   UNL     1      43.518 -18.671   2.778  1.00  0.00    -0.346 OA
HETATM   24  C   UNL     1      44.269 -19.875   2.586  1.00  0.00     0.202 C 
HETATM   25  C   UNL     1      43.832 -20.941   3.578  1.00  0.00     0.202 C 
ENDBRANCH  14  16
ENDBRANCH   1  14
TORSDOF 2
ENDMDL
