MODEL 1
REMARK VINA RESULT:      -7.9      0.000      0.000
REMARK  10 active torsions:
REMARK  status: ('A' for Active; 'I' for Inactive)
REMARK    1  A    between atoms: C_2  and  N_3 
REMARK    2  A    between atoms: N_3  and  N_4 
REMARK       I    between atoms: N_4  and  C_5 
REMARK    3  A    between atoms: C_5  and  C_6 
REMARK    4  A    between atoms: C_7  and  N_8 
REMARK    5  A    between atoms: C_14  and  C_15 
REMARK       I    between atoms: C_15  and  N_16 
REMARK    6  A    between atoms: N_16  and  C_17 
REMARK    7  A    between atoms: C_17  and  C_18 
REMARK    8  A    between atoms: C_18  and  C_19 
REMARK    9  A    between atoms: C_21  and  O_22 
REMARK   10  A    between atoms: C_24  and  O_25 
ROOT
HETATM    1  C   UNL     1      43.120 -14.666   7.416  1.00  0.00     0.070 C 
HETATM    2  C   UNL     1      42.361 -15.927   7.065  1.00  0.00     0.027 C 
HETATM    3  C   UNL     1      41.158 -15.886   6.452  1.00  0.00     0.100 C 
ENDROOT
BRANCH   2   4
HETATM    4  N   UNL     1      43.012 -17.104   7.411  1.00  0.00    -0.302 N 
HETATM    5  H   UNL     1      42.910 -17.392   8.392  1.00  0.00     0.186 HD
BRANCH   4   6
HETATM    6  N   UNL     1      43.210 -18.180   6.543  1.00  0.00    -0.266 N 
HETATM    7  C   UNL     1      44.051 -17.945   5.466  1.00  0.00     0.271 C 
HETATM    8  O   UNL     1      44.924 -17.083   5.453  1.00  0.00    -0.266 OA
HETATM    9  H   UNL     1      42.399 -18.778   6.384  1.00  0.00     0.190 HD
BRANCH   7  10
HETATM   10  C   UNL     1      43.813 -18.819   4.285  1.00  0.00     0.054 A 
HETATM   11  C   UNL     1      44.007 -20.216   4.333  1.00  0.00     0.021 A 
HETATM   12  C   UNL     1      43.904 -20.940   3.138  1.00  0.00     0.024 A 
HETATM   13  C   UNL     1      43.487 -20.318   1.956  1.00  0.00     0.002 A 
HETATM   14  C   UNL     1      43.204 -18.954   1.945  1.00  0.00     0.001 A 
HETATM   15  C   UNL     1      43.374 -18.201   3.105  1.00  0.00     0.019 A 
BRANCH  11  16
HETATM   16  N   UNL     1      44.483 -20.883   5.486  1.00  0.00    -0.302 NA
HETATM   17  H   UNL     1      43.930 -20.651   6.316  1.00  0.00     0.124 HD
HETATM   18  H   UNL     1      44.505 -21.895   5.369  1.00  0.00     0.124 HD
ENDBRANCH  11  16
ENDBRANCH   7  10
ENDBRANCH   4   6
ENDBRANCH   2   4
BRANCH   3  19
HETATM   19  C   UNL     1      40.439 -14.653   6.024  1.00  0.00     0.243 C 
HETATM   20  N   UNL     1      40.755 -14.279   4.738  1.00  0.00    -0.357 N 
HETATM   21  H   UNL     1      41.382 -14.843   4.183  1.00  0.00     0.162 HD
HETATM   22  O   UNL     1      39.665 -14.031   6.736  1.00  0.00    -0.269 OA
BRANCH  20  23
HETATM   23  C   UNL     1      40.160 -13.110   4.117  1.00  0.00     0.127 C 
BRANCH  23  24
HETATM   24  C   UNL     1      41.206 -12.112   3.609  1.00  0.00     0.058 C 
BRANCH  24  25
HETATM   25  C   UNL     1      42.158 -11.699   4.705  1.00  0.00    -0.054 A 
HETATM   26  C   UNL     1      41.694 -10.978   5.817  1.00  0.00     0.046 A 
HETATM   27  C   UNL     1      42.578 -10.557   6.820  1.00  0.00     0.102 A 
HETATM   28  C   UNL     1      43.949 -10.863   6.713  1.00  0.00     0.101 A 
HETATM   29  C   UNL     1      44.407 -11.593   5.610  1.00  0.00     0.040 A 
HETATM   30  C   UNL     1      43.519 -12.004   4.614  1.00  0.00     0.010 A 
BRANCH  27  31
HETATM   31  O   UNL     1      42.206  -9.840   7.931  1.00  0.00    -0.353 OA
HETATM   32  C   UNL     1      41.708  -8.525   7.732  1.00  0.00     0.210 C 
ENDBRANCH  27  31
BRANCH  28  33
HETATM   33  O   UNL     1      44.753 -10.412   7.731  1.00  0.00    -0.353 OA
HETATM   34  C   UNL     1      46.152 -10.610   7.601  1.00  0.00     0.210 C 
ENDBRANCH  28  33
ENDBRANCH  24  25
ENDBRANCH  23  24
ENDBRANCH  20  23
ENDBRANCH   3  19
TORSDOF 10
ENDMDL
MODEL 2
REMARK VINA RESULT:      -7.8      3.056      8.518
REMARK  10 active torsions:
REMARK  status: ('A' for Active; 'I' for Inactive)
REMARK    1  A    between atoms: C_2  and  N_3 
REMARK    2  A    between atoms: N_3  and  N_4 
REMARK       I    between atoms: N_4  and  C_5 
REMARK    3  A    between atoms: C_5  and  C_6 
REMARK    4  A    between atoms: C_7  and  N_8 
REMARK    5  A    between atoms: C_14  and  C_15 
REMARK       I    between atoms: C_15  and  N_16 
REMARK    6  A    between atoms: N_16  and  C_17 
REMARK    7  A    between atoms: C_17  and  C_18 
REMARK    8  A    between atoms: C_18  and  C_19 
REMARK    9  A    between atoms: C_21  and  O_22 
REMARK   10  A    between atoms: C_24  and  O_25 
ROOT
HETATM    1  C   UNL     1      41.685 -13.718   6.253  1.00  0.00     0.070 C 
HETATM    2  C   UNL     1      42.883 -12.803   6.115  1.00  0.00     0.027 C 
HETATM    3  C   UNL     1      43.321 -12.382   4.910  1.00  0.00     0.100 C 
ENDROOT
BRANCH   2   4
HETATM    4  N   UNL     1      43.464 -12.435   7.321  1.00  0.00    -0.302 N 
HETATM    5  H   UNL     1      44.400 -12.823   7.496  1.00  0.00     0.186 HD
BRANCH   4   6
HETATM    6  N   UNL     1      43.255 -11.209   7.956  1.00  0.00    -0.266 N 
HETATM    7  C   UNL     1      44.280 -10.768   8.779  1.00  0.00     0.271 C 
HETATM    8  O   UNL     1      45.451 -11.112   8.659  1.00  0.00    -0.266 OA
HETATM    9  H   UNL     1      42.298 -11.021   8.256  1.00  0.00     0.190 HD
BRANCH   7  10
HETATM   10  C   UNL     1      43.858  -9.835   9.859  1.00  0.00     0.054 A 
HETATM   11  C   UNL     1      43.710 -10.255  11.198  1.00  0.00     0.021 A 
HETATM   12  C   UNL     1      43.166  -9.350  12.119  1.00  0.00     0.024 A 
HETATM   13  C   UNL     1      42.904  -8.025  11.754  1.00  0.00     0.002 A 
HETATM   14  C   UNL     1      43.147  -7.597  10.451  1.00  0.00     0.001 A 
HETATM   15  C   UNL     1      43.616  -8.502   9.500  1.00  0.00     0.019 A 
BRANCH  11  16
HETATM   16  N   UNL     1      43.906 -11.596  11.606  1.00  0.00    -0.302 NA
HETATM   17  H   UNL     1      44.283 -11.653  12.556  1.00  0.00     0.124 HD
HETATM   18  H   UNL     1      43.054 -12.149  11.547  1.00  0.00     0.124 HD
ENDBRANCH  11  16
ENDBRANCH   7  10
ENDBRANCH   4   6
ENDBRANCH   2   4
BRANCH   3  19
HETATM   19  C   UNL     1      42.708 -12.715   3.593  1.00  0.00     0.243 C 
HETATM   20  N   UNL     1      43.178 -13.901   3.079  1.00  0.00    -0.357 N 
HETATM   21  H   UNL     1      43.835 -14.459   3.604  1.00  0.00     0.162 HD
HETATM   22  O   UNL     1      41.889 -12.010   3.022  1.00  0.00    -0.269 OA
BRANCH  20  23
HETATM   23  C   UNL     1      42.706 -14.420   1.808  1.00  0.00     0.127 C 
BRANCH  23  24
HETATM   24  C   UNL     1      41.831 -15.668   1.966  1.00  0.00     0.058 C 
BRANCH  24  25
HETATM   25  C   UNL     1      42.529 -16.739   2.769  1.00  0.00    -0.054 A 
HETATM   26  C   UNL     1      42.540 -16.682   4.172  1.00  0.00     0.046 A 
HETATM   27  C   UNL     1      43.217 -17.651   4.925  1.00  0.00     0.102 A 
HETATM   28  C   UNL     1      43.894 -18.696   4.265  1.00  0.00     0.101 A 
HETATM   29  C   UNL     1      43.871 -18.757   2.867  1.00  0.00     0.040 A 
HETATM   30  C   UNL     1      43.197 -17.785   2.126  1.00  0.00     0.010 A 
BRANCH  27  31
HETATM   31  O   UNL     1      43.285 -17.661   6.296  1.00  0.00    -0.353 OA
HETATM   32  C   UNL     1      44.027 -16.628   6.928  1.00  0.00     0.210 C 
ENDBRANCH  27  31
BRANCH  28  33
HETATM   33  O   UNL     1      44.539 -19.603   5.069  1.00  0.00    -0.353 OA
HETATM   34  C   UNL     1      44.002 -20.915   5.145  1.00  0.00     0.210 C 
ENDBRANCH  28  33
ENDBRANCH  24  25
ENDBRANCH  23  24
ENDBRANCH  20  23
ENDBRANCH   3  19
TORSDOF 10
ENDMDL
MODEL 3
REMARK VINA RESULT:      -7.6      3.644      9.103
REMARK  10 active torsions:
REMARK  status: ('A' for Active; 'I' for Inactive)
REMARK    1  A    between atoms: C_2  and  N_3 
REMARK    2  A    between atoms: N_3  and  N_4 
REMARK       I    between atoms: N_4  and  C_5 
REMARK    3  A    between atoms: C_5  and  C_6 
REMARK    4  A    between atoms: C_7  and  N_8 
REMARK    5  A    between atoms: C_14  and  C_15 
REMARK       I    between atoms: C_15  and  N_16 
REMARK    6  A    between atoms: N_16  and  C_17 
REMARK    7  A    between atoms: C_17  and  C_18 
REMARK    8  A    between atoms: C_18  and  C_19 
REMARK    9  A    between atoms: C_21  and  O_22 
REMARK   10  A    between atoms: C_24  and  O_25 
ROOT
HETATM    1  C   UNL     1      45.794 -11.345   5.846  1.00  0.00     0.070 C 
HETATM    2  C   UNL     1      45.128 -11.217   7.199  1.00  0.00     0.027 C 
HETATM    3  C   UNL     1      44.020 -11.920   7.516  1.00  0.00     0.100 C 
ENDROOT
BRANCH   2   4
HETATM    4  N   UNL     1      45.762 -10.339   8.068  1.00  0.00    -0.302 N 
HETATM    5  H   UNL     1      46.605  -9.883   7.697  1.00  0.00     0.186 HD
BRANCH   4   6
HETATM    6  N   UNL     1      45.105  -9.571   9.031  1.00  0.00    -0.266 N 
HETATM    7  C   UNL     1      45.035 -10.120  10.303  1.00  0.00     0.271 C 
HETATM    8  O   UNL     1      45.826 -10.951  10.734  1.00  0.00    -0.266 OA
HETATM    9  H   UNL     1      44.296  -9.042   8.703  1.00  0.00     0.190 HD
BRANCH   7  10
HETATM   10  C   UNL     1      43.897  -9.635  11.131  1.00  0.00     0.054 A 
HETATM   11  C   UNL     1      43.227 -10.472  12.049  1.00  0.00     0.021 A 
HETATM   12  C   UNL     1      42.076  -9.977  12.676  1.00  0.00     0.024 A 
HETATM   13  C   UNL     1      41.679  -8.648  12.502  1.00  0.00     0.002 A 
HETATM   14  C   UNL     1      42.406  -7.803  11.666  1.00  0.00     0.001 A 
HETATM   15  C   UNL     1      43.511  -8.296  10.975  1.00  0.00     0.019 A 
BRANCH  11  16
HETATM   16  N   UNL     1      43.554 -11.838  12.219  1.00  0.00    -0.302 NA
HETATM   17  H   UNL     1      42.797 -12.356  12.674  1.00  0.00     0.124 HD
HETATM   18  H   UNL     1      43.792 -12.293  11.340  1.00  0.00     0.124 HD
ENDBRANCH  11  16
ENDBRANCH   7  10
ENDBRANCH   4   6
ENDBRANCH   2   4
BRANCH   3  19
HETATM   19  C   UNL     1      43.328 -12.903   6.635  1.00  0.00     0.243 C 
HETATM   20  N   UNL     1      42.702 -13.899   7.348  1.00  0.00    -0.357 N 
HETATM   21  H   UNL     1      42.713 -13.886   8.357  1.00  0.00     0.162 HD
HETATM   22  O   UNL     1      43.326 -12.845   5.414  1.00  0.00    -0.269 OA
BRANCH  20  23
HETATM   23  C   UNL     1      41.960 -14.958   6.687  1.00  0.00     0.127 C 
BRANCH  23  24
HETATM   24  C   UNL     1      42.477 -16.355   7.045  1.00  0.00     0.058 C 
BRANCH  24  25
HETATM   25  C   UNL     1      42.972 -17.094   5.826  1.00  0.00    -0.054 A 
HETATM   26  C   UNL     1      42.777 -16.560   4.542  1.00  0.00     0.046 A 
HETATM   27  C   UNL     1      43.200 -17.257   3.402  1.00  0.00     0.102 A 
HETATM   28  C   UNL     1      43.830 -18.510   3.547  1.00  0.00     0.101 A 
HETATM   29  C   UNL     1      44.034 -19.034   4.828  1.00  0.00     0.040 A 
HETATM   30  C   UNL     1      43.605 -18.333   5.957  1.00  0.00     0.010 A 
BRANCH  27  31
HETATM   31  O   UNL     1      43.037 -16.810   2.114  1.00  0.00    -0.353 OA
HETATM   32  C   UNL     1      43.423 -15.474   1.825  1.00  0.00     0.210 C 
ENDBRANCH  27  31
BRANCH  28  33
HETATM   33  O   UNL     1      44.210 -19.135   2.385  1.00  0.00    -0.353 OA
HETATM   34  C   UNL     1      43.728 -20.451   2.157  1.00  0.00     0.210 C 
ENDBRANCH  28  33
ENDBRANCH  24  25
ENDBRANCH  23  24
ENDBRANCH  20  23
ENDBRANCH   3  19
TORSDOF 10
ENDMDL
MODEL 4
REMARK VINA RESULT:      -7.5      3.542      5.467
REMARK  10 active torsions:
REMARK  status: ('A' for Active; 'I' for Inactive)
REMARK    1  A    between atoms: C_2  and  N_3 
REMARK    2  A    between atoms: N_3  and  N_4 
REMARK       I    between atoms: N_4  and  C_5 
REMARK    3  A    between atoms: C_5  and  C_6 
REMARK    4  A    between atoms: C_7  and  N_8 
REMARK    5  A    between atoms: C_14  and  C_15 
REMARK       I    between atoms: C_15  and  N_16 
REMARK    6  A    between atoms: N_16  and  C_17 
REMARK    7  A    between atoms: C_17  and  C_18 
REMARK    8  A    between atoms: C_18  and  C_19 
REMARK    9  A    between atoms: C_21  and  O_22 
REMARK   10  A    between atoms: C_24  and  O_25 
ROOT
HETATM    1  C   UNL     1      43.134 -14.305   7.215  1.00  0.00     0.070 C 
HETATM    2  C   UNL     1      42.303 -15.557   7.038  1.00  0.00     0.027 C 
HETATM    3  C   UNL     1      41.079 -15.523   6.468  1.00  0.00     0.100 C 
ENDROOT
BRANCH   2   4
HETATM    4  N   UNL     1      42.912 -16.718   7.494  1.00  0.00    -0.302 N 
HETATM    5  H   UNL     1      42.728 -16.956   8.477  1.00  0.00     0.186 HD
BRANCH   4   6
HETATM    6  N   UNL     1      43.168 -17.838   6.700  1.00  0.00    -0.266 N 
HETATM    7  C   UNL     1      44.077 -17.657   5.669  1.00  0.00     0.271 C 
HETATM    8  O   UNL     1      44.948 -16.793   5.667  1.00  0.00    -0.266 OA
HETATM    9  H   UNL     1      42.369 -18.448   6.521  1.00  0.00     0.190 HD
BRANCH   7  10
HETATM   10  C   UNL     1      43.918 -18.594   4.523  1.00  0.00     0.054 A 
HETATM   11  C   UNL     1      43.567 -18.147   3.232  1.00  0.00     0.021 A 
HETATM   12  C   UNL     1      43.293 -19.109   2.250  1.00  0.00     0.024 A 
HETATM   13  C   UNL     1      43.494 -20.470   2.504  1.00  0.00     0.002 A 
HETATM   14  C   UNL     1      43.935 -20.891   3.757  1.00  0.00     0.001 A 
HETATM   15  C   UNL     1      44.140 -19.956   4.769  1.00  0.00     0.019 A 
BRANCH  11  16
HETATM   16  N   UNL     1      43.297 -16.789   2.938  1.00  0.00    -0.302 NA
HETATM   17  H   UNL     1      43.192 -16.631   1.933  1.00  0.00     0.124 HD
HETATM   18  H   UNL     1      42.470 -16.444   3.422  1.00  0.00     0.124 HD
ENDBRANCH  11  16
ENDBRANCH   7  10
ENDBRANCH   4   6
ENDBRANCH   2   4
BRANCH   3  19
HETATM   19  C   UNL     1      40.401 -14.312   5.927  1.00  0.00     0.243 C 
HETATM   20  N   UNL     1      40.784 -14.026   4.637  1.00  0.00    -0.357 N 
HETATM   21  H   UNL     1      41.428 -14.634   4.151  1.00  0.00     0.162 HD
HETATM   22  O   UNL     1      39.604 -13.635   6.559  1.00  0.00    -0.269 OA
BRANCH  20  23
HETATM   23  C   UNL     1      40.239 -12.892   3.914  1.00  0.00     0.127 C 
BRANCH  23  24
HETATM   24  C   UNL     1      41.186 -12.372   2.828  1.00  0.00     0.058 C 
BRANCH  24  25
HETATM   25  C   UNL     1      40.742 -12.800   1.450  1.00  0.00    -0.054 A 
HETATM   26  C   UNL     1      40.457 -11.841   0.465  1.00  0.00     0.046 A 
HETATM   27  C   UNL     1      40.007 -12.228  -0.805  1.00  0.00     0.102 A 
HETATM   28  C   UNL     1      39.841 -13.596  -1.097  1.00  0.00     0.101 A 
HETATM   29  C   UNL     1      40.137 -14.550  -0.117  1.00  0.00     0.040 A 
HETATM   30  C   UNL     1      40.580 -14.154   1.146  1.00  0.00     0.010 A 
BRANCH  27  31
HETATM   31  O   UNL     1      39.697 -11.354  -1.818  1.00  0.00    -0.353 OA
HETATM   32  C   UNL     1      40.760 -10.613  -2.399  1.00  0.00     0.210 C 
ENDBRANCH  27  31
BRANCH  28  33
HETATM   33  O   UNL     1      39.392 -13.897  -2.359  1.00  0.00    -0.353 OA
HETATM   34  C   UNL     1      38.758 -15.153  -2.551  1.00  0.00     0.210 C 
ENDBRANCH  28  33
ENDBRANCH  24  25
ENDBRANCH  23  24
ENDBRANCH  20  23
ENDBRANCH   3  19
TORSDOF 10
ENDMDL
MODEL 5
REMARK VINA RESULT:      -7.5      3.820      5.723
REMARK  10 active torsions:
REMARK  status: ('A' for Active; 'I' for Inactive)
REMARK    1  A    between atoms: C_2  and  N_3 
REMARK    2  A    between atoms: N_3  and  N_4 
REMARK       I    between atoms: N_4  and  C_5 
REMARK    3  A    between atoms: C_5  and  C_6 
REMARK    4  A    between atoms: C_7  and  N_8 
REMARK    5  A    between atoms: C_14  and  C_15 
REMARK       I    between atoms: C_15  and  N_16 
REMARK    6  A    between atoms: N_16  and  C_17 
REMARK    7  A    between atoms: C_17  and  C_18 
REMARK    8  A    between atoms: C_18  and  C_19 
REMARK    9  A    between atoms: C_21  and  O_22 
REMARK   10  A    between atoms: C_24  and  O_25 
ROOT
HETATM    1  C   UNL     1      43.975 -11.527   4.573  1.00  0.00     0.070 C 
HETATM    2  C   UNL     1      43.188 -12.509   5.414  1.00  0.00     0.027 C 
HETATM    3  C   UNL     1      43.304 -12.547   6.759  1.00  0.00     0.100 C 
ENDROOT
BRANCH   2   4
HETATM    4  N   UNL     1      42.341 -13.336   4.688  1.00  0.00    -0.302 N 
HETATM    5  H   UNL     1      41.505 -12.880   4.300  1.00  0.00     0.186 HD
BRANCH   4   6
HETATM    6  N   UNL     1      42.766 -14.431   3.932  1.00  0.00    -0.266 N 
HETATM    7  C   UNL     1      41.995 -15.578   4.040  1.00  0.00     0.271 C 
HETATM    8  O   UNL     1      40.812 -15.581   4.364  1.00  0.00    -0.266 OA
HETATM    9  H   UNL     1      43.776 -14.549   3.849  1.00  0.00     0.190 HD
BRANCH   7  10
HETATM   10  C   UNL     1      42.716 -16.846   3.744  1.00  0.00     0.054 A 
HETATM   11  C   UNL     1      43.699 -17.370   4.610  1.00  0.00     0.021 A 
HETATM   12  C   UNL     1      44.431 -18.486   4.182  1.00  0.00     0.024 A 
HETATM   13  C   UNL     1      44.106 -19.144   2.992  1.00  0.00     0.002 A 
HETATM   14  C   UNL     1      43.067 -18.672   2.192  1.00  0.00     0.001 A 
HETATM   15  C   UNL     1      42.376 -17.520   2.562  1.00  0.00     0.019 A 
BRANCH  11  16
HETATM   16  N   UNL     1      44.104 -16.712   5.795  1.00  0.00    -0.302 NA
HETATM   17  H   UNL     1      43.325 -16.225   6.246  1.00  0.00     0.124 HD
HETATM   18  H   UNL     1      44.537 -17.347   6.464  1.00  0.00     0.124 HD
ENDBRANCH  11  16
ENDBRANCH   7  10
ENDBRANCH   4   6
ENDBRANCH   2   4
BRANCH   3  19
HETATM   19  C   UNL     1      44.164 -11.655   7.586  1.00  0.00     0.243 C 
HETATM   20  N   UNL     1      43.430 -10.806   8.382  1.00  0.00    -0.357 N 
HETATM   21  H   UNL     1      42.422 -10.859   8.389  1.00  0.00     0.162 HD
HETATM   22  O   UNL     1      45.386 -11.661   7.554  1.00  0.00    -0.269 OA
BRANCH  20  23
HETATM   23  C   UNL     1      44.069  -9.857   9.275  1.00  0.00     0.127 C 
BRANCH  23  24
HETATM   24  C   UNL     1      44.263 -10.413  10.689  1.00  0.00     0.058 C 
BRANCH  24  25
HETATM   25  C   UNL     1      43.390  -9.700  11.693  1.00  0.00    -0.054 A 
HETATM   26  C   UNL     1      42.267 -10.341  12.241  1.00  0.00     0.046 A 
HETATM   27  C   UNL     1      41.429  -9.674  13.145  1.00  0.00     0.102 A 
HETATM   28  C   UNL     1      41.718  -8.344  13.509  1.00  0.00     0.101 A 
HETATM   29  C   UNL     1      42.844  -7.711  12.970  1.00  0.00     0.040 A 
HETATM   30  C   UNL     1      43.670  -8.383  12.067  1.00  0.00     0.010 A 
BRANCH  27  31
HETATM   31  O   UNL     1      40.309 -10.225  13.717  1.00  0.00    -0.353 OA
HETATM   32  C   UNL     1      39.347 -10.812  12.852  1.00  0.00     0.210 C 
ENDBRANCH  27  31
BRANCH  28  33
HETATM   33  O   UNL     1      40.848  -7.755  14.393  1.00  0.00    -0.353 OA
HETATM   34  C   UNL     1      40.038  -6.692  13.912  1.00  0.00     0.210 C 
ENDBRANCH  28  33
ENDBRANCH  24  25
ENDBRANCH  23  24
ENDBRANCH  20  23
ENDBRANCH   3  19
TORSDOF 10
ENDMDL
MODEL 6
REMARK VINA RESULT:      -7.5      3.435      8.785
REMARK  10 active torsions:
REMARK  status: ('A' for Active; 'I' for Inactive)
REMARK    1  A    between atoms: C_2  and  N_3 
REMARK    2  A    between atoms: N_3  and  N_4 
REMARK       I    between atoms: N_4  and  C_5 
REMARK    3  A    between atoms: C_5  and  C_6 
REMARK    4  A    between atoms: C_7  and  N_8 
REMARK    5  A    between atoms: C_14  and  C_15 
REMARK       I    between atoms: C_15  and  N_16 
REMARK    6  A    between atoms: N_16  and  C_17 
REMARK    7  A    between atoms: C_17  and  C_18 
REMARK    8  A    between atoms: C_18  and  C_19 
REMARK    9  A    between atoms: C_21  and  O_22 
REMARK   10  A    between atoms: C_24  and  O_25 
ROOT
HETATM    1  C   UNL     1      44.050 -13.523   6.710  1.00  0.00     0.070 C 
HETATM    2  C   UNL     1      44.217 -12.022   6.805  1.00  0.00     0.027 C 
HETATM    3  C   UNL     1      44.011 -11.215   5.742  1.00  0.00     0.100 C 
ENDROOT
BRANCH   2   4
HETATM    4  N   UNL     1      44.579 -11.564   8.065  1.00  0.00    -0.302 N 
HETATM    5  H   UNL     1      45.584 -11.395   8.200  1.00  0.00     0.186 HD
BRANCH   4   6
HETATM    6  N   UNL     1      43.776 -10.753   8.870  1.00  0.00    -0.266 N 
HETATM    7  C   UNL     1      44.446  -9.870   9.703  1.00  0.00     0.271 C 
HETATM    8  O   UNL     1      45.579  -9.452   9.488  1.00  0.00    -0.266 OA
HETATM    9  H   UNL     1      42.927 -11.188   9.233  1.00  0.00     0.190 HD
BRANCH   7  10
HETATM   10  C   UNL     1      43.691  -9.460  10.917  1.00  0.00     0.054 A 
HETATM   11  C   UNL     1      43.358 -10.375  11.939  1.00  0.00     0.021 A 
HETATM   12  C   UNL     1      42.519  -9.936  12.972  1.00  0.00     0.024 A 
HETATM   13  C   UNL     1      42.133  -8.595  13.062  1.00  0.00     0.002 A 
HETATM   14  C   UNL     1      42.549  -7.680  12.098  1.00  0.00     0.001 A 
HETATM   15  C   UNL     1      43.321  -8.111  11.021  1.00  0.00     0.019 A 
BRANCH  11  16
HETATM   16  N   UNL     1      43.676 -11.752  11.867  1.00  0.00    -0.302 NA
HETATM   17  H   UNL     1      44.523 -11.975  12.395  1.00  0.00     0.124 HD
HETATM   18  H   UNL     1      42.912 -12.344  12.188  1.00  0.00     0.124 HD
ENDBRANCH  11  16
ENDBRANCH   7  10
ENDBRANCH   4   6
ENDBRANCH   2   4
BRANCH   3  19
HETATM   19  C   UNL     1      43.582 -11.653   4.384  1.00  0.00     0.243 C 
HETATM   20  N   UNL     1      42.336 -12.237   4.388  1.00  0.00    -0.357 N 
HETATM   21  H   UNL     1      41.805 -12.295   5.244  1.00  0.00     0.162 HD
HETATM   22  O   UNL     1      44.262 -11.524   3.377  1.00  0.00    -0.269 OA
BRANCH  20  23
HETATM   23  C   UNL     1      41.721 -12.728   3.169  1.00  0.00     0.127 C 
BRANCH  23  24
HETATM   24  C   UNL     1      40.908 -14.007   3.390  1.00  0.00     0.058 C 
BRANCH  24  25
HETATM   25  C   UNL     1      41.771 -15.241   3.285  1.00  0.00    -0.054 A 
HETATM   26  C   UNL     1      42.066 -16.003   4.427  1.00  0.00     0.046 A 
HETATM   27  C   UNL     1      42.897 -17.128   4.345  1.00  0.00     0.102 A 
HETATM   28  C   UNL     1      43.443 -17.500   3.100  1.00  0.00     0.101 A 
HETATM   29  C   UNL     1      43.138 -16.746   1.961  1.00  0.00     0.040 A 
HETATM   30  C   UNL     1      42.312 -15.625   2.055  1.00  0.00     0.010 A 
BRANCH  27  31
HETATM   31  O   UNL     1      43.242 -17.917   5.414  1.00  0.00    -0.353 OA
HETATM   32  C   UNL     1      43.666 -17.269   6.605  1.00  0.00     0.210 C 
ENDBRANCH  27  31
BRANCH  28  33
HETATM   33  O   UNL     1      44.253 -18.609   3.101  1.00  0.00    -0.353 OA
HETATM   34  C   UNL     1      43.754 -19.790   2.492  1.00  0.00     0.210 C 
ENDBRANCH  28  33
ENDBRANCH  24  25
ENDBRANCH  23  24
ENDBRANCH  20  23
ENDBRANCH   3  19
TORSDOF 10
ENDMDL
MODEL 7
REMARK VINA RESULT:      -7.4      2.805      4.874
REMARK  10 active torsions:
REMARK  status: ('A' for Active; 'I' for Inactive)
REMARK    1  A    between atoms: C_2  and  N_3 
REMARK    2  A    between atoms: N_3  and  N_4 
REMARK       I    between atoms: N_4  and  C_5 
REMARK    3  A    between atoms: C_5  and  C_6 
REMARK    4  A    between atoms: C_7  and  N_8 
REMARK    5  A    between atoms: C_14  and  C_15 
REMARK       I    between atoms: C_15  and  N_16 
REMARK    6  A    between atoms: N_16  and  C_17 
REMARK    7  A    between atoms: C_17  and  C_18 
REMARK    8  A    between atoms: C_18  and  C_19 
REMARK    9  A    between atoms: C_21  and  O_22 
REMARK   10  A    between atoms: C_24  and  O_25 
ROOT
HETATM    1  C   UNL     1      42.205 -11.405   5.841  1.00  0.00     0.070 C 
HETATM    2  C   UNL     1      42.914 -12.692   6.205  1.00  0.00     0.027 C 
HETATM    3  C   UNL     1      44.227 -12.718   6.517  1.00  0.00     0.100 C 
ENDROOT
BRANCH   2   4
HETATM    4  N   UNL     1      42.097 -13.815   6.204  1.00  0.00    -0.302 N 
HETATM    5  H   UNL     1      41.171 -13.687   6.632  1.00  0.00     0.186 HD
BRANCH   4   6
HETATM    6  N   UNL     1      42.110 -14.799   5.213  1.00  0.00    -0.266 N 
HETATM    7  C   UNL     1      42.319 -16.098   5.650  1.00  0.00     0.271 C 
HETATM    8  O   UNL     1      42.066 -16.489   6.785  1.00  0.00    -0.266 OA
HETATM    9  H   UNL     1      42.530 -14.529   4.324  1.00  0.00     0.190 HD
BRANCH   7  10
HETATM   10  C   UNL     1      42.901 -17.014   4.631  1.00  0.00     0.054 A 
HETATM   11  C   UNL     1      42.414 -17.072   3.308  1.00  0.00     0.021 A 
HETATM   12  C   UNL     1      42.920 -18.066   2.460  1.00  0.00     0.024 A 
HETATM   13  C   UNL     1      43.974 -18.889   2.869  1.00  0.00     0.002 A 
HETATM   14  C   UNL     1      44.512 -18.756   4.147  1.00  0.00     0.001 A 
HETATM   15  C   UNL     1      43.973 -17.825   5.031  1.00  0.00     0.019 A 
BRANCH  11  16
HETATM   16  N   UNL     1      41.313 -16.303   2.863  1.00  0.00    -0.302 NA
HETATM   17  H   UNL     1      40.812 -15.868   3.643  1.00  0.00     0.124 HD
HETATM   18  H   UNL     1      41.585 -15.584   2.195  1.00  0.00     0.124 HD
ENDBRANCH  11  16
ENDBRANCH   7  10
ENDBRANCH   4   6
ENDBRANCH   2   4
BRANCH   3  19
HETATM   19  C   UNL     1      45.134 -11.536   6.573  1.00  0.00     0.243 C 
HETATM   20  N   UNL     1      45.238 -11.013   7.841  1.00  0.00    -0.357 N 
HETATM   21  H   UNL     1      44.759 -11.451   8.614  1.00  0.00     0.162 HD
HETATM   22  O   UNL     1      45.712 -11.071   5.602  1.00  0.00    -0.269 OA
BRANCH  20  23
HETATM   23  C   UNL     1      46.078  -9.863   8.123  1.00  0.00     0.127 C 
BRANCH  23  24
HETATM   24  C   UNL     1      45.275  -8.643   8.586  1.00  0.00     0.058 C 
BRANCH  24  25
HETATM   25  C   UNL     1      44.167  -9.032   9.534  1.00  0.00    -0.054 A 
HETATM   26  C   UNL     1      42.823  -8.926   9.142  1.00  0.00     0.046 A 
HETATM   27  C   UNL     1      41.788  -9.249  10.029  1.00  0.00     0.102 A 
HETATM   28  C   UNL     1      42.100  -9.688  11.331  1.00  0.00     0.101 A 
HETATM   29  C   UNL     1      43.440  -9.806  11.716  1.00  0.00     0.040 A 
HETATM   30  C   UNL     1      44.464  -9.477  10.826  1.00  0.00     0.010 A 
BRANCH  27  31
HETATM   31  O   UNL     1      40.451  -9.161   9.727  1.00  0.00    -0.353 OA
HETATM   32  C   UNL     1      39.905  -7.868   9.515  1.00  0.00     0.210 C 
ENDBRANCH  27  31
BRANCH  28  33
HETATM   33  O   UNL     1      41.032  -9.980  12.144  1.00  0.00    -0.353 OA
HETATM   34  C   UNL     1      40.909  -9.251  13.357  1.00  0.00     0.210 C 
ENDBRANCH  28  33
ENDBRANCH  24  25
ENDBRANCH  23  24
ENDBRANCH  20  23
ENDBRANCH   3  19
TORSDOF 10
ENDMDL
MODEL 8
REMARK VINA RESULT:      -7.4      3.296      8.912
REMARK  10 active torsions:
REMARK  status: ('A' for Active; 'I' for Inactive)
REMARK    1  A    between atoms: C_2  and  N_3 
REMARK    2  A    between atoms: N_3  and  N_4 
REMARK       I    between atoms: N_4  and  C_5 
REMARK    3  A    between atoms: C_5  and  C_6 
REMARK    4  A    between atoms: C_7  and  N_8 
REMARK    5  A    between atoms: C_14  and  C_15 
REMARK       I    between atoms: C_15  and  N_16 
REMARK    6  A    between atoms: N_16  and  C_17 
REMARK    7  A    between atoms: C_17  and  C_18 
REMARK    8  A    between atoms: C_18  and  C_19 
REMARK    9  A    between atoms: C_21  and  O_22 
REMARK   10  A    between atoms: C_24  and  O_25 
ROOT
HETATM    1  C   UNL     1      42.076 -11.532   6.011  1.00  0.00     0.070 C 
HETATM    2  C   UNL     1      43.570 -11.507   5.768  1.00  0.00     0.027 C 
HETATM    3  C   UNL     1      44.095 -11.726   4.544  1.00  0.00     0.100 C 
ENDROOT
BRANCH   2   4
HETATM    4  N   UNL     1      44.329 -11.225   6.896  1.00  0.00    -0.302 N 
HETATM    5  H   UNL     1      45.339 -11.393   6.800  1.00  0.00     0.186 HD
BRANCH   4   6
HETATM    6  N   UNL     1      44.028 -10.223   7.820  1.00  0.00    -0.266 N 
HETATM    7  C   UNL     1      44.657 -10.324   9.052  1.00  0.00     0.271 C 
HETATM    8  O   UNL     1      45.716 -10.916   9.234  1.00  0.00    -0.266 OA
HETATM    9  H   UNL     1      43.066  -9.884   7.811  1.00  0.00     0.190 HD
BRANCH   7  10
HETATM   10  C   UNL     1      43.940  -9.664  10.176  1.00  0.00     0.054 A 
HETATM   11  C   UNL     1      43.605 -10.353  11.361  1.00  0.00     0.021 A 
HETATM   12  C   UNL     1      42.801  -9.698  12.303  1.00  0.00     0.024 A 
HETATM   13  C   UNL     1      42.454  -8.353  12.138  1.00  0.00     0.002 A 
HETATM   14  C   UNL     1      42.873  -7.655  11.008  1.00  0.00     0.001 A 
HETATM   15  C   UNL     1      43.609  -8.310  10.023  1.00  0.00     0.019 A 
BRANCH  11  16
HETATM   16  N   UNL     1      43.884 -11.727  11.552  1.00  0.00    -0.302 NA
HETATM   17  H   UNL     1      43.702 -12.274  10.706  1.00  0.00     0.124 HD
HETATM   18  H   UNL     1      44.841 -11.891  11.860  1.00  0.00     0.124 HD
ENDBRANCH  11  16
ENDBRANCH   7  10
ENDBRANCH   4   6
ENDBRANCH   2   4
BRANCH   3  19
HETATM   19  C   UNL     1      43.322 -11.990   3.297  1.00  0.00     0.243 C 
HETATM   20  N   UNL     1      43.206 -13.333   3.024  1.00  0.00    -0.357 N 
HETATM   21  H   UNL     1      43.589 -14.017   3.660  1.00  0.00     0.162 HD
HETATM   22  O   UNL     1      42.854 -11.114   2.585  1.00  0.00    -0.269 OA
BRANCH  20  23
HETATM   23  C   UNL     1      42.483 -13.814   1.861  1.00  0.00     0.127 C 
BRANCH  23  24
HETATM   24  C   UNL     1      41.551 -14.986   2.185  1.00  0.00     0.058 C 
BRANCH  24  25
HETATM   25  C   UNL     1      42.258 -16.056   2.981  1.00  0.00    -0.054 A 
HETATM   26  C   UNL     1      42.932 -17.100   2.328  1.00  0.00     0.046 A 
HETATM   27  C   UNL     1      43.559 -18.118   3.058  1.00  0.00     0.102 A 
HETATM   28  C   UNL     1      43.513 -18.093   4.467  1.00  0.00     0.101 A 
HETATM   29  C   UNL     1      42.851 -17.045   5.115  1.00  0.00     0.040 A 
HETATM   30  C   UNL     1      42.226 -16.038   4.378  1.00  0.00     0.010 A 
BRANCH  27  31
HETATM   31  O   UNL     1      44.229 -19.177   2.496  1.00  0.00    -0.353 OA
HETATM   32  C   UNL     1      43.454 -20.253   1.988  1.00  0.00     0.210 C 
ENDBRANCH  27  31
BRANCH  28  33
HETATM   33  O   UNL     1      44.144 -19.128   5.112  1.00  0.00    -0.353 OA
HETATM   34  C   UNL     1      43.557 -19.613   6.310  1.00  0.00     0.210 C 
ENDBRANCH  28  33
ENDBRANCH  24  25
ENDBRANCH  23  24
ENDBRANCH  20  23
ENDBRANCH   3  19
TORSDOF 10
ENDMDL
MODEL 9
REMARK VINA RESULT:      -7.3      3.174      5.196
REMARK  10 active torsions:
REMARK  status: ('A' for Active; 'I' for Inactive)
REMARK    1  A    between atoms: C_2  and  N_3 
REMARK    2  A    between atoms: N_3  and  N_4 
REMARK       I    between atoms: N_4  and  C_5 
REMARK    3  A    between atoms: C_5  and  C_6 
REMARK    4  A    between atoms: C_7  and  N_8 
REMARK    5  A    between atoms: C_14  and  C_15 
REMARK       I    between atoms: C_15  and  N_16 
REMARK    6  A    between atoms: N_16  and  C_17 
REMARK    7  A    between atoms: C_17  and  C_18 
REMARK    8  A    between atoms: C_18  and  C_19 
REMARK    9  A    between atoms: C_21  and  O_22 
REMARK   10  A    between atoms: C_24  and  O_25 
ROOT
HETATM    1  C   UNL     1      42.958 -11.332   4.669  1.00  0.00     0.070 C 
HETATM    2  C   UNL     1      42.942 -12.461   5.676  1.00  0.00     0.027 C 
HETATM    3  C   UNL     1      43.805 -12.501   6.713  1.00  0.00     0.100 C 
ENDROOT
BRANCH   2   4
HETATM    4  N   UNL     1      41.966 -13.421   5.444  1.00  0.00    -0.302 N 
HETATM    5  H   UNL     1      40.995 -13.089   5.515  1.00  0.00     0.186 HD
BRANCH   4   6
HETATM    6  N   UNL     1      42.111 -14.499   4.568  1.00  0.00    -0.266 N 
HETATM    7  C   UNL     1      41.927 -15.758   5.119  1.00  0.00     0.271 C 
HETATM    8  O   UNL     1      41.260 -15.976   6.125  1.00  0.00    -0.266 OA
HETATM    9  H   UNL     1      42.834 -14.398   3.855  1.00  0.00     0.190 HD
BRANCH   7  10
HETATM   10  C   UNL     1      42.624 -16.861   4.402  1.00  0.00     0.054 A 
HETATM   11  C   UNL     1      43.518 -17.735   5.056  1.00  0.00     0.021 A 
HETATM   12  C   UNL     1      44.240 -18.648   4.276  1.00  0.00     0.024 A 
HETATM   13  C   UNL     1      43.984 -18.783   2.908  1.00  0.00     0.002 A 
HETATM   14  C   UNL     1      43.028 -17.979   2.292  1.00  0.00     0.001 A 
HETATM   15  C   UNL     1      42.352 -17.013   3.035  1.00  0.00     0.019 A 
BRANCH  11  16
HETATM   16  N   UNL     1      43.853 -17.603   6.424  1.00  0.00    -0.302 NA
HETATM   17  H   UNL     1      43.876 -16.623   6.718  1.00  0.00     0.124 HD
HETATM   18  H   UNL     1      43.222 -18.123   7.032  1.00  0.00     0.124 HD
ENDBRANCH  11  16
ENDBRANCH   7  10
ENDBRANCH   4   6
ENDBRANCH   2   4
BRANCH   3  19
HETATM   19  C   UNL     1      44.840 -11.477   7.028  1.00  0.00     0.243 C 
HETATM   20  N   UNL     1      44.425 -10.589   7.994  1.00  0.00    -0.357 N 
HETATM   21  H   UNL     1      43.522 -10.699   8.432  1.00  0.00     0.162 HD
HETATM   22  O   UNL     1      45.931 -11.417   6.482  1.00  0.00    -0.269 OA
BRANCH  20  23
HETATM   23  C   UNL     1      45.282  -9.514   8.459  1.00  0.00     0.127 C 
BRANCH  23  24
HETATM   24  C   UNL     1      45.589  -9.606   9.957  1.00  0.00     0.058 C 
BRANCH  24  25
HETATM   25  C   UNL     1      44.327  -9.583  10.785  1.00  0.00    -0.054 A 
HETATM   26  C   UNL     1      43.535  -8.425  10.844  1.00  0.00     0.046 A 
HETATM   27  C   UNL     1      42.382  -8.383  11.640  1.00  0.00     0.102 A 
HETATM   28  C   UNL     1      42.014  -9.518  12.391  1.00  0.00     0.101 A 
HETATM   29  C   UNL     1      42.798 -10.674  12.321  1.00  0.00     0.040 A 
HETATM   30  C   UNL     1      43.947 -10.704  11.528  1.00  0.00     0.010 A 
BRANCH  27  31
HETATM   31  O   UNL     1      41.561  -7.289  11.761  1.00  0.00    -0.353 OA
HETATM   32  C   UNL     1      41.418  -6.444  10.629  1.00  0.00     0.210 C 
ENDBRANCH  27  31
BRANCH  28  33
HETATM   33  O   UNL     1      40.877  -9.398  13.152  1.00  0.00    -0.353 OA
HETATM   34  C   UNL     1      39.879 -10.397  13.006  1.00  0.00     0.210 C 
ENDBRANCH  28  33
ENDBRANCH  24  25
ENDBRANCH  23  24
ENDBRANCH  20  23
ENDBRANCH   3  19
TORSDOF 10
ENDMDL
MODEL 10
REMARK VINA RESULT:      -7.1      3.092      4.810
REMARK  10 active torsions:
REMARK  status: ('A' for Active; 'I' for Inactive)
REMARK    1  A    between atoms: C_2  and  N_3 
REMARK    2  A    between atoms: N_3  and  N_4 
REMARK       I    between atoms: N_4  and  C_5 
REMARK    3  A    between atoms: C_5  and  C_6 
REMARK    4  A    between atoms: C_7  and  N_8 
REMARK    5  A    between atoms: C_14  and  C_15 
REMARK       I    between atoms: C_15  and  N_16 
REMARK    6  A    between atoms: N_16  and  C_17 
REMARK    7  A    between atoms: C_17  and  C_18 
REMARK    8  A    between atoms: C_18  and  C_19 
REMARK    9  A    between atoms: C_21  and  O_22 
REMARK   10  A    between atoms: C_24  and  O_25 
ROOT
HETATM    1  C   UNL     1      41.249 -13.696   6.072  1.00  0.00     0.070 C 
HETATM    2  C   UNL     1      42.337 -14.444   6.811  1.00  0.00     0.027 C 
HETATM    3  C   UNL     1      43.517 -13.863   7.118  1.00  0.00     0.100 C 
ENDROOT
BRANCH   2   4
HETATM    4  N   UNL     1      42.007 -15.749   7.149  1.00  0.00    -0.302 N 
HETATM    5  H   UNL     1      41.269 -15.848   7.859  1.00  0.00     0.186 HD
BRANCH   4   6
HETATM    6  N   UNL     1      42.065 -16.831   6.269  1.00  0.00    -0.266 N 
HETATM    7  C   UNL     1      43.332 -17.319   5.988  1.00  0.00     0.271 C 
HETATM    8  O   UNL     1      44.298 -17.186   6.732  1.00  0.00    -0.266 OA
HETATM    9  H   UNL     1      41.386 -16.821   5.507  1.00  0.00     0.190 HD
BRANCH   7  10
HETATM   10  C   UNL     1      43.456 -18.021   4.681  1.00  0.00     0.054 A 
HETATM   11  C   UNL     1      43.128 -17.397   3.459  1.00  0.00     0.021 A 
HETATM   12  C   UNL     1      43.133 -18.177   2.295  1.00  0.00     0.024 A 
HETATM   13  C   UNL     1      43.581 -19.502   2.322  1.00  0.00     0.002 A 
HETATM   14  C   UNL     1      43.995 -20.078   3.521  1.00  0.00     0.001 A 
HETATM   15  C   UNL     1      43.926 -19.342   4.702  1.00  0.00     0.019 A 
BRANCH  11  16
HETATM   16  N   UNL     1      42.617 -16.080   3.386  1.00  0.00    -0.302 NA
HETATM   17  H   UNL     1      41.884 -15.995   2.675  1.00  0.00     0.124 HD
HETATM   18  H   UNL     1      42.258 -15.751   4.281  1.00  0.00     0.124 HD
ENDBRANCH  11  16
ENDBRANCH   7  10
ENDBRANCH   4   6
ENDBRANCH   2   4
BRANCH   3  19
HETATM   19  C   UNL     1      43.902 -12.456   6.815  1.00  0.00     0.243 C 
HETATM   20  N   UNL     1      43.890 -11.654   7.932  1.00  0.00    -0.357 N 
HETATM   21  H   UNL     1      43.674 -12.046   8.837  1.00  0.00     0.162 HD
HETATM   22  O   UNL     1      44.184 -12.050   5.697  1.00  0.00    -0.269 OA
BRANCH  20  23
HETATM   23  C   UNL     1      44.242 -10.247   7.865  1.00  0.00     0.127 C 
BRANCH  23  24
HETATM   24  C   UNL     1      45.010  -9.770   9.101  1.00  0.00     0.058 C 
BRANCH  24  25
HETATM   25  C   UNL     1      44.206  -8.780   9.909  1.00  0.00    -0.054 A 
HETATM   26  C   UNL     1      43.980  -8.995  11.278  1.00  0.00     0.046 A 
HETATM   27  C   UNL     1      43.203  -8.101  12.027  1.00  0.00     0.102 A 
HETATM   28  C   UNL     1      42.641  -6.972  11.398  1.00  0.00     0.101 A 
HETATM   29  C   UNL     1      42.878  -6.754  10.036  1.00  0.00     0.040 A 
HETATM   30  C   UNL     1      43.650  -7.652   9.298  1.00  0.00     0.010 A 
BRANCH  27  31
HETATM   31  O   UNL     1      42.927  -8.245  13.365  1.00  0.00    -0.353 OA
HETATM   32  C   UNL     1      42.029  -9.277  13.746  1.00  0.00     0.210 C 
ENDBRANCH  27  31
BRANCH  28  33
HETATM   33  O   UNL     1      41.887  -6.147  12.195  1.00  0.00    -0.353 OA
HETATM   34  C   UNL     1      40.481  -6.144  11.997  1.00  0.00     0.210 C 
ENDBRANCH  28  33
ENDBRANCH  24  25
ENDBRANCH  23  24
ENDBRANCH  20  23
ENDBRANCH   3  19
TORSDOF 10
ENDMDL
