MODEL 1
REMARK VINA RESULT:      -9.9      0.000      0.000
REMARK  7 active torsions:
REMARK  status: ('A' for Active; 'I' for Inactive)
REMARK    1  A    between atoms: C_4  and  N_5 
REMARK       I    between atoms: N_5  and  C_6 
REMARK       I    between atoms: C_6  and  N_7 
REMARK    2  A    between atoms: N_7  and  N_8 
REMARK       I    between atoms: N_8  and  C_9 
REMARK    3  A    between atoms: C_9  and  C_10 
REMARK    4  A    between atoms: C_10  and  N_11 
REMARK    5  A    between atoms: C_10  and  C_19 
REMARK       I    between atoms: N_11  and  C_12 
REMARK    6  A    between atoms: C_12  and  C_13 
REMARK    7  A    between atoms: C_19  and  C_20 
ROOT
HETATM    1  C   UNL     1      41.787 -15.112   3.042  1.00  0.00     0.183 C 
ENDROOT
BRANCH   1   2
HETATM    2  C   UNL     1      41.552 -14.233   4.285  1.00  0.00     0.259 C 
HETATM    3  N   UNL     1      42.556 -13.342   4.593  1.00  0.00    -0.264 N 
HETATM    4  H   UNL     1      43.352 -13.166   3.966  1.00  0.00     0.190 HD
HETATM    5  O   UNL     1      40.568 -14.385   5.014  1.00  0.00    -0.269 OA
BRANCH   3   6
HETATM    6  N   UNL     1      42.333 -12.403   5.610  1.00  0.00    -0.249 N 
HETATM    7  C   UNL     1      43.423 -12.022   6.381  1.00  0.00     0.339 C 
HETATM    8  N   UNL     1      43.050 -11.138   7.371  1.00  0.00    -0.308 N 
HETATM    9  O   UNL     1      44.558 -12.419   6.136  1.00  0.00    -0.245 OA
HETATM   10  H   UNL     1      42.102 -10.798   7.317  1.00  0.00     0.170 HD
HETATM   11  H   UNL     1      41.402 -12.427   6.015  1.00  0.00     0.192 HD
BRANCH   8  12
HETATM   12  C   UNL     1      43.876 -10.545   8.348  1.00  0.00     0.036 A 
HETATM   13  C   UNL     1      44.968  -9.726   8.052  1.00  0.00     0.029 A 
HETATM   14  C   UNL     1      45.737  -9.171   9.080  1.00  0.00     0.002 A 
HETATM   15  C   UNL     1      45.424  -9.432  10.410  1.00  0.00     0.000 A 
HETATM   16  C   UNL     1      44.341 -10.252  10.717  1.00  0.00     0.002 A 
HETATM   17  C   UNL     1      43.573 -10.808   9.690  1.00  0.00     0.029 A 
ENDBRANCH   8  12
ENDBRANCH   3   6
ENDBRANCH   1   2
BRANCH   1  18
HETATM   18  N   UNL     1      41.258 -14.510   1.812  1.00  0.00    -0.343 N 
HETATM   19  C   UNL     1      40.242 -15.038   1.051  1.00  0.00     0.259 C 
HETATM   20  O   UNL     1      39.795 -16.158   1.291  1.00  0.00    -0.267 OA
HETATM   21  H   UNL     1      41.500 -13.542   1.633  1.00  0.00     0.163 HD
BRANCH  19  22
HETATM   22  C   UNL     1      39.771 -14.220  -0.057  1.00  0.00     0.072 A 
HETATM   23  S   UNL     1      39.654 -12.512   0.044  1.00  0.00    -0.097 SA
HETATM   24  C   UNL     1      39.095 -12.384  -1.567  1.00  0.00     0.050 A 
HETATM   25  C   UNL     1      38.987 -13.615  -2.174  1.00  0.00     0.009 A 
HETATM   26  C   UNL     1      39.371 -14.672  -1.302  1.00  0.00     0.025 A 
ENDBRANCH  19  22
ENDBRANCH   1  18
BRANCH   1  27
HETATM   27  C   UNL     1      43.260 -15.552   2.974  1.00  0.00     0.076 C 
BRANCH  27  28
HETATM   28  C   UNL     1      43.569 -16.739   3.837  1.00  0.00    -0.028 A 
HETATM   29  C   UNL     1      43.581 -18.118   3.450  1.00  0.00    -0.002 A 
HETATM   30  C   UNL     1      43.932 -18.864   4.576  1.00  0.00     0.042 A 
HETATM   31  C   UNL     1      43.327 -18.804   2.244  1.00  0.00     0.014 A 
HETATM   32  C   UNL     1      44.049 -20.259   4.557  1.00  0.00     0.030 A 
HETATM   33  N   UNL     1      44.113 -17.977   5.610  1.00  0.00    -0.365 N 
HETATM   34  C   UNL     1      43.798 -20.913   3.347  1.00  0.00     0.002 A 
HETATM   35  C   UNL     1      43.442 -20.199   2.207  1.00  0.00     0.001 A 
HETATM   36  H   UNL     1      44.364 -18.240   6.554  1.00  0.00     0.165 HD
HETATM   37  C   UNL     1      43.900 -16.698   5.178  1.00  0.00     0.096 A 
ENDBRANCH  27  28
ENDBRANCH   1  27
TORSDOF 7
ENDMDL
MODEL 2
REMARK VINA RESULT:      -9.4      2.158      8.186
REMARK  7 active torsions:
REMARK  status: ('A' for Active; 'I' for Inactive)
REMARK    1  A    between atoms: C_4  and  N_5 
REMARK       I    between atoms: N_5  and  C_6 
REMARK       I    between atoms: C_6  and  N_7 
REMARK    2  A    between atoms: N_7  and  N_8 
REMARK       I    between atoms: N_8  and  C_9 
REMARK    3  A    between atoms: C_9  and  C_10 
REMARK    4  A    between atoms: C_10  and  N_11 
REMARK    5  A    between atoms: C_10  and  C_19 
REMARK       I    between atoms: N_11  and  C_12 
REMARK    6  A    between atoms: C_12  and  C_13 
REMARK    7  A    between atoms: C_19  and  C_20 
ROOT
HETATM    1  C   UNL     1      42.929 -13.512   5.741  1.00  0.00     0.183 C 
ENDROOT
BRANCH   1   2
HETATM    2  C   UNL     1      42.641 -12.958   4.333  1.00  0.00     0.259 C 
HETATM    3  N   UNL     1      41.406 -13.260   3.805  1.00  0.00    -0.264 N 
HETATM    4  H   UNL     1      40.663 -13.708   4.357  1.00  0.00     0.190 HD
HETATM    5  O   UNL     1      43.501 -12.359   3.679  1.00  0.00    -0.269 OA
BRANCH   3   6
HETATM    6  N   UNL     1      41.021 -12.652   2.602  1.00  0.00    -0.249 N 
HETATM    7  C   UNL     1      40.319 -13.426   1.687  1.00  0.00     0.339 C 
HETATM    8  N   UNL     1      40.052 -12.718   0.534  1.00  0.00    -0.308 N 
HETATM    9  O   UNL     1      39.970 -14.573   1.945  1.00  0.00    -0.245 OA
HETATM   10  H   UNL     1      40.273 -11.735   0.567  1.00  0.00     0.170 HD
HETATM   11  H   UNL     1      41.640 -11.914   2.281  1.00  0.00     0.192 HD
BRANCH   8  12
HETATM   12  C   UNL     1      39.373 -13.174  -0.614  1.00  0.00     0.036 A 
HETATM   13  C   UNL     1      39.726 -14.323  -1.323  1.00  0.00     0.029 A 
HETATM   14  C   UNL     1      38.997 -14.712  -2.453  1.00  0.00     0.002 A 
HETATM   15  C   UNL     1      37.912 -13.954  -2.883  1.00  0.00     0.000 A 
HETATM   16  C   UNL     1      37.555 -12.802  -2.187  1.00  0.00     0.002 A 
HETATM   17  C   UNL     1      38.284 -12.413  -1.059  1.00  0.00     0.029 A 
ENDBRANCH   8  12
ENDBRANCH   3   6
ENDBRANCH   1   2
BRANCH   1  18
HETATM   18  N   UNL     1      43.007 -12.458   6.760  1.00  0.00    -0.343 N 
HETATM   19  C   UNL     1      44.157 -11.797   7.122  1.00  0.00     0.259 C 
HETATM   20  O   UNL     1      45.251 -12.159   6.693  1.00  0.00    -0.267 OA
HETATM   21  H   UNL     1      42.133 -12.041   7.058  1.00  0.00     0.163 HD
BRANCH  19  22
HETATM   22  C   UNL     1      44.001 -10.692   8.056  1.00  0.00     0.072 A 
HETATM   23  S   UNL     1      42.670  -9.612   7.991  1.00  0.00    -0.097 SA
HETATM   24  C   UNL     1      43.227  -8.732   9.348  1.00  0.00     0.050 A 
HETATM   25  C   UNL     1      44.409  -9.238   9.841  1.00  0.00     0.009 A 
HETATM   26  C   UNL     1      44.856 -10.364   9.093  1.00  0.00     0.025 A 
ENDBRANCH  19  22
ENDBRANCH   1  18
BRANCH   1  27
HETATM   27  C   UNL     1      41.964 -14.666   6.064  1.00  0.00     0.076 C 
BRANCH  27  28
HETATM   28  C   UNL     1      42.612 -16.017   6.018  1.00  0.00    -0.028 A 
HETATM   29  C   UNL     1      42.980 -16.768   4.855  1.00  0.00    -0.002 A 
HETATM   30  C   UNL     1      43.559 -17.960   5.294  1.00  0.00     0.042 A 
HETATM   31  C   UNL     1      42.877 -16.546   3.466  1.00  0.00     0.014 A 
HETATM   32  C   UNL     1      44.045 -18.937   4.417  1.00  0.00     0.030 A 
HETATM   33  N   UNL     1      43.532 -17.942   6.668  1.00  0.00    -0.365 N 
HETATM   34  C   UNL     1      43.937 -18.688   3.046  1.00  0.00     0.002 A 
HETATM   35  C   UNL     1      43.361 -17.511   2.575  1.00  0.00     0.001 A 
HETATM   36  H   UNL     1      43.878 -18.686   7.259  1.00  0.00     0.165 HD
HETATM   37  C   UNL     1      42.968 -16.779   7.115  1.00  0.00     0.096 A 
ENDBRANCH  27  28
ENDBRANCH   1  27
TORSDOF 7
ENDMDL
MODEL 3
REMARK VINA RESULT:      -9.3      2.158      5.773
REMARK  7 active torsions:
REMARK  status: ('A' for Active; 'I' for Inactive)
REMARK    1  A    between atoms: C_4  and  N_5 
REMARK       I    between atoms: N_5  and  C_6 
REMARK       I    between atoms: C_6  and  N_7 
REMARK    2  A    between atoms: N_7  and  N_8 
REMARK       I    between atoms: N_8  and  C_9 
REMARK    3  A    between atoms: C_9  and  C_10 
REMARK    4  A    between atoms: C_10  and  N_11 
REMARK    5  A    between atoms: C_10  and  C_19 
REMARK       I    between atoms: N_11  and  C_12 
REMARK    6  A    between atoms: C_12  and  C_13 
REMARK    7  A    between atoms: C_19  and  C_20 
ROOT
HETATM    1  C   UNL     1      41.496 -15.063   3.023  1.00  0.00     0.183 C 
ENDROOT
BRANCH   1   2
HETATM    2  C   UNL     1      41.307 -14.354   4.377  1.00  0.00     0.259 C 
HETATM    3  N   UNL     1      42.452 -14.135   5.110  1.00  0.00    -0.264 N 
HETATM    4  H   UNL     1      43.393 -14.304   4.730  1.00  0.00     0.190 HD
HETATM    5  O   UNL     1      40.188 -14.083   4.821  1.00  0.00    -0.269 OA
BRANCH   3   6
HETATM    6  N   UNL     1      42.370 -13.352   6.270  1.00  0.00    -0.249 N 
HETATM    7  C   UNL     1      43.216 -12.255   6.366  1.00  0.00     0.339 C 
HETATM    8  N   UNL     1      43.063 -11.611   7.575  1.00  0.00    -0.308 N 
HETATM    9  O   UNL     1      43.951 -11.924   5.441  1.00  0.00    -0.245 OA
HETATM   10  H   UNL     1      42.294 -11.929   8.144  1.00  0.00     0.170 HD
HETATM   11  H   UNL     1      42.088 -13.857   7.105  1.00  0.00     0.192 HD
BRANCH   8  12
HETATM   12  C   UNL     1      43.755 -10.471   8.033  1.00  0.00     0.036 A 
HETATM   13  C   UNL     1      45.081 -10.488   8.472  1.00  0.00     0.029 A 
HETATM   14  C   UNL     1      45.699  -9.311   8.907  1.00  0.00     0.002 A 
HETATM   15  C   UNL     1      44.998  -8.109   8.910  1.00  0.00     0.000 A 
HETATM   16  C   UNL     1      43.674  -8.081   8.480  1.00  0.00     0.002 A 
HETATM   17  C   UNL     1      43.055  -9.257   8.047  1.00  0.00     0.029 A 
ENDBRANCH   8  12
ENDBRANCH   3   6
ENDBRANCH   1   2
BRANCH   1  18
HETATM   18  N   UNL     1      41.944 -16.454   3.169  1.00  0.00    -0.343 N 
HETATM   19  C   UNL     1      43.027 -17.004   2.526  1.00  0.00     0.259 C 
HETATM   20  O   UNL     1      43.624 -16.376   1.654  1.00  0.00    -0.267 OA
HETATM   21  H   UNL     1      41.570 -16.978   3.952  1.00  0.00     0.163 HD
BRANCH  19  22
HETATM   22  C   UNL     1      43.386 -18.361   2.908  1.00  0.00     0.072 A 
HETATM   23  S   UNL     1      44.097 -18.734   4.424  1.00  0.00    -0.097 SA
HETATM   24  C   UNL     1      44.149 -20.406   4.068  1.00  0.00     0.050 A 
HETATM   25  C   UNL     1      43.646 -20.683   2.817  1.00  0.00     0.009 A 
HETATM   26  C   UNL     1      43.212 -19.504   2.147  1.00  0.00     0.025 A 
ENDBRANCH  19  22
ENDBRANCH   1  18
BRANCH   1  27
HETATM   27  C   UNL     1      40.251 -14.865   2.142  1.00  0.00     0.076 C 
BRANCH  27  28
HETATM   28  C   UNL     1      40.451 -13.870   1.039  1.00  0.00    -0.028 A 
HETATM   29  C   UNL     1      40.040 -13.989  -0.328  1.00  0.00    -0.002 A 
HETATM   30  C   UNL     1      40.428 -12.822  -0.985  1.00  0.00     0.042 A 
HETATM   31  C   UNL     1      39.370 -14.984  -1.071  1.00  0.00     0.014 A 
HETATM   32  C   UNL     1      40.177 -12.593  -2.343  1.00  0.00     0.030 A 
HETATM   33  N   UNL     1      41.063 -12.028  -0.059  1.00  0.00    -0.365 N 
HETATM   34  C   UNL     1      39.505 -13.592  -3.053  1.00  0.00     0.002 A 
HETATM   35  C   UNL     1      39.108 -14.771  -2.430  1.00  0.00     0.001 A 
HETATM   36  H   UNL     1      41.461 -11.120  -0.258  1.00  0.00     0.165 HD
HETATM   37  C   UNL     1      41.081 -12.646   1.160  1.00  0.00     0.096 A 
ENDBRANCH  27  28
ENDBRANCH   1  27
TORSDOF 7
ENDMDL
MODEL 4
REMARK VINA RESULT:      -9.2      2.404      5.915
REMARK  7 active torsions:
REMARK  status: ('A' for Active; 'I' for Inactive)
REMARK    1  A    between atoms: C_4  and  N_5 
REMARK       I    between atoms: N_5  and  C_6 
REMARK       I    between atoms: C_6  and  N_7 
REMARK    2  A    between atoms: N_7  and  N_8 
REMARK       I    between atoms: N_8  and  C_9 
REMARK    3  A    between atoms: C_9  and  C_10 
REMARK    4  A    between atoms: C_10  and  N_11 
REMARK    5  A    between atoms: C_10  and  C_19 
REMARK       I    between atoms: N_11  and  C_12 
REMARK    6  A    between atoms: C_12  and  C_13 
REMARK    7  A    between atoms: C_19  and  C_20 
ROOT
HETATM    1  C   UNL     1      41.583 -15.167   3.331  1.00  0.00     0.183 C 
ENDROOT
BRANCH   1   2
HETATM    2  C   UNL     1      41.563 -14.434   4.685  1.00  0.00     0.259 C 
HETATM    3  N   UNL     1      42.657 -14.635   5.497  1.00  0.00    -0.264 N 
HETATM    4  H   UNL     1      43.501 -15.128   5.177  1.00  0.00     0.190 HD
HETATM    5  O   UNL     1      40.585 -13.782   5.060  1.00  0.00    -0.269 OA
BRANCH   3   6
HETATM    6  N   UNL     1      42.777 -13.872   6.667  1.00  0.00    -0.249 N 
HETATM    7  C   UNL     1      43.441 -12.656   6.575  1.00  0.00     0.339 C 
HETATM    8  N   UNL     1      43.528 -12.040   7.806  1.00  0.00    -0.308 N 
HETATM    9  O   UNL     1      43.837 -12.216   5.501  1.00  0.00    -0.245 OA
HETATM   10  H   UNL     1      43.001 -12.474   8.548  1.00  0.00     0.170 HD
HETATM   11  H   UNL     1      42.813 -14.413   7.526  1.00  0.00     0.192 HD
BRANCH   8  12
HETATM   12  C   UNL     1      44.138 -10.805   8.105  1.00  0.00     0.036 A 
HETATM   13  C   UNL     1      45.520 -10.617   8.184  1.00  0.00     0.029 A 
HETATM   14  C   UNL     1      46.048  -9.356   8.482  1.00  0.00     0.002 A 
HETATM   15  C   UNL     1      45.201  -8.276   8.707  1.00  0.00     0.000 A 
HETATM   16  C   UNL     1      43.821  -8.453   8.638  1.00  0.00     0.002 A 
HETATM   17  C   UNL     1      43.294  -9.712   8.341  1.00  0.00     0.029 A 
ENDBRANCH   8  12
ENDBRANCH   3   6
ENDBRANCH   1   2
BRANCH   1  18
HETATM   18  N   UNL     1      42.036 -16.559   3.445  1.00  0.00    -0.343 N 
HETATM   19  C   UNL     1      43.028 -17.128   2.684  1.00  0.00     0.259 C 
HETATM   20  O   UNL     1      43.519 -16.520   1.734  1.00  0.00    -0.267 OA
HETATM   21  H   UNL     1      41.757 -17.066   4.277  1.00  0.00     0.163 HD
BRANCH  19  22
HETATM   22  C   UNL     1      43.423 -18.482   3.043  1.00  0.00     0.072 A 
HETATM   23  S   UNL     1      44.090 -18.872   4.574  1.00  0.00    -0.097 SA
HETATM   24  C   UNL     1      44.217 -20.530   4.177  1.00  0.00     0.050 A 
HETATM   25  C   UNL     1      43.771 -20.790   2.901  1.00  0.00     0.009 A 
HETATM   26  C   UNL     1      43.319 -19.609   2.246  1.00  0.00     0.025 A 
ENDBRANCH  19  22
ENDBRANCH   1  18
BRANCH   1  27
HETATM   27  C   UNL     1      40.241 -14.973   2.603  1.00  0.00     0.076 C 
BRANCH  27  28
HETATM   28  C   UNL     1      40.374 -14.285   1.277  1.00  0.00    -0.028 A 
HETATM   29  C   UNL     1      40.734 -12.920   1.036  1.00  0.00    -0.002 A 
HETATM   30  C   UNL     1      40.740 -12.728  -0.346  1.00  0.00     0.042 A 
HETATM   31  C   UNL     1      41.056 -11.826   1.865  1.00  0.00     0.014 A 
HETATM   32  C   UNL     1      41.059 -11.503  -0.943  1.00  0.00     0.030 A 
HETATM   33  N   UNL     1      40.385 -13.924  -0.924  1.00  0.00    -0.365 N 
HETATM   34  C   UNL     1      41.382 -10.437  -0.098  1.00  0.00     0.002 A 
HETATM   35  C   UNL     1      41.380 -10.593   1.285  1.00  0.00     0.001 A 
HETATM   36  H   UNL     1      40.298 -14.078  -1.919  1.00  0.00     0.165 HD
HETATM   37  C   UNL     1      40.165 -14.868   0.042  1.00  0.00     0.096 A 
ENDBRANCH  27  28
ENDBRANCH   1  27
TORSDOF 7
ENDMDL
MODEL 5
REMARK VINA RESULT:      -9.2      2.146      8.021
REMARK  7 active torsions:
REMARK  status: ('A' for Active; 'I' for Inactive)
REMARK    1  A    between atoms: C_4  and  N_5 
REMARK       I    between atoms: N_5  and  C_6 
REMARK       I    between atoms: C_6  and  N_7 
REMARK    2  A    between atoms: N_7  and  N_8 
REMARK       I    between atoms: N_8  and  C_9 
REMARK    3  A    between atoms: C_9  and  C_10 
REMARK    4  A    between atoms: C_10  and  N_11 
REMARK    5  A    between atoms: C_10  and  C_19 
REMARK       I    between atoms: N_11  and  C_12 
REMARK    6  A    between atoms: C_12  and  C_13 
REMARK    7  A    between atoms: C_19  and  C_20 
ROOT
HETATM    1  C   UNL     1      43.134 -14.071   4.921  1.00  0.00     0.183 C 
ENDROOT
BRANCH   1   2
HETATM    2  C   UNL     1      41.790 -13.667   4.288  1.00  0.00     0.259 C 
HETATM    3  N   UNL     1      41.865 -12.980   3.097  1.00  0.00    -0.264 N 
HETATM    4  H   UNL     1      42.747 -12.857   2.583  1.00  0.00     0.190 HD
HETATM    5  O   UNL     1      40.714 -13.865   4.860  1.00  0.00    -0.269 OA
BRANCH   3   6
HETATM    6  N   UNL     1      40.681 -12.728   2.389  1.00  0.00    -0.249 N 
HETATM    7  C   UNL     1      40.545 -13.312   1.138  1.00  0.00     0.339 C 
HETATM    8  N   UNL     1      39.361 -12.938   0.538  1.00  0.00    -0.308 N 
HETATM    9  O   UNL     1      41.383 -14.089   0.693  1.00  0.00    -0.245 OA
HETATM   10  H   UNL     1      38.720 -12.423   1.122  1.00  0.00     0.170 HD
HETATM   11  H   UNL     1      40.252 -11.828   2.586  1.00  0.00     0.192 HD
BRANCH   8  12
HETATM   12  C   UNL     1      38.885 -13.321  -0.733  1.00  0.00     0.036 A 
HETATM   13  C   UNL     1      37.970 -12.576  -1.479  1.00  0.00     0.029 A 
HETATM   14  C   UNL     1      37.549 -13.023  -2.737  1.00  0.00     0.002 A 
HETATM   15  C   UNL     1      38.038 -14.217  -3.256  1.00  0.00     0.000 A 
HETATM   16  C   UNL     1      38.946 -14.972  -2.518  1.00  0.00     0.002 A 
HETATM   17  C   UNL     1      39.365 -14.526  -1.262  1.00  0.00     0.029 A 
ENDBRANCH   8  12
ENDBRANCH   3   6
ENDBRANCH   1   2
BRANCH   1  18
HETATM   18  N   UNL     1      43.610 -13.096   5.911  1.00  0.00    -0.343 N 
HETATM   19  C   UNL     1      44.100 -11.847   5.612  1.00  0.00     0.259 C 
HETATM   20  O   UNL     1      44.303 -11.514   4.447  1.00  0.00    -0.267 OA
HETATM   21  H   UNL     1      43.360 -13.264   6.879  1.00  0.00     0.163 HD
BRANCH  19  22
HETATM   22  C   UNL     1      44.394 -10.980   6.744  1.00  0.00     0.072 A 
HETATM   23  S   UNL     1      43.216  -9.951   7.447  1.00  0.00    -0.097 SA
HETATM   24  C   UNL     1      44.317  -9.376   8.623  1.00  0.00     0.050 A 
HETATM   25  C   UNL     1      45.562  -9.945   8.485  1.00  0.00     0.009 A 
HETATM   26  C   UNL     1      45.608 -10.865   7.399  1.00  0.00     0.025 A 
ENDBRANCH  19  22
ENDBRANCH   1  18
BRANCH   1  27
HETATM   27  C   UNL     1      43.073 -15.527   5.413  1.00  0.00     0.076 C 
BRANCH  27  28
HETATM   28  C   UNL     1      43.260 -16.536   4.320  1.00  0.00    -0.028 A 
HETATM   29  C   UNL     1      43.529 -17.935   4.462  1.00  0.00    -0.002 A 
HETATM   30  C   UNL     1      43.615 -18.477   3.179  1.00  0.00     0.042 A 
HETATM   31  C   UNL     1      43.706 -18.796   5.566  1.00  0.00     0.014 A 
HETATM   32  C   UNL     1      43.862 -19.834   2.942  1.00  0.00     0.030 A 
HETATM   33  N   UNL     1      43.420 -17.446   2.290  1.00  0.00    -0.365 N 
HETATM   34  C   UNL     1      44.027 -20.666   4.053  1.00  0.00     0.002 A 
HETATM   35  C   UNL     1      43.952 -20.157   5.346  1.00  0.00     0.001 A 
HETATM   36  H   UNL     1      43.439 -17.545   1.285  1.00  0.00     0.165 HD
HETATM   37  C   UNL     1      43.204 -16.276   2.964  1.00  0.00     0.096 A 
ENDBRANCH  27  28
ENDBRANCH   1  27
TORSDOF 7
ENDMDL
MODEL 6
REMARK VINA RESULT:      -8.8      2.569      3.272
REMARK  7 active torsions:
REMARK  status: ('A' for Active; 'I' for Inactive)
REMARK    1  A    between atoms: C_4  and  N_5 
REMARK       I    between atoms: N_5  and  C_6 
REMARK       I    between atoms: C_6  and  N_7 
REMARK    2  A    between atoms: N_7  and  N_8 
REMARK       I    between atoms: N_8  and  C_9 
REMARK    3  A    between atoms: C_9  and  C_10 
REMARK    4  A    between atoms: C_10  and  N_11 
REMARK    5  A    between atoms: C_10  and  C_19 
REMARK       I    between atoms: N_11  and  C_12 
REMARK    6  A    between atoms: C_12  and  C_13 
REMARK    7  A    between atoms: C_19  and  C_20 
ROOT
HETATM    1  C   UNL     1      42.475 -14.837   5.649  1.00  0.00     0.183 C 
ENDROOT
BRANCH   1   2
HETATM    2  C   UNL     1      43.178 -14.073   6.787  1.00  0.00     0.259 C 
HETATM    3  N   UNL     1      43.783 -12.887   6.434  1.00  0.00    -0.264 N 
HETATM    4  H   UNL     1      43.663 -12.458   5.507  1.00  0.00     0.190 HD
HETATM    5  O   UNL     1      43.276 -14.541   7.924  1.00  0.00    -0.269 OA
BRANCH   3   6
HETATM    6  N   UNL     1      44.297 -12.066   7.448  1.00  0.00    -0.249 N 
HETATM    7  C   UNL     1      43.554 -10.951   7.811  1.00  0.00     0.339 C 
HETATM    8  N   UNL     1      44.201 -10.211   8.778  1.00  0.00    -0.308 N 
HETATM    9  O   UNL     1      42.448 -10.728   7.329  1.00  0.00    -0.245 OA
HETATM   10  H   UNL     1      45.026 -10.637   9.171  1.00  0.00     0.170 HD
HETATM   11  H   UNL     1      45.311 -12.048   7.508  1.00  0.00     0.192 HD
BRANCH   8  12
HETATM   12  C   UNL     1      43.761  -9.015   9.380  1.00  0.00     0.036 A 
HETATM   13  C   UNL     1      43.333  -8.921  10.705  1.00  0.00     0.029 A 
HETATM   14  C   UNL     1      42.915  -7.693  11.231  1.00  0.00     0.002 A 
HETATM   15  C   UNL     1      42.919  -6.552  10.435  1.00  0.00     0.000 A 
HETATM   16  C   UNL     1      43.338  -6.634   9.110  1.00  0.00     0.002 A 
HETATM   17  C   UNL     1      43.755  -7.861   8.585  1.00  0.00     0.029 A 
ENDBRANCH   8  12
ENDBRANCH   3   6
ENDBRANCH   1   2
BRANCH   1  18
HETATM   18  N   UNL     1      41.595 -13.978   4.848  1.00  0.00    -0.343 N 
HETATM   19  C   UNL     1      40.384 -13.481   5.269  1.00  0.00     0.259 C 
HETATM   20  O   UNL     1      39.888 -13.853   6.330  1.00  0.00    -0.267 OA
HETATM   21  H   UNL     1      41.999 -13.546   4.024  1.00  0.00     0.163 HD
BRANCH  19  22
HETATM   22  C   UNL     1      39.726 -12.537   4.377  1.00  0.00     0.072 A 
HETATM   23  S   UNL     1      39.246 -12.957   2.785  1.00  0.00    -0.097 SA
HETATM   24  C   UNL     1      38.590 -11.404   2.498  1.00  0.00     0.050 A 
HETATM   25  C   UNL     1      38.737 -10.573   3.585  1.00  0.00     0.009 A 
HETATM   26  C   UNL     1      39.397 -11.225   4.665  1.00  0.00     0.025 A 
ENDBRANCH  19  22
ENDBRANCH   1  18
BRANCH   1  27
HETATM   27  C   UNL     1      43.501 -15.654   4.846  1.00  0.00     0.076 C 
BRANCH  27  28
HETATM   28  C   UNL     1      43.557 -17.099   5.241  1.00  0.00    -0.028 A 
HETATM   29  C   UNL     1      43.660 -18.236   4.376  1.00  0.00    -0.002 A 
HETATM   30  C   UNL     1      43.688 -19.373   5.183  1.00  0.00     0.042 A 
HETATM   31  C   UNL     1      43.733 -18.405   2.977  1.00  0.00     0.014 A 
HETATM   32  C   UNL     1      43.792 -20.670   4.665  1.00  0.00     0.030 A 
HETATM   33  N   UNL     1      43.592 -18.949   6.486  1.00  0.00    -0.365 N 
HETATM   34  C   UNL     1      43.871 -20.809   3.277  1.00  0.00     0.002 A 
HETATM   35  C   UNL     1      43.840 -19.694   2.443  1.00  0.00     0.001 A 
HETATM   36  H   UNL     1      43.577 -19.562   7.290  1.00  0.00     0.165 HD
HETATM   37  C   UNL     1      43.515 -17.584   6.534  1.00  0.00     0.096 A 
ENDBRANCH  27  28
ENDBRANCH   1  27
TORSDOF 7
ENDMDL
MODEL 7
REMARK VINA RESULT:      -8.8      2.303      5.787
REMARK  7 active torsions:
REMARK  status: ('A' for Active; 'I' for Inactive)
REMARK    1  A    between atoms: C_4  and  N_5 
REMARK       I    between atoms: N_5  and  C_6 
REMARK       I    between atoms: C_6  and  N_7 
REMARK    2  A    between atoms: N_7  and  N_8 
REMARK       I    between atoms: N_8  and  C_9 
REMARK    3  A    between atoms: C_9  and  C_10 
REMARK    4  A    between atoms: C_10  and  N_11 
REMARK    5  A    between atoms: C_10  and  C_19 
REMARK       I    between atoms: N_11  and  C_12 
REMARK    6  A    between atoms: C_12  and  C_13 
REMARK    7  A    between atoms: C_19  and  C_20 
ROOT
HETATM    1  C   UNL     1      42.696 -12.896   2.440  1.00  0.00     0.183 C 
ENDROOT
BRANCH   1   2
HETATM    2  C   UNL     1      43.227 -11.792   3.375  1.00  0.00     0.259 C 
HETATM    3  N   UNL     1      42.278 -11.095   4.087  1.00  0.00    -0.264 N 
HETATM    4  H   UNL     1      41.288 -11.373   4.109  1.00  0.00     0.190 HD
HETATM    5  O   UNL     1      44.423 -11.488   3.411  1.00  0.00    -0.269 OA
BRANCH   3   6
HETATM    6  N   UNL     1      42.703 -10.193   5.073  1.00  0.00    -0.249 N 
HETATM    7  C   UNL     1      42.785 -10.659   6.377  1.00  0.00     0.339 C 
HETATM    8  N   UNL     1      43.164  -9.656   7.244  1.00  0.00    -0.308 N 
HETATM    9  O   UNL     1      42.577 -11.835   6.657  1.00  0.00    -0.245 OA
HETATM   10  H   UNL     1      43.452  -8.792   6.810  1.00  0.00     0.170 HD
HETATM   11  H   UNL     1      42.471  -9.221   4.888  1.00  0.00     0.192 HD
BRANCH   8  12
HETATM   12  C   UNL     1      43.341  -9.749   8.639  1.00  0.00     0.036 A 
HETATM   13  C   UNL     1      42.330  -9.505   9.571  1.00  0.00     0.029 A 
HETATM   14  C   UNL     1      42.585  -9.624  10.942  1.00  0.00     0.002 A 
HETATM   15  C   UNL     1      43.852  -9.984  11.392  1.00  0.00     0.000 A 
HETATM   16  C   UNL     1      44.869 -10.223  10.472  1.00  0.00     0.002 A 
HETATM   17  C   UNL     1      44.615 -10.104   9.103  1.00  0.00     0.029 A 
ENDBRANCH   8  12
ENDBRANCH   3   6
ENDBRANCH   1   2
BRANCH   1  18
HETATM   18  N   UNL     1      43.224 -14.224   2.773  1.00  0.00    -0.343 N 
HETATM   19  C   UNL     1      42.771 -15.016   3.801  1.00  0.00     0.259 C 
HETATM   20  O   UNL     1      41.958 -14.583   4.616  1.00  0.00    -0.267 OA
HETATM   21  H   UNL     1      43.803 -14.677   2.076  1.00  0.00     0.163 HD
BRANCH  19  22
HETATM   22  C   UNL     1      43.334 -16.356   3.883  1.00  0.00     0.072 A 
HETATM   23  S   UNL     1      44.116 -16.942   5.292  1.00  0.00    -0.097 SA
HETATM   24  C   UNL     1      44.409 -18.469   4.579  1.00  0.00     0.050 A 
HETATM   25  C   UNL     1      43.932 -18.537   3.290  1.00  0.00     0.009 A 
HETATM   26  C   UNL     1      43.318 -17.317   2.887  1.00  0.00     0.025 A 
ENDBRANCH  19  22
ENDBRANCH   1  18
BRANCH   1  27
HETATM   27  C   UNL     1      41.164 -12.808   2.333  1.00  0.00     0.076 C 
BRANCH  27  28
HETATM   28  C   UNL     1      40.602 -13.566   1.168  1.00  0.00    -0.028 A 
HETATM   29  C   UNL     1      40.586 -13.165  -0.207  1.00  0.00    -0.002 A 
HETATM   30  C   UNL     1      39.972 -14.186  -0.932  1.00  0.00     0.042 A 
HETATM   31  C   UNL     1      41.039 -12.026  -0.905  1.00  0.00     0.014 A 
HETATM   32  C   UNL     1      39.793 -14.132  -2.320  1.00  0.00     0.030 A 
HETATM   33  N   UNL     1      39.615 -15.164  -0.034  1.00  0.00    -0.365 N 
HETATM   34  C   UNL     1      40.257 -12.995  -2.988  1.00  0.00     0.002 A 
HETATM   35  C   UNL     1      40.870 -11.956  -2.293  1.00  0.00     0.001 A 
HETATM   36  H   UNL     1      39.141 -16.023  -0.279  1.00  0.00     0.165 HD
HETATM   37  C   UNL     1      39.990 -14.804   1.230  1.00  0.00     0.096 A 
ENDBRANCH  27  28
ENDBRANCH   1  27
TORSDOF 7
ENDMDL
MODEL 8
REMARK VINA RESULT:      -8.2      2.840      8.125
REMARK  7 active torsions:
REMARK  status: ('A' for Active; 'I' for Inactive)
REMARK    1  A    between atoms: C_4  and  N_5 
REMARK       I    between atoms: N_5  and  C_6 
REMARK       I    between atoms: C_6  and  N_7 
REMARK    2  A    between atoms: N_7  and  N_8 
REMARK       I    between atoms: N_8  and  C_9 
REMARK    3  A    between atoms: C_9  and  C_10 
REMARK    4  A    between atoms: C_10  and  N_11 
REMARK    5  A    between atoms: C_10  and  C_19 
REMARK       I    between atoms: N_11  and  C_12 
REMARK    6  A    between atoms: C_12  and  C_13 
REMARK    7  A    between atoms: C_19  and  C_20 
ROOT
HETATM    1  C   UNL     1      42.738 -12.851   5.119  1.00  0.00     0.183 C 
ENDROOT
BRANCH   1   2
HETATM    2  C   UNL     1      42.016 -11.815   4.236  1.00  0.00     0.259 C 
HETATM    3  N   UNL     1      42.757 -11.278   3.207  1.00  0.00    -0.264 N 
HETATM    4  H   UNL     1      43.685 -11.636   2.948  1.00  0.00     0.190 HD
HETATM    5  O   UNL     1      40.875 -11.421   4.494  1.00  0.00    -0.269 OA
BRANCH   3   6
HETATM    6  N   UNL     1      42.112 -10.456   2.272  1.00  0.00    -0.249 N 
HETATM    7  C   UNL     1      41.577 -11.064   1.144  1.00  0.00     0.339 C 
HETATM    8  N   UNL     1      41.022 -10.133   0.291  1.00  0.00    -0.308 N 
HETATM    9  O   UNL     1      41.586 -12.282   1.001  1.00  0.00    -0.245 OA
HETATM   10  H   UNL     1      40.962  -9.194   0.652  1.00  0.00     0.170 HD
HETATM   11  H   UNL     1      42.470  -9.506   2.222  1.00  0.00     0.192 HD
BRANCH   8  12
HETATM   12  C   UNL     1      40.398 -10.373  -0.950  1.00  0.00     0.036 A 
HETATM   13  C   UNL     1      41.080 -10.775  -2.100  1.00  0.00     0.029 A 
HETATM   14  C   UNL     1      40.387 -10.997  -3.295  1.00  0.00     0.002 A 
HETATM   15  C   UNL     1      39.008 -10.816  -3.351  1.00  0.00     0.000 A 
HETATM   16  C   UNL     1      38.319 -10.410  -2.211  1.00  0.00     0.002 A 
HETATM   17  C   UNL     1      39.011 -10.186  -1.018  1.00  0.00     0.029 A 
ENDBRANCH   8  12
ENDBRANCH   3   6
ENDBRANCH   1   2
BRANCH   1  18
HETATM   18  N   UNL     1      43.322 -12.257   6.328  1.00  0.00    -0.343 N 
HETATM   19  C   UNL     1      44.406 -11.411   6.345  1.00  0.00     0.259 C 
HETATM   20  O   UNL     1      45.056 -11.204   5.322  1.00  0.00    -0.267 OA
HETATM   21  H   UNL     1      42.765 -12.294   7.174  1.00  0.00     0.163 HD
BRANCH  19  22
HETATM   22  C   UNL     1      44.748 -10.823   7.631  1.00  0.00     0.072 A 
HETATM   23  S   UNL     1      46.222  -9.988   7.900  1.00  0.00    -0.097 SA
HETATM   24  C   UNL     1      45.810  -9.639   9.523  1.00  0.00     0.050 A 
HETATM   25  C   UNL     1      44.580 -10.152   9.864  1.00  0.00     0.009 A 
HETATM   26  C   UNL     1      43.971 -10.839   8.776  1.00  0.00     0.025 A 
ENDBRANCH  19  22
ENDBRANCH   1  18
BRANCH   1  27
HETATM   27  C   UNL     1      41.828 -14.067   5.361  1.00  0.00     0.076 C 
BRANCH  27  28
HETATM   28  C   UNL     1      41.863 -15.071   4.248  1.00  0.00    -0.028 A 
HETATM   29  C   UNL     1      42.697 -16.231   4.147  1.00  0.00    -0.002 A 
HETATM   30  C   UNL     1      42.379 -16.871   2.949  1.00  0.00     0.042 A 
HETATM   31  C   UNL     1      43.696 -16.800   4.966  1.00  0.00     0.014 A 
HETATM   32  C   UNL     1      43.002 -18.053   2.530  1.00  0.00     0.030 A 
HETATM   33  N   UNL     1      41.401 -16.124   2.337  1.00  0.00    -0.365 N 
HETATM   34  C   UNL     1      43.982 -18.599   3.363  1.00  0.00     0.002 A 
HETATM   35  C   UNL     1      44.327 -17.983   4.563  1.00  0.00     0.001 A 
HETATM   36  H   UNL     1      40.984 -16.346   1.444  1.00  0.00     0.165 HD
HETATM   37  C   UNL     1      41.081 -15.042   3.110  1.00  0.00     0.096 A 
ENDBRANCH  27  28
ENDBRANCH   1  27
TORSDOF 7
ENDMDL
MODEL 9
REMARK VINA RESULT:      -8.1     15.778     18.189
REMARK  7 active torsions:
REMARK  status: ('A' for Active; 'I' for Inactive)
REMARK    1  A    between atoms: C_4  and  N_5 
REMARK       I    between atoms: N_5  and  C_6 
REMARK       I    between atoms: C_6  and  N_7 
REMARK    2  A    between atoms: N_7  and  N_8 
REMARK       I    between atoms: N_8  and  C_9 
REMARK    3  A    between atoms: C_9  and  C_10 
REMARK    4  A    between atoms: C_10  and  N_11 
REMARK    5  A    between atoms: C_10  and  C_19 
REMARK       I    between atoms: N_11  and  C_12 
REMARK    6  A    between atoms: C_12  and  C_13 
REMARK    7  A    between atoms: C_19  and  C_20 
ROOT
HETATM    1  C   UNL     1      44.230 -29.652   1.447  1.00  0.00     0.183 C 
ENDROOT
BRANCH   1   2
HETATM    2  C   UNL     1      43.008 -29.755   2.380  1.00  0.00     0.259 C 
HETATM    3  N   UNL     1      43.169 -30.535   3.503  1.00  0.00    -0.264 N 
HETATM    4  H   UNL     1      44.081 -30.917   3.786  1.00  0.00     0.190 HD
HETATM    5  O   UNL     1      41.922 -29.246   2.089  1.00  0.00    -0.269 OA
BRANCH   3   6
HETATM    6  N   UNL     1      42.155 -30.538   4.471  1.00  0.00    -0.249 N 
HETATM    7  C   UNL     1      41.346 -31.663   4.550  1.00  0.00     0.339 C 
HETATM    8  N   UNL     1      40.364 -31.506   5.506  1.00  0.00    -0.308 N 
HETATM    9  O   UNL     1      41.553 -32.657   3.862  1.00  0.00    -0.245 OA
HETATM   10  H   UNL     1      40.450 -30.687   6.087  1.00  0.00     0.170 HD
HETATM   11  H   UNL     1      41.783 -29.620   4.700  1.00  0.00     0.192 HD
BRANCH   8  12
HETATM   12  C   UNL     1      39.358 -32.427   5.860  1.00  0.00     0.036 A 
HETATM   13  C   UNL     1      38.467 -32.998   4.948  1.00  0.00     0.029 A 
HETATM   14  C   UNL     1      37.497 -33.909   5.378  1.00  0.00     0.002 A 
HETATM   15  C   UNL     1      37.407 -34.255   6.723  1.00  0.00     0.000 A 
HETATM   16  C   UNL     1      38.285 -33.689   7.642  1.00  0.00     0.002 A 
HETATM   17  C   UNL     1      39.254 -32.777   7.213  1.00  0.00     0.029 A 
ENDBRANCH   8  12
ENDBRANCH   3   6
ENDBRANCH   1   2
BRANCH   1  18
HETATM   18  N   UNL     1      45.487 -30.006   2.118  1.00  0.00    -0.343 N 
HETATM   19  C   UNL     1      46.530 -29.138   2.343  1.00  0.00     0.259 C 
HETATM   20  O   UNL     1      46.525 -28.010   1.855  1.00  0.00    -0.267 OA
HETATM   21  H   UNL     1      45.502 -30.874   2.641  1.00  0.00     0.163 HD
BRANCH  19  22
HETATM   22  C   UNL     1      47.633 -29.647   3.144  1.00  0.00     0.072 A 
HETATM   23  S   UNL     1      47.600 -31.196   3.880  1.00  0.00    -0.097 SA
HETATM   24  C   UNL     1      49.167 -30.997   4.535  1.00  0.00     0.050 A 
HETATM   25  C   UNL     1      49.709 -29.773   4.213  1.00  0.00     0.009 A 
HETATM   26  C   UNL     1      48.823 -28.994   3.416  1.00  0.00     0.025 A 
ENDBRANCH  19  22
ENDBRANCH   1  18
BRANCH   1  27
HETATM   27  C   UNL     1      43.957 -30.401   0.132  1.00  0.00     0.076 C 
BRANCH  27  28
HETATM   28  C   UNL     1      44.356 -29.628  -1.090  1.00  0.00    -0.028 A 
HETATM   29  C   UNL     1      44.408 -30.101  -2.441  1.00  0.00    -0.002 A 
HETATM   30  C   UNL     1      44.824 -29.035  -3.240  1.00  0.00     0.042 A 
HETATM   31  C   UNL     1      44.140 -31.339  -3.062  1.00  0.00     0.014 A 
HETATM   32  C   UNL     1      44.978 -29.140  -4.628  1.00  0.00     0.030 A 
HETATM   33  N   UNL     1      45.030 -27.961  -2.408  1.00  0.00    -0.365 N 
HETATM   34  C   UNL     1      44.697 -30.376  -5.219  1.00  0.00     0.002 A 
HETATM   35  C   UNL     1      44.286 -31.461  -4.449  1.00  0.00     0.001 A 
HETATM   36  H   UNL     1      45.346 -27.050  -2.714  1.00  0.00     0.165 HD
HETATM   37  C   UNL     1      44.750 -28.304  -1.115  1.00  0.00     0.096 A 
ENDBRANCH  27  28
ENDBRANCH   1  27
TORSDOF 7
ENDMDL
MODEL 10
REMARK VINA RESULT:      -8.0     16.109     18.219
REMARK  7 active torsions:
REMARK  status: ('A' for Active; 'I' for Inactive)
REMARK    1  A    between atoms: C_4  and  N_5 
REMARK       I    between atoms: N_5  and  C_6 
REMARK       I    between atoms: C_6  and  N_7 
REMARK    2  A    between atoms: N_7  and  N_8 
REMARK       I    between atoms: N_8  and  C_9 
REMARK    3  A    between atoms: C_9  and  C_10 
REMARK    4  A    between atoms: C_10  and  N_11 
REMARK    5  A    between atoms: C_10  and  C_19 
REMARK       I    between atoms: N_11  and  C_12 
REMARK    6  A    between atoms: C_12  and  C_13 
REMARK    7  A    between atoms: C_19  and  C_20 
ROOT
HETATM    1  C   UNL     1      47.596 -29.746   1.570  1.00  0.00     0.183 C 
ENDROOT
BRANCH   1   2
HETATM    2  C   UNL     1      46.252 -29.280   2.161  1.00  0.00     0.259 C 
HETATM    3  N   UNL     1      45.229 -30.202   2.136  1.00  0.00    -0.264 N 
HETATM    4  H   UNL     1      45.376 -31.185   1.872  1.00  0.00     0.190 HD
HETATM    5  O   UNL     1      46.075 -28.120   2.545  1.00  0.00    -0.269 OA
BRANCH   3   6
HETATM    6  N   UNL     1      44.033 -29.899   2.803  1.00  0.00    -0.249 N 
HETATM    7  C   UNL     1      43.430 -30.914   3.533  1.00  0.00     0.339 C 
HETATM    8  N   UNL     1      42.242 -30.491   4.090  1.00  0.00    -0.308 N 
HETATM    9  O   UNL     1      43.956 -32.014   3.666  1.00  0.00    -0.245 OA
HETATM   10  H   UNL     1      42.050 -29.504   4.009  1.00  0.00     0.170 HD
HETATM   11  H   UNL     1      43.469 -29.180   2.359  1.00  0.00     0.192 HD
BRANCH   8  12
HETATM   12  C   UNL     1      41.351 -31.242   4.882  1.00  0.00     0.036 A 
HETATM   13  C   UNL     1      41.537 -31.490   6.244  1.00  0.00     0.029 A 
HETATM   14  C   UNL     1      40.603 -32.243   6.963  1.00  0.00     0.002 A 
HETATM   15  C   UNL     1      39.476 -32.756   6.327  1.00  0.00     0.000 A 
HETATM   16  C   UNL     1      39.283 -32.521   4.968  1.00  0.00     0.002 A 
HETATM   17  C   UNL     1      40.217 -31.770   4.250  1.00  0.00     0.029 A 
ENDBRANCH   8  12
ENDBRANCH   3   6
ENDBRANCH   1   2
BRANCH   1  18
HETATM   18  N   UNL     1      48.421 -30.474   2.541  1.00  0.00    -0.343 N 
HETATM   19  C   UNL     1      49.142 -29.890   3.556  1.00  0.00     0.259 C 
HETATM   20  O   UNL     1      49.249 -28.667   3.626  1.00  0.00    -0.267 OA
HETATM   21  H   UNL     1      48.278 -31.475   2.607  1.00  0.00     0.163 HD
BRANCH  19  22
HETATM   22  C   UNL     1      49.787 -30.795   4.496  1.00  0.00     0.072 A 
HETATM   23  S   UNL     1      48.952 -32.091   5.248  1.00  0.00    -0.097 SA
HETATM   24  C   UNL     1      50.352 -32.600   6.087  1.00  0.00     0.050 A 
HETATM   25  C   UNL     1      51.437 -31.798   5.813  1.00  0.00     0.009 A 
HETATM   26  C   UNL     1      51.109 -30.756   4.900  1.00  0.00     0.025 A 
ENDBRANCH  19  22
ENDBRANCH   1  18
BRANCH   1  27
HETATM   27  C   UNL     1      47.364 -30.471   0.233  1.00  0.00     0.076 C 
BRANCH  27  28
HETATM   28  C   UNL     1      47.059 -29.544  -0.905  1.00  0.00    -0.028 A 
HETATM   29  C   UNL     1      45.974 -29.635  -1.836  1.00  0.00    -0.002 A 
HETATM   30  C   UNL     1      46.083 -28.555  -2.711  1.00  0.00     0.042 A 
HETATM   31  C   UNL     1      44.905 -30.538  -2.016  1.00  0.00     0.014 A 
HETATM   32  C   UNL     1      45.176 -28.325  -3.753  1.00  0.00     0.030 A 
HETATM   33  N   UNL     1      47.197 -27.841  -2.339  1.00  0.00    -0.365 N 
HETATM   34  C   UNL     1      44.122 -29.231  -3.905  1.00  0.00     0.002 A 
HETATM   35  C   UNL     1      43.987 -30.323  -3.051  1.00  0.00     0.001 A 
HETATM   36  H   UNL     1      47.528 -27.008  -2.805  1.00  0.00     0.165 HD
HETATM   37  C   UNL     1      47.790 -28.425  -1.253  1.00  0.00     0.096 A 
ENDBRANCH  27  28
ENDBRANCH   1  27
TORSDOF 7
ENDMDL
