MODEL 1
REMARK VINA RESULT:     -11.0      0.000      0.000
REMARK  6 active torsions:
REMARK  status: ('A' for Active; 'I' for Inactive)
REMARK    1  A    between atoms: C_4  and  C_5 
REMARK    2  A    between atoms: N_7  and  C_8 
REMARK    3  A    between atoms: C_19  and  N_20 
REMARK       I    between atoms: N_20  and  C_21 
REMARK    4  A    between atoms: C_21  and  C_22 
REMARK    5  A    between atoms: C_25  and  S_26 
REMARK    6  A    between atoms: S_26  and  N_27 
ROOT
HETATM    1  C   UNL     1      41.403 -13.552   1.272  1.00  0.00     0.115 A 
HETATM    2  N   UNL     1      41.602 -14.785   1.751  1.00  0.00    -0.148 NA
HETATM    3  N   UNL     1      42.157 -14.574   2.985  1.00  0.00    -0.044 N 
HETATM    4  C   UNL     1      42.283 -13.225   3.286  1.00  0.00     0.152 A 
HETATM    5  C   UNL     1      41.825 -12.555   2.173  1.00  0.00     0.087 A 
ENDROOT
BRANCH   4   6
HETATM    6  N   UNL     1      42.769 -12.763   4.505  1.00  0.00    -0.307 N 
HETATM    7  C   UNL     1      43.747 -11.789   4.585  1.00  0.00     0.257 C 
HETATM    8  O   UNL     1      44.428 -11.375   3.653  1.00  0.00    -0.267 OA
HETATM    9  H   UNL     1      42.413 -13.204   5.352  1.00  0.00     0.170 HD
BRANCH   7  10
HETATM   10  C   UNL     1      43.986 -11.214   5.937  1.00  0.00     0.032 A 
HETATM   11  C   UNL     1      45.206 -11.392   6.605  1.00  0.00     0.018 A 
HETATM   12  C   UNL     1      45.337 -10.987   7.938  1.00  0.00     0.026 A 
HETATM   13  C   UNL     1      44.250 -10.400   8.596  1.00  0.00     0.079 A 
HETATM   14  C   UNL     1      43.038 -10.196   7.930  1.00  0.00     0.026 A 
HETATM   15  C   UNL     1      42.909 -10.606   6.601  1.00  0.00     0.018 A 
BRANCH  13  16
HETATM   16  S   UNL     1      44.366 -10.072  10.342  1.00  0.00     0.260 S 
HETATM   17  O   UNL     1      44.262 -11.334  11.044  1.00  0.00    -0.200 OA
HETATM   18  O   UNL     1      45.517  -9.213  10.524  1.00  0.00    -0.200 OA
BRANCH  16  19
HETATM   19  N   UNL     1      42.964  -9.160  10.666  1.00  0.00    -0.307 N 
HETATM   20  C   UNL     1      41.790  -9.863  11.242  1.00  0.00     0.135 C 
HETATM   21  C   UNL     1      41.884 -10.002  12.759  1.00  0.00     0.021 C 
HETATM   22  C   UNL     1      42.171  -8.667  13.440  1.00  0.00     0.003 C 
HETATM   23  C   UNL     1      43.378  -7.978  12.814  1.00  0.00     0.021 C 
HETATM   24  C   UNL     1      43.202  -7.839  11.306  1.00  0.00     0.135 C 
ENDBRANCH  16  19
ENDBRANCH  13  16
ENDBRANCH   7  10
ENDBRANCH   4   6
BRANCH   3  25
HETATM   25  C   UNL     1      42.540 -15.684   3.764  1.00  0.00     0.732 A 
HETATM   26  N   UNL     1      43.156 -16.720   3.284  1.00  0.00    -0.067 NA
HETATM   27  C   UNL     1      43.420 -17.733   4.183  1.00  0.00     0.065 A 
HETATM   28  C   UNL     1      43.089 -17.694   5.490  1.00  0.00     0.036 A 
HETATM   29  C   UNL     1      44.117 -18.939   3.595  1.00  0.00     0.060 C 
HETATM   30  C   UNL     1      43.329 -18.812   6.463  1.00  0.00     0.046 C 
HETATM   31  C   UNL     1      42.415 -16.478   6.004  1.00  0.00     0.268 A 
HETATM   32  C   UNL     1      43.688 -20.129   5.773  1.00  0.00     0.005 C 
HETATM   33  C   UNL     1      44.686 -19.899   4.645  1.00  0.00     0.006 C 
HETATM   34  O   UNL     1      42.101 -16.348   7.181  1.00  0.00    -0.267 OA
HETATM   35  N   UNL     1      42.171 -15.524   5.069  1.00  0.00    -0.152 N 
HETATM   36  H   UNL     1      41.697 -14.671   5.349  1.00  0.00     0.188 HD
ENDBRANCH   3  25
BRANCH   1  37
HETATM   37  C   UNL     1      40.789 -13.288  -0.063  1.00  0.00     0.105 A 
HETATM   38  O   UNL     1      40.883 -12.100  -0.735  1.00  0.00    -0.320 OA
HETATM   39  C   UNL     1      40.196 -12.237  -1.897  1.00  0.00     0.142 A 
HETATM   40  C   UNL     1      39.654 -13.495  -1.992  1.00  0.00     0.027 A 
HETATM   41  C   UNL     1      40.037 -14.175  -0.809  1.00  0.00     0.041 A 
ENDBRANCH   1  37
TORSDOF 6
ENDMDL
MODEL 2
REMARK VINA RESULT:     -11.0      1.985      5.694
REMARK  6 active torsions:
REMARK  status: ('A' for Active; 'I' for Inactive)
REMARK    1  A    between atoms: C_4  and  C_5 
REMARK    2  A    between atoms: N_7  and  C_8 
REMARK    3  A    between atoms: C_19  and  N_20 
REMARK       I    between atoms: N_20  and  C_21 
REMARK    4  A    between atoms: C_21  and  C_22 
REMARK    5  A    between atoms: C_25  and  S_26 
REMARK    6  A    between atoms: S_26  and  N_27 
ROOT
HETATM    1  C   UNL     1      42.924 -17.225   3.162  1.00  0.00     0.115 A 
HETATM    2  N   UNL     1      42.080 -16.637   2.305  1.00  0.00    -0.148 NA
HETATM    3  N   UNL     1      42.011 -15.343   2.747  1.00  0.00    -0.044 N 
HETATM    4  C   UNL     1      42.817 -15.115   3.853  1.00  0.00     0.152 A 
HETATM    5  C   UNL     1      43.391 -16.333   4.146  1.00  0.00     0.087 A 
ENDROOT
BRANCH   4   6
HETATM    6  N   UNL     1      42.955 -13.865   4.446  1.00  0.00    -0.307 N 
HETATM    7  C   UNL     1      42.353 -13.552   5.651  1.00  0.00     0.257 C 
HETATM    8  O   UNL     1      41.498 -14.219   6.222  1.00  0.00    -0.267 OA
HETATM    9  H   UNL     1      43.482 -13.157   3.936  1.00  0.00     0.170 HD
BRANCH   7  10
HETATM   10  C   UNL     1      42.790 -12.278   6.287  1.00  0.00     0.032 A 
HETATM   11  C   UNL     1      43.974 -12.201   7.034  1.00  0.00     0.018 A 
HETATM   12  C   UNL     1      44.267 -11.040   7.758  1.00  0.00     0.026 A 
HETATM   13  C   UNL     1      43.379  -9.959   7.726  1.00  0.00     0.079 A 
HETATM   14  C   UNL     1      42.209 -10.019   6.964  1.00  0.00     0.026 A 
HETATM   15  C   UNL     1      41.916 -11.181   6.247  1.00  0.00     0.018 A 
BRANCH  13  16
HETATM   16  S   UNL     1      43.663  -8.571   8.804  1.00  0.00     0.260 S 
HETATM   17  O   UNL     1      44.906  -8.796   9.511  1.00  0.00    -0.200 OA
HETATM   18  O   UNL     1      43.469  -7.381   8.003  1.00  0.00    -0.200 OA
BRANCH  16  19
HETATM   19  N   UNL     1      42.383  -8.673   9.924  1.00  0.00    -0.307 N 
HETATM   20  C   UNL     1      42.564  -9.540  11.115  1.00  0.00     0.135 C 
HETATM   21  C   UNL     1      43.310  -8.831  12.242  1.00  0.00     0.021 C 
HETATM   22  C   UNL     1      42.687  -7.479  12.579  1.00  0.00     0.003 C 
HETATM   23  C   UNL     1      42.516  -6.625  11.328  1.00  0.00     0.021 C 
HETATM   24  C   UNL     1      41.731  -7.379  10.261  1.00  0.00     0.135 C 
ENDBRANCH  16  19
ENDBRANCH  13  16
ENDBRANCH   7  10
ENDBRANCH   4   6
BRANCH   3  25
HETATM   25  C   UNL     1      41.158 -14.437   2.085  1.00  0.00     0.732 A 
HETATM   26  N   UNL     1      40.455 -13.535   2.696  1.00  0.00    -0.067 NA
HETATM   27  C   UNL     1      39.643 -12.759   1.894  1.00  0.00     0.065 A 
HETATM   28  C   UNL     1      39.556 -12.883   0.555  1.00  0.00     0.036 A 
HETATM   29  C   UNL     1      38.815 -11.730   2.633  1.00  0.00     0.060 C 
HETATM   30  C   UNL     1      38.640 -12.075  -0.319  1.00  0.00     0.046 C 
HETATM   31  C   UNL     1      40.402 -13.905  -0.108  1.00  0.00     0.268 A 
HETATM   32  C   UNL     1      37.574 -11.323   0.479  1.00  0.00     0.005 C 
HETATM   33  C   UNL     1      38.178 -10.678   1.721  1.00  0.00     0.006 C 
HETATM   34  O   UNL     1      40.405 -14.069  -1.322  1.00  0.00    -0.267 OA
HETATM   35  N   UNL     1      41.167 -14.644   0.735  1.00  0.00    -0.152 N 
HETATM   36  H   UNL     1      41.759 -15.374   0.349  1.00  0.00     0.188 HD
ENDBRANCH   3  25
BRANCH   1  37
HETATM   37  C   UNL     1      43.321 -18.660   3.056  1.00  0.00     0.105 A 
HETATM   38  O   UNL     1      43.846 -19.393   4.084  1.00  0.00    -0.320 OA
HETATM   39  C   UNL     1      44.088 -20.641   3.609  1.00  0.00     0.142 A 
HETATM   40  C   UNL     1      43.729 -20.732   2.286  1.00  0.00     0.027 A 
HETATM   41  C   UNL     1      43.233 -19.454   1.928  1.00  0.00     0.041 A 
ENDBRANCH   1  37
TORSDOF 6
ENDMDL
MODEL 3
REMARK VINA RESULT:     -10.8      1.911      2.623
REMARK  6 active torsions:
REMARK  status: ('A' for Active; 'I' for Inactive)
REMARK    1  A    between atoms: C_4  and  C_5 
REMARK    2  A    between atoms: N_7  and  C_8 
REMARK    3  A    between atoms: C_19  and  N_20 
REMARK       I    between atoms: N_20  and  C_21 
REMARK    4  A    between atoms: C_21  and  C_22 
REMARK    5  A    between atoms: C_25  and  S_26 
REMARK    6  A    between atoms: S_26  and  N_27 
ROOT
HETATM    1  C   UNL     1      39.953 -13.741  -0.116  1.00  0.00     0.115 A 
HETATM    2  N   UNL     1      40.304 -14.812   0.605  1.00  0.00    -0.148 NA
HETATM    3  N   UNL     1      41.030 -14.288   1.641  1.00  0.00    -0.044 N 
HETATM    4  C   UNL     1      41.115 -12.904   1.584  1.00  0.00     0.152 A 
HETATM    5  C   UNL     1      40.445 -12.542   0.435  1.00  0.00     0.087 A 
ENDROOT
BRANCH   4   6
HETATM    6  N   UNL     1      41.755 -12.143   2.556  1.00  0.00    -0.307 N 
HETATM    7  C   UNL     1      41.080 -11.621   3.644  1.00  0.00     0.257 C 
HETATM    8  O   UNL     1      39.863 -11.583   3.784  1.00  0.00    -0.267 OA
HETATM    9  H   UNL     1      42.743 -11.934   2.416  1.00  0.00     0.170 HD
BRANCH   7  10
HETATM   10  C   UNL     1      41.929 -11.050   4.726  1.00  0.00     0.032 A 
HETATM   11  C   UNL     1      43.084 -11.706   5.175  1.00  0.00     0.018 A 
HETATM   12  C   UNL     1      43.761 -11.232   6.303  1.00  0.00     0.026 A 
HETATM   13  C   UNL     1      43.286 -10.098   6.973  1.00  0.00     0.079 A 
HETATM   14  C   UNL     1      42.150  -9.424   6.517  1.00  0.00     0.026 A 
HETATM   15  C   UNL     1      41.472  -9.904   5.394  1.00  0.00     0.018 A 
BRANCH  13  16
HETATM   16  S   UNL     1      44.037  -9.623   8.516  1.00  0.00     0.260 S 
HETATM   17  O   UNL     1      44.822 -10.740   8.997  1.00  0.00    -0.200 OA
HETATM   18  O   UNL     1      44.645  -8.328   8.296  1.00  0.00    -0.200 OA
BRANCH  16  19
HETATM   19  N   UNL     1      42.704  -9.416   9.556  1.00  0.00    -0.307 N 
HETATM   20  C   UNL     1      42.775 -10.017  10.912  1.00  0.00     0.135 C 
HETATM   21  C   UNL     1      43.513  -9.124  11.905  1.00  0.00     0.021 C 
HETATM   22  C   UNL     1      42.964  -7.701  11.914  1.00  0.00     0.003 C 
HETATM   23  C   UNL     1      42.904  -7.126  10.503  1.00  0.00     0.021 C 
HETATM   24  C   UNL     1      42.122  -8.047   9.575  1.00  0.00     0.135 C 
ENDBRANCH  16  19
ENDBRANCH  13  16
ENDBRANCH   7  10
ENDBRANCH   4   6
BRANCH   3  25
HETATM   25  C   UNL     1      41.601 -15.161   2.588  1.00  0.00     0.732 A 
HETATM   26  N   UNL     1      41.651 -14.909   3.860  1.00  0.00    -0.067 NA
HETATM   27  C   UNL     1      42.284 -15.857   4.637  1.00  0.00     0.065 A 
HETATM   28  C   UNL     1      42.824 -16.995   4.158  1.00  0.00     0.036 A 
HETATM   29  C   UNL     1      42.350 -15.529   6.112  1.00  0.00     0.060 C 
HETATM   30  C   UNL     1      43.555 -18.008   4.991  1.00  0.00     0.046 C 
HETATM   31  C   UNL     1      42.716 -17.261   2.703  1.00  0.00     0.268 A 
HETATM   32  C   UNL     1      43.920 -17.480   6.379  1.00  0.00     0.005 C 
HETATM   33  C   UNL     1      42.755 -16.714   6.993  1.00  0.00     0.006 C 
HETATM   34  O   UNL     1      43.156 -18.280   2.187  1.00  0.00    -0.267 OA
HETATM   35  N   UNL     1      42.096 -16.286   1.991  1.00  0.00    -0.152 N 
HETATM   36  H   UNL     1      42.002 -16.395   0.986  1.00  0.00     0.188 HD
ENDBRANCH   3  25
BRANCH   1  37
HETATM   37  C   UNL     1      39.122 -13.831  -1.353  1.00  0.00     0.105 A 
HETATM   38  O   UNL     1      38.002 -13.080  -1.586  1.00  0.00    -0.320 OA
HETATM   39  C   UNL     1      37.516 -13.445  -2.799  1.00  0.00     0.142 A 
HETATM   40  C   UNL     1      38.301 -14.423  -3.359  1.00  0.00     0.027 A 
HETATM   41  C   UNL     1      39.338 -14.673  -2.427  1.00  0.00     0.041 A 
ENDBRANCH   1  37
TORSDOF 6
ENDMDL
MODEL 4
REMARK VINA RESULT:     -10.3      3.117      9.232
REMARK  6 active torsions:
REMARK  status: ('A' for Active; 'I' for Inactive)
REMARK    1  A    between atoms: C_4  and  C_5 
REMARK    2  A    between atoms: N_7  and  C_8 
REMARK    3  A    between atoms: C_19  and  N_20 
REMARK       I    between atoms: N_20  and  C_21 
REMARK    4  A    between atoms: C_21  and  C_22 
REMARK    5  A    between atoms: C_25  and  S_26 
REMARK    6  A    between atoms: S_26  and  N_27 
ROOT
HETATM    1  C   UNL     1      43.567 -11.196   7.715  1.00  0.00     0.115 A 
HETATM    2  N   UNL     1      43.914 -12.449   7.398  1.00  0.00    -0.148 NA
HETATM    3  N   UNL     1      43.260 -12.684   6.219  1.00  0.00    -0.044 N 
HETATM    4  C   UNL     1      42.531 -11.584   5.788  1.00  0.00     0.152 A 
HETATM    5  C   UNL     1      42.700 -10.626   6.763  1.00  0.00     0.087 A 
ENDROOT
BRANCH   4   6
HETATM    6  N   UNL     1      41.828 -11.564   4.588  1.00  0.00    -0.307 N 
HETATM    7  C   UNL     1      40.461 -11.362   4.539  1.00  0.00     0.257 C 
HETATM    8  O   UNL     1      39.697 -11.380   5.498  1.00  0.00    -0.267 OA
HETATM    9  H   UNL     1      42.349 -11.755   3.733  1.00  0.00     0.170 HD
BRANCH   7  10
HETATM   10  C   UNL     1      39.886 -11.112   3.189  1.00  0.00     0.032 A 
HETATM   11  C   UNL     1      38.686 -11.712   2.780  1.00  0.00     0.018 A 
HETATM   12  C   UNL     1      38.264 -11.593   1.451  1.00  0.00     0.026 A 
HETATM   13  C   UNL     1      39.040 -10.868   0.538  1.00  0.00     0.079 A 
HETATM   14  C   UNL     1      40.224 -10.247   0.944  1.00  0.00     0.026 A 
HETATM   15  C   UNL     1      40.646 -10.372   2.269  1.00  0.00     0.018 A 
BRANCH  13  16
HETATM   16  S   UNL     1      38.597 -10.891  -1.186  1.00  0.00     0.260 S 
HETATM   17  O   UNL     1      37.287 -11.495  -1.306  1.00  0.00    -0.200 OA
HETATM   18  O   UNL     1      38.851  -9.560  -1.694  1.00  0.00    -0.200 OA
BRANCH  16  19
HETATM   19  N   UNL     1      39.741 -11.950  -1.872  1.00  0.00    -0.307 N 
HETATM   20  C   UNL     1      40.375 -12.962  -0.989  1.00  0.00     0.135 C 
HETATM   21  C   UNL     1      39.517 -14.214  -0.830  1.00  0.00     0.021 C 
HETATM   22  C   UNL     1      39.085 -14.787  -2.176  1.00  0.00     0.003 C 
HETATM   23  C   UNL     1      38.445 -13.714  -3.051  1.00  0.00     0.021 C 
HETATM   24  C   UNL     1      39.370 -12.512  -3.198  1.00  0.00     0.135 C 
ENDBRANCH  16  19
ENDBRANCH  13  16
ENDBRANCH   7  10
ENDBRANCH   4   6
BRANCH   3  25
HETATM   25  C   UNL     1      43.371 -13.951   5.613  1.00  0.00     0.732 A 
HETATM   26  N   UNL     1      43.113 -14.175   4.362  1.00  0.00    -0.067 NA
HETATM   27  C   UNL     1      43.235 -15.485   3.948  1.00  0.00     0.065 A 
HETATM   28  C   UNL     1      43.607 -16.504   4.749  1.00  0.00     0.036 A 
HETATM   29  C   UNL     1      42.905 -15.725   2.491  1.00  0.00     0.060 C 
HETATM   30  C   UNL     1      43.697 -17.939   4.316  1.00  0.00     0.046 C 
HETATM   31  C   UNL     1      43.926 -16.199   6.164  1.00  0.00     0.268 A 
HETATM   32  C   UNL     1      43.014 -18.195   2.972  1.00  0.00     0.005 C 
HETATM   33  C   UNL     1      43.351 -17.095   1.972  1.00  0.00     0.006 C 
HETATM   34  O   UNL     1      44.295 -17.059   6.955  1.00  0.00    -0.267 OA
HETATM   35  N   UNL     1      43.773 -14.897   6.514  1.00  0.00    -0.152 N 
HETATM   36  H   UNL     1      43.958 -14.620   7.473  1.00  0.00     0.188 HD
ENDBRANCH   3  25
BRANCH   1  37
HETATM   37  C   UNL     1      44.067 -10.497   8.935  1.00  0.00     0.105 A 
HETATM   38  O   UNL     1      45.302 -10.699   9.489  1.00  0.00    -0.320 OA
HETATM   39  C   UNL     1      45.391  -9.902  10.583  1.00  0.00     0.142 A 
HETATM   40  C   UNL     1      44.232  -9.184  10.752  1.00  0.00     0.027 A 
HETATM   41  C   UNL     1      43.377  -9.567   9.689  1.00  0.00     0.041 A 
ENDBRANCH   1  37
TORSDOF 6
ENDMDL
MODEL 5
REMARK VINA RESULT:     -10.3      4.456      9.673
REMARK  6 active torsions:
REMARK  status: ('A' for Active; 'I' for Inactive)
REMARK    1  A    between atoms: C_4  and  C_5 
REMARK    2  A    between atoms: N_7  and  C_8 
REMARK    3  A    between atoms: C_19  and  N_20 
REMARK       I    between atoms: N_20  and  C_21 
REMARK    4  A    between atoms: C_21  and  C_22 
REMARK    5  A    between atoms: C_25  and  S_26 
REMARK    6  A    between atoms: S_26  and  N_27 
ROOT
HETATM    1  C   UNL     1      43.050 -17.444   3.218  1.00  0.00     0.115 A 
HETATM    2  N   UNL     1      42.699 -16.502   4.101  1.00  0.00    -0.148 NA
HETATM    3  N   UNL     1      42.310 -15.447   3.320  1.00  0.00    -0.044 N 
HETATM    4  C   UNL     1      42.395 -15.730   1.964  1.00  0.00     0.152 A 
HETATM    5  C   UNL     1      42.899 -17.010   1.887  1.00  0.00     0.087 A 
ENDROOT
BRANCH   4   6
HETATM    6  N   UNL     1      42.002 -14.833   0.976  1.00  0.00    -0.307 N 
HETATM    7  C   UNL     1      40.703 -14.778   0.507  1.00  0.00     0.257 C 
HETATM    8  O   UNL     1      39.822 -15.600   0.732  1.00  0.00    -0.267 OA
HETATM    9  H   UNL     1      42.723 -14.240   0.565  1.00  0.00     0.170 HD
BRANCH   7  10
HETATM   10  C   UNL     1      40.370 -13.611  -0.356  1.00  0.00     0.032 A 
HETATM   11  C   UNL     1      40.230 -13.743  -1.746  1.00  0.00     0.018 A 
HETATM   12  C   UNL     1      40.088 -12.603  -2.544  1.00  0.00     0.026 A 
HETATM   13  C   UNL     1      40.079 -11.336  -1.949  1.00  0.00     0.079 A 
HETATM   14  C   UNL     1      40.193 -11.197  -0.563  1.00  0.00     0.026 A 
HETATM   15  C   UNL     1      40.341 -12.337   0.230  1.00  0.00     0.018 A 
BRANCH  13  16
HETATM   16  S   UNL     1      40.097  -9.890  -2.988  1.00  0.00     0.260 S 
HETATM   17  O   UNL     1      41.058 -10.109  -4.048  1.00  0.00    -0.200 OA
HETATM   18  O   UNL     1      38.715  -9.583  -3.291  1.00  0.00    -0.200 OA
BRANCH  16  19
HETATM   19  N   UNL     1      40.699  -8.673  -1.959  1.00  0.00    -0.307 N 
HETATM   20  C   UNL     1      42.164  -8.429  -1.948  1.00  0.00     0.135 C 
HETATM   21  C   UNL     1      42.607  -7.502  -3.077  1.00  0.00     0.021 C 
HETATM   22  C   UNL     1      41.789  -6.214  -3.114  1.00  0.00     0.003 C 
HETATM   23  C   UNL     1      40.294  -6.511  -3.119  1.00  0.00     0.021 C 
HETATM   24  C   UNL     1      39.916  -7.409  -1.947  1.00  0.00     0.135 C 
ENDBRANCH  16  19
ENDBRANCH  13  16
ENDBRANCH   7  10
ENDBRANCH   4   6
BRANCH   3  25
HETATM   25  C   UNL     1      41.911 -14.246   3.940  1.00  0.00     0.732 A 
HETATM   26  N   UNL     1      42.372 -13.079   3.609  1.00  0.00    -0.067 NA
HETATM   27  C   UNL     1      41.900 -12.014   4.349  1.00  0.00     0.065 A 
HETATM   28  C   UNL     1      41.009 -12.123   5.355  1.00  0.00     0.036 A 
HETATM   29  C   UNL     1      42.470 -10.668   3.961  1.00  0.00     0.060 C 
HETATM   30  C   UNL     1      40.528 -10.976   6.195  1.00  0.00     0.046 C 
HETATM   31  C   UNL     1      40.482 -13.470   5.678  1.00  0.00     0.268 A 
HETATM   32  C   UNL     1      41.383  -9.719   6.025  1.00  0.00     0.005 C 
HETATM   33  C   UNL     1      41.712  -9.479   4.556  1.00  0.00     0.006 C 
HETATM   34  O   UNL     1      39.652 -13.658   6.559  1.00  0.00    -0.267 OA
HETATM   35  N   UNL     1      40.994 -14.477   4.926  1.00  0.00    -0.152 N 
HETATM   36  H   UNL     1      40.689 -15.429   5.105  1.00  0.00     0.188 HD
ENDBRANCH   3  25
BRANCH   1  37
HETATM   37  C   UNL     1      43.531 -18.798   3.622  1.00  0.00     0.105 A 
HETATM   38  O   UNL     1      44.000 -19.111   4.868  1.00  0.00    -0.320 OA
HETATM   39  C   UNL     1      44.350 -20.422   4.853  1.00  0.00     0.142 A 
HETATM   40  C   UNL     1      44.116 -20.968   3.614  1.00  0.00     0.027 A 
HETATM   41  C   UNL     1      43.587 -19.921   2.819  1.00  0.00     0.041 A 
ENDBRANCH   1  37
TORSDOF 6
ENDMDL
MODEL 6
REMARK VINA RESULT:     -10.3      1.963      5.730
REMARK  6 active torsions:
REMARK  status: ('A' for Active; 'I' for Inactive)
REMARK    1  A    between atoms: C_4  and  C_5 
REMARK    2  A    between atoms: N_7  and  C_8 
REMARK    3  A    between atoms: C_19  and  N_20 
REMARK       I    between atoms: N_20  and  C_21 
REMARK    4  A    between atoms: C_21  and  C_22 
REMARK    5  A    between atoms: C_25  and  S_26 
REMARK    6  A    between atoms: S_26  and  N_27 
ROOT
HETATM    1  C   UNL     1      43.079 -17.033   2.941  1.00  0.00     0.115 A 
HETATM    2  N   UNL     1      42.512 -16.324   1.958  1.00  0.00    -0.148 NA
HETATM    3  N   UNL     1      42.486 -15.046   2.446  1.00  0.00    -0.044 N 
HETATM    4  C   UNL     1      43.049 -14.949   3.711  1.00  0.00     0.152 A 
HETATM    5  C   UNL     1      43.411 -16.234   4.051  1.00  0.00     0.087 A 
ENDROOT
BRANCH   4   6
HETATM    6  N   UNL     1      43.186 -13.743   4.390  1.00  0.00    -0.307 N 
HETATM    7  C   UNL     1      42.383 -13.408   5.465  1.00  0.00     0.257 C 
HETATM    8  O   UNL     1      41.366 -13.998   5.813  1.00  0.00    -0.267 OA
HETATM    9  H   UNL     1      43.875 -13.079   4.037  1.00  0.00     0.170 HD
BRANCH   7  10
HETATM   10  C   UNL     1      42.805 -12.213   6.247  1.00  0.00     0.032 A 
HETATM   11  C   UNL     1      43.883 -12.267   7.143  1.00  0.00     0.018 A 
HETATM   12  C   UNL     1      44.144 -11.180   7.984  1.00  0.00     0.026 A 
HETATM   13  C   UNL     1      43.331 -10.042   7.923  1.00  0.00     0.079 A 
HETATM   14  C   UNL     1      42.270  -9.972   7.016  1.00  0.00     0.026 A 
HETATM   15  C   UNL     1      42.008 -11.060   6.180  1.00  0.00     0.018 A 
BRANCH  13  16
HETATM   16  S   UNL     1      43.550  -8.753   9.131  1.00  0.00     0.260 S 
HETATM   17  O   UNL     1      44.939  -8.747   9.536  1.00  0.00    -0.200 OA
HETATM   18  O   UNL     1      42.930  -7.565   8.583  1.00  0.00    -0.200 OA
BRANCH  16  19
HETATM   19  N   UNL     1      42.609  -9.284  10.448  1.00  0.00    -0.307 N 
HETATM   20  C   UNL     1      43.290  -9.508  11.748  1.00  0.00     0.135 C 
HETATM   21  C   UNL     1      43.441  -8.221  12.554  1.00  0.00     0.021 C 
HETATM   22  C   UNL     1      42.118  -7.474  12.696  1.00  0.00     0.003 C 
HETATM   23  C   UNL     1      41.453  -7.272  11.340  1.00  0.00     0.021 C 
HETATM   24  C   UNL     1      41.298  -8.599  10.607  1.00  0.00     0.135 C 
ENDBRANCH  16  19
ENDBRANCH  13  16
ENDBRANCH   7  10
ENDBRANCH   4   6
BRANCH   3  25
HETATM   25  C   UNL     1      41.901 -14.026   1.669  1.00  0.00     0.732 A 
HETATM   26  N   UNL     1      42.053 -12.761   1.912  1.00  0.00    -0.067 NA
HETATM   27  C   UNL     1      41.375 -11.901   1.073  1.00  0.00     0.065 A 
HETATM   28  C   UNL     1      40.599 -12.298   0.044  1.00  0.00     0.036 A 
HETATM   29  C   UNL     1      41.549 -10.433   1.390  1.00  0.00     0.060 C 
HETATM   30  C   UNL     1      39.820 -11.371  -0.843  1.00  0.00     0.046 C 
HETATM   31  C   UNL     1      40.478 -13.752  -0.219  1.00  0.00     0.268 A 
HETATM   32  C   UNL     1      39.724  -9.953  -0.278  1.00  0.00     0.005 C 
HETATM   33  C   UNL     1      41.067  -9.497   0.278  1.00  0.00     0.006 C 
HETATM   34  O   UNL     1      39.815 -14.200  -1.146  1.00  0.00    -0.267 OA
HETATM   35  N   UNL     1      41.157 -14.546   0.648  1.00  0.00    -0.152 N 
HETATM   36  H   UNL     1      41.104 -15.554   0.537  1.00  0.00     0.188 HD
ENDBRANCH   3  25
BRANCH   1  37
HETATM   37  C   UNL     1      43.333 -18.501   2.841  1.00  0.00     0.105 A 
HETATM   38  O   UNL     1      42.943 -19.283   1.789  1.00  0.00    -0.320 OA
HETATM   39  C   UNL     1      43.339 -20.552   2.059  1.00  0.00     0.142 A 
HETATM   40  C   UNL     1      43.981 -20.610   3.272  1.00  0.00     0.027 A 
HETATM   41  C   UNL     1      43.979 -19.286   3.778  1.00  0.00     0.041 A 
ENDBRANCH   1  37
TORSDOF 6
ENDMDL
MODEL 7
REMARK VINA RESULT:     -10.1      4.021      9.966
REMARK  6 active torsions:
REMARK  status: ('A' for Active; 'I' for Inactive)
REMARK    1  A    between atoms: C_4  and  C_5 
REMARK    2  A    between atoms: N_7  and  C_8 
REMARK    3  A    between atoms: C_19  and  N_20 
REMARK       I    between atoms: N_20  and  C_21 
REMARK    4  A    between atoms: C_21  and  C_22 
REMARK    5  A    between atoms: C_25  and  S_26 
REMARK    6  A    between atoms: S_26  and  N_27 
ROOT
HETATM    1  C   UNL     1      43.220 -17.576   3.488  1.00  0.00     0.115 A 
HETATM    2  N   UNL     1      43.104 -16.558   4.350  1.00  0.00    -0.148 NA
HETATM    3  N   UNL     1      42.672 -15.517   3.573  1.00  0.00    -0.044 N 
HETATM    4  C   UNL     1      42.496 -15.881   2.246  1.00  0.00     0.152 A 
HETATM    5  C   UNL     1      42.876 -17.204   2.174  1.00  0.00     0.087 A 
ENDROOT
BRANCH   4   6
HETATM    6  N   UNL     1      42.011 -15.009   1.277  1.00  0.00    -0.307 N 
HETATM    7  C   UNL     1      40.697 -15.040   0.850  1.00  0.00     0.257 C 
HETATM    8  O   UNL     1      39.882 -15.922   1.097  1.00  0.00    -0.267 OA
HETATM    9  H   UNL     1      42.676 -14.366   0.847  1.00  0.00     0.170 HD
BRANCH   7  10
HETATM   10  C   UNL     1      40.257 -13.895   0.006  1.00  0.00     0.032 A 
HETATM   11  C   UNL     1      40.437 -12.567   0.421  1.00  0.00     0.018 A 
HETATM   12  C   UNL     1      39.862 -11.524  -0.313  1.00  0.00     0.026 A 
HETATM   13  C   UNL     1      39.115 -11.811  -1.461  1.00  0.00     0.079 A 
HETATM   14  C   UNL     1      38.952 -13.130  -1.894  1.00  0.00     0.026 A 
HETATM   15  C   UNL     1      39.523 -14.170  -1.157  1.00  0.00     0.018 A 
BRANCH  13  16
HETATM   16  S   UNL     1      38.227 -10.497  -2.270  1.00  0.00     0.260 S 
HETATM   17  O   UNL     1      36.937 -11.011  -2.678  1.00  0.00    -0.200 OA
HETATM   18  O   UNL     1      38.326  -9.341  -1.405  1.00  0.00    -0.200 OA
BRANCH  16  19
HETATM   19  N   UNL     1      39.153 -10.197  -3.667  1.00  0.00    -0.307 N 
HETATM   20  C   UNL     1      38.766  -9.052  -4.530  1.00  0.00     0.135 C 
HETATM   21  C   UNL     1      39.340  -7.729  -4.033  1.00  0.00     0.021 C 
HETATM   22  C   UNL     1      40.845  -7.812  -3.794  1.00  0.00     0.003 C 
HETATM   23  C   UNL     1      41.197  -9.002  -2.909  1.00  0.00     0.021 C 
HETATM   24  C   UNL     1      40.626 -10.293  -3.484  1.00  0.00     0.135 C 
ENDBRANCH  16  19
ENDBRANCH  13  16
ENDBRANCH   7  10
ENDBRANCH   4   6
BRANCH   3  25
HETATM   25  C   UNL     1      42.484 -14.252   4.165  1.00  0.00     0.732 A 
HETATM   26  N   UNL     1      41.662 -13.359   3.706  1.00  0.00    -0.067 NA
HETATM   27  C   UNL     1      41.636 -12.160   4.387  1.00  0.00     0.065 A 
HETATM   28  C   UNL     1      42.387 -11.885   5.472  1.00  0.00     0.036 A 
HETATM   29  C   UNL     1      40.688 -11.126   3.819  1.00  0.00     0.060 C 
HETATM   30  C   UNL     1      42.398 -10.566   6.190  1.00  0.00     0.046 C 
HETATM   31  C   UNL     1      43.289 -12.945   5.984  1.00  0.00     0.268 A 
HETATM   32  C   UNL     1      41.726  -9.451   5.388  1.00  0.00     0.005 C 
HETATM   33  C   UNL     1      40.429  -9.942   4.755  1.00  0.00     0.006 C 
HETATM   34  O   UNL     1      43.988 -12.791   6.977  1.00  0.00    -0.267 OA
HETATM   35  N   UNL     1      43.280 -14.095   5.264  1.00  0.00    -0.152 N 
HETATM   36  H   UNL     1      43.887 -14.858   5.548  1.00  0.00     0.188 HD
ENDBRANCH   3  25
BRANCH   1  37
HETATM   37  C   UNL     1      43.653 -18.943   3.900  1.00  0.00     0.105 A 
HETATM   38  O   UNL     1      43.693 -20.025   3.063  1.00  0.00    -0.320 OA
HETATM   39  C   UNL     1      44.125 -21.085   3.792  1.00  0.00     0.142 A 
HETATM   40  C   UNL     1      44.366 -20.711   5.092  1.00  0.00     0.027 A 
HETATM   41  C   UNL     1      44.063 -19.329   5.162  1.00  0.00     0.041 A 
ENDBRANCH   1  37
TORSDOF 6
ENDMDL
MODEL 8
REMARK VINA RESULT:      -9.9      2.719      5.637
REMARK  6 active torsions:
REMARK  status: ('A' for Active; 'I' for Inactive)
REMARK    1  A    between atoms: C_4  and  C_5 
REMARK    2  A    between atoms: N_7  and  C_8 
REMARK    3  A    between atoms: C_19  and  N_20 
REMARK       I    between atoms: N_20  and  C_21 
REMARK    4  A    between atoms: C_21  and  C_22 
REMARK    5  A    between atoms: C_25  and  S_26 
REMARK    6  A    between atoms: S_26  and  N_27 
ROOT
HETATM    1  C   UNL     1      43.118 -15.782   4.898  1.00  0.00     0.115 A 
HETATM    2  N   UNL     1      42.205 -14.998   4.315  1.00  0.00    -0.148 NA
HETATM    3  N   UNL     1      42.135 -13.906   5.137  1.00  0.00    -0.044 N 
HETATM    4  C   UNL     1      43.010 -13.992   6.211  1.00  0.00     0.152 A 
HETATM    5  C   UNL     1      43.631 -15.215   6.081  1.00  0.00     0.087 A 
ENDROOT
BRANCH   4   6
HETATM    6  N   UNL     1      43.158 -12.979   7.152  1.00  0.00    -0.307 N 
HETATM    7  C   UNL     1      44.015 -11.911   6.955  1.00  0.00     0.257 C 
HETATM    8  O   UNL     1      44.864 -11.824   6.075  1.00  0.00    -0.267 OA
HETATM    9  H   UNL     1      42.646 -13.071   8.028  1.00  0.00     0.170 HD
BRANCH   7  10
HETATM   10  C   UNL     1      43.883 -10.783   7.918  1.00  0.00     0.032 A 
HETATM   11  C   UNL     1      44.548 -10.793   9.153  1.00  0.00     0.018 A 
HETATM   12  C   UNL     1      44.269  -9.803  10.102  1.00  0.00     0.026 A 
HETATM   13  C   UNL     1      43.333  -8.804   9.810  1.00  0.00     0.079 A 
HETATM   14  C   UNL     1      42.685  -8.774   8.572  1.00  0.00     0.026 A 
HETATM   15  C   UNL     1      42.961  -9.767   7.629  1.00  0.00     0.018 A 
BRANCH  13  16
HETATM   16  S   UNL     1      42.843  -7.672  11.094  1.00  0.00     0.260 S 
HETATM   17  O   UNL     1      43.616  -7.975  12.279  1.00  0.00    -0.200 OA
HETATM   18  O   UNL     1      42.869  -6.349  10.508  1.00  0.00    -0.200 OA
BRANCH  16  19
HETATM   19  N   UNL     1      41.219  -8.092  11.390  1.00  0.00    -0.307 N 
HETATM   20  C   UNL     1      40.876  -9.533  11.487  1.00  0.00     0.135 C 
HETATM   21  C   UNL     1      41.131 -10.098  12.881  1.00  0.00     0.021 C 
HETATM   22  C   UNL     1      40.474  -9.256  13.970  1.00  0.00     0.003 C 
HETATM   23  C   UNL     1      40.849  -7.785  13.829  1.00  0.00     0.021 C 
HETATM   24  C   UNL     1      40.533  -7.277  12.427  1.00  0.00     0.135 C 
ENDBRANCH  16  19
ENDBRANCH  13  16
ENDBRANCH   7  10
ENDBRANCH   4   6
BRANCH   3  25
HETATM   25  C   UNL     1      41.218 -12.879   4.837  1.00  0.00     0.732 A 
HETATM   26  N   UNL     1      41.230 -12.205   3.728  1.00  0.00    -0.067 NA
HETATM   27  C   UNL     1      40.284 -11.208   3.619  1.00  0.00     0.065 A 
HETATM   28  C   UNL     1      39.373 -10.917   4.570  1.00  0.00     0.036 A 
HETATM   29  C   UNL     1      40.334 -10.421   2.328  1.00  0.00     0.060 C 
HETATM   30  C   UNL     1      38.372  -9.802   4.479  1.00  0.00     0.046 C 
HETATM   31  C   UNL     1      39.372 -11.732   5.809  1.00  0.00     0.268 A 
HETATM   32  C   UNL     1      38.686  -8.816   3.353  1.00  0.00     0.005 C 
HETATM   33  C   UNL     1      39.098  -9.552   2.084  1.00  0.00     0.006 C 
HETATM   34  O   UNL     1      38.566 -11.554   6.713  1.00  0.00    -0.267 OA
HETATM   35  N   UNL     1      40.335 -12.687   5.861  1.00  0.00    -0.152 N 
HETATM   36  H   UNL     1      40.402 -13.273   6.689  1.00  0.00     0.188 HD
ENDBRANCH   3  25
BRANCH   1  37
HETATM   37  C   UNL     1      43.541 -17.097   4.333  1.00  0.00     0.105 A 
HETATM   38  O   UNL     1      44.264 -18.036   5.017  1.00  0.00    -0.320 OA
HETATM   39  C   UNL     1      44.463 -19.085   4.179  1.00  0.00     0.142 A 
HETATM   40  C   UNL     1      43.881 -18.843   2.958  1.00  0.00     0.027 A 
HETATM   41  C   UNL     1      43.285 -17.561   3.056  1.00  0.00     0.041 A 
ENDBRANCH   1  37
TORSDOF 6
ENDMDL
MODEL 9
REMARK VINA RESULT:      -9.7      2.486      3.367
REMARK  6 active torsions:
REMARK  status: ('A' for Active; 'I' for Inactive)
REMARK    1  A    between atoms: C_4  and  C_5 
REMARK    2  A    between atoms: N_7  and  C_8 
REMARK    3  A    between atoms: C_19  and  N_20 
REMARK       I    between atoms: N_20  and  C_21 
REMARK    4  A    between atoms: C_21  and  C_22 
REMARK    5  A    between atoms: C_25  and  S_26 
REMARK    6  A    between atoms: S_26  and  N_27 
ROOT
HETATM    1  C   UNL     1      39.085 -12.307   0.937  1.00  0.00     0.115 A 
HETATM    2  N   UNL     1      39.801 -13.416   1.156  1.00  0.00    -0.148 NA
HETATM    3  N   UNL     1      40.206 -13.294   2.459  1.00  0.00    -0.044 N 
HETATM    4  C   UNL     1      39.730 -12.136   3.057  1.00  0.00     0.152 A 
HETATM    5  C   UNL     1      39.027 -11.476   2.072  1.00  0.00     0.087 A 
ENDROOT
BRANCH   4   6
HETATM    6  N   UNL     1      39.964 -11.820   4.391  1.00  0.00    -0.307 N 
HETATM    7  C   UNL     1      40.932 -10.910   4.774  1.00  0.00     0.257 C 
HETATM    8  O   UNL     1      41.804 -10.443   4.051  1.00  0.00    -0.267 OA
HETATM    9  H   UNL     1      39.425 -12.324   5.095  1.00  0.00     0.170 HD
BRANCH   7  10
HETATM   10  C   UNL     1      40.898 -10.484   6.200  1.00  0.00     0.032 A 
HETATM   11  C   UNL     1      39.689 -10.355   6.899  1.00  0.00     0.018 A 
HETATM   12  C   UNL     1      39.680  -9.790   8.178  1.00  0.00     0.026 A 
HETATM   13  C   UNL     1      40.881  -9.363   8.758  1.00  0.00     0.079 A 
HETATM   14  C   UNL     1      42.093  -9.511   8.078  1.00  0.00     0.026 A 
HETATM   15  C   UNL     1      42.098 -10.070   6.798  1.00  0.00     0.018 A 
BRANCH  13  16
HETATM   16  S   UNL     1      40.831  -8.469  10.297  1.00  0.00     0.260 S 
HETATM   17  O   UNL     1      41.589  -7.247  10.132  1.00  0.00    -0.200 OA
HETATM   18  O   UNL     1      39.444  -8.433  10.707  1.00  0.00    -0.200 OA
BRANCH  16  19
HETATM   19  N   UNL     1      41.678  -9.485  11.370  1.00  0.00    -0.307 N 
HETATM   20  C   UNL     1      43.084  -9.139  11.697  1.00  0.00     0.135 C 
HETATM   21  C   UNL     1      43.183  -8.106  12.816  1.00  0.00     0.021 C 
HETATM   22  C   UNL     1      42.369  -8.509  14.042  1.00  0.00     0.003 C 
HETATM   23  C   UNL     1      40.936  -8.860  13.659  1.00  0.00     0.021 C 
HETATM   24  C   UNL     1      40.911  -9.922  12.566  1.00  0.00     0.135 C 
ENDBRANCH  16  19
ENDBRANCH  13  16
ENDBRANCH   7  10
ENDBRANCH   4   6
BRANCH   3  25
HETATM   25  C   UNL     1      41.034 -14.289   3.015  1.00  0.00     0.732 A 
HETATM   26  N   UNL     1      41.060 -14.579   4.279  1.00  0.00    -0.067 NA
HETATM   27  C   UNL     1      41.962 -15.553   4.655  1.00  0.00     0.065 A 
HETATM   28  C   UNL     1      42.780 -16.201   3.802  1.00  0.00     0.036 A 
HETATM   29  C   UNL     1      41.989 -15.856   6.137  1.00  0.00     0.060 C 
HETATM   30  C   UNL     1      43.797 -17.227   4.211  1.00  0.00     0.046 C 
HETATM   31  C   UNL     1      42.696 -15.863   2.361  1.00  0.00     0.268 A 
HETATM   32  C   UNL     1      44.052 -17.239   5.719  1.00  0.00     0.005 C 
HETATM   33  C   UNL     1      42.743 -17.140   6.493  1.00  0.00     0.006 C 
HETATM   34  O   UNL     1      43.384 -16.419   1.514  1.00  0.00    -0.267 OA
HETATM   35  N   UNL     1      41.801 -14.889   2.057  1.00  0.00    -0.152 N 
HETATM   36  H   UNL     1      41.704 -14.595   1.089  1.00  0.00     0.188 HD
ENDBRANCH   3  25
BRANCH   1  37
HETATM   37  C   UNL     1      38.419 -12.015  -0.366  1.00  0.00     0.105 A 
HETATM   38  O   UNL     1      38.262 -12.926  -1.375  1.00  0.00    -0.320 OA
HETATM   39  C   UNL     1      37.626 -12.296  -2.395  1.00  0.00     0.142 A 
HETATM   40  C   UNL     1      37.367 -10.987  -2.066  1.00  0.00     0.027 A 
HETATM   41  C   UNL     1      37.877 -10.805  -0.757  1.00  0.00     0.041 A 
ENDBRANCH   1  37
TORSDOF 6
ENDMDL
MODEL 10
REMARK VINA RESULT:      -9.3      4.857      9.893
REMARK  6 active torsions:
REMARK  status: ('A' for Active; 'I' for Inactive)
REMARK    1  A    between atoms: C_4  and  C_5 
REMARK    2  A    between atoms: N_7  and  C_8 
REMARK    3  A    between atoms: C_19  and  N_20 
REMARK       I    between atoms: N_20  and  C_21 
REMARK    4  A    between atoms: C_21  and  C_22 
REMARK    5  A    between atoms: C_25  and  S_26 
REMARK    6  A    between atoms: S_26  and  N_27 
ROOT
HETATM    1  C   UNL     1      37.995  -6.337   7.152  1.00  0.00     0.115 A 
HETATM    2  N   UNL     1      38.743  -6.560   8.239  1.00  0.00    -0.148 NA
HETATM    3  N   UNL     1      39.407  -7.721   7.949  1.00  0.00    -0.044 N 
HETATM    4  C   UNL     1      39.098  -8.209   6.687  1.00  0.00     0.152 A 
HETATM    5  C   UNL     1      38.164  -7.336   6.174  1.00  0.00     0.087 A 
ENDROOT
BRANCH   4   6
HETATM    6  N   UNL     1      39.690  -9.347   6.148  1.00  0.00    -0.307 N 
HETATM    7  C   UNL     1      39.176 -10.613   6.359  1.00  0.00     0.257 C 
HETATM    8  O   UNL     1      38.307 -10.911   7.170  1.00  0.00    -0.267 OA
HETATM    9  H   UNL     1      40.556  -9.224   5.625  1.00  0.00     0.170 HD
BRANCH   7  10
HETATM   10  C   UNL     1      39.756 -11.699   5.521  1.00  0.00     0.032 A 
HETATM   11  C   UNL     1      39.810 -11.598   4.123  1.00  0.00     0.018 A 
HETATM   12  C   UNL     1      40.201 -12.702   3.359  1.00  0.00     0.026 A 
HETATM   13  C   UNL     1      40.543 -13.901   3.995  1.00  0.00     0.079 A 
HETATM   14  C   UNL     1      40.516 -14.003   5.388  1.00  0.00     0.026 A 
HETATM   15  C   UNL     1      40.119 -12.900   6.149  1.00  0.00     0.018 A 
BRANCH  13  16
HETATM   16  S   UNL     1      40.846 -15.351   3.007  1.00  0.00     0.260 S 
HETATM   17  O   UNL     1      40.308 -16.496   3.710  1.00  0.00    -0.200 OA
HETATM   18  O   UNL     1      40.410 -15.032   1.664  1.00  0.00    -0.200 OA
BRANCH  16  19
HETATM   19  N   UNL     1      42.545 -15.475   2.999  1.00  0.00    -0.307 N 
HETATM   20  C   UNL     1      43.229 -15.775   4.283  1.00  0.00     0.135 C 
HETATM   21  C   UNL     1      43.259 -17.270   4.590  1.00  0.00     0.021 C 
HETATM   22  C   UNL     1      43.805 -18.084   3.420  1.00  0.00     0.003 C 
HETATM   23  C   UNL     1      43.078 -17.741   2.125  1.00  0.00     0.021 C 
HETATM   24  C   UNL     1      43.119 -16.240   1.861  1.00  0.00     0.135 C 
ENDBRANCH  16  19
ENDBRANCH  13  16
ENDBRANCH   7  10
ENDBRANCH   4   6
BRANCH   3  25
HETATM   25  C   UNL     1      40.267  -8.279   8.916  1.00  0.00     0.732 A 
HETATM   26  N   UNL     1      41.510  -8.571   8.690  1.00  0.00    -0.067 NA
HETATM   27  C   UNL     1      42.193  -9.149   9.740  1.00  0.00     0.065 A 
HETATM   28  C   UNL     1      41.654  -9.407  10.948  1.00  0.00     0.036 A 
HETATM   29  C   UNL     1      43.634  -9.502   9.444  1.00  0.00     0.060 C 
HETATM   30  C   UNL     1      42.377 -10.079  12.079  1.00  0.00     0.046 C 
HETATM   31  C   UNL     1      40.239  -9.027  11.176  1.00  0.00     0.268 A 
HETATM   32  C   UNL     1      43.681 -10.742  11.635  1.00  0.00     0.005 C 
HETATM   33  C   UNL     1      44.460  -9.835  10.690  1.00  0.00     0.006 C 
HETATM   34  O   UNL     1      39.676  -9.202  12.249  1.00  0.00    -0.267 OA
HETATM   35  N   UNL     1      39.618  -8.476  10.102  1.00  0.00    -0.152 N 
HETATM   36  H   UNL     1      38.641  -8.208  10.183  1.00  0.00     0.188 HD
ENDBRANCH   3  25
BRANCH   1  37
HETATM   37  C   UNL     1      37.103  -5.148   7.009  1.00  0.00     0.105 A 
HETATM   38  O   UNL     1      36.959  -4.173   7.957  1.00  0.00    -0.320 OA
HETATM   39  C   UNL     1      36.064  -3.272   7.479  1.00  0.00     0.142 A 
HETATM   40  C   UNL     1      35.622  -3.646   6.233  1.00  0.00     0.027 A 
HETATM   41  C   UNL     1      36.293  -4.857   5.929  1.00  0.00     0.041 A 
ENDBRANCH   1  37
TORSDOF 6
ENDMDL
