MODEL 1
REMARK VINA RESULT:      -9.2      0.000      0.000
REMARK  7 active torsions:
REMARK  status: ('A' for Active; 'I' for Inactive)
REMARK    1  A    between atoms: C_2  and  N_3 
REMARK    2  A    between atoms: C_5  and  C_6 
REMARK    3  A    between atoms: C_6  and  N_7 
REMARK       I    between atoms: N_7  and  C_8 
REMARK    4  A    between atoms: C_8  and  C_9 
REMARK    5  A    between atoms: N_15  and  C_16 
REMARK    6  A    between atoms: C_16  and  C_17 
REMARK       I    between atoms: C_17  and  N_18 
REMARK    7  A    between atoms: N_18  and  C_19 
ROOT
HETATM    1  C   UNL     1      42.518 -10.142   7.124  1.00  0.00     0.081 A 
HETATM    2  S   UNL     1      40.867  -9.926   6.708  1.00  0.00    -0.063 SA
HETATM    3  C   UNL     1      41.014 -10.863   5.302  1.00  0.00     0.116 A 
HETATM    4  C   UNL     1      42.299 -11.320   5.118  1.00  0.00     0.075 A 
HETATM    5  C   UNL     1      42.535 -12.202   3.979  1.00  0.00     0.262 A 
HETATM    6  O   UNL     1      43.635 -12.683   3.724  1.00  0.00    -0.267 OA
HETATM    7  N   UNL     1      41.397 -12.467   3.220  1.00  0.00    -0.299 N 
HETATM    8  C   UNL     1      40.168 -11.923   3.540  1.00  0.00     0.214 A 
HETATM    9  N   UNL     1      39.935 -11.116   4.524  1.00  0.00    -0.235 NA
HETATM   10  C   UNL     1      43.208 -10.854   6.144  1.00  0.00    -0.021 A 
HETATM   11  C   UNL     1      44.673 -11.164   6.193  1.00  0.00     0.051 C 
ENDROOT
BRANCH   1  12
HETATM   12  C   UNL     1      43.026  -9.593   8.378  1.00  0.00     0.259 C 
HETATM   13  N   UNL     1      42.422 -10.068   9.527  1.00  0.00    -0.354 N 
HETATM   14  H   UNL     1      41.734 -10.803   9.373  1.00  0.00     0.162 HD
HETATM   15  O   UNL     1      43.921  -8.751   8.450  1.00  0.00    -0.267 OA
BRANCH  13  16
HETATM   16  C   UNL     1      42.893  -9.907  10.900  1.00  0.00     0.156 C 
BRANCH  16  17
HETATM   17  C   UNL     1      42.462  -8.652  11.680  1.00  0.00     0.206 C 
HETATM   18  N   UNL     1      41.156  -8.769  12.455  1.00  0.00    -0.066 N 
HETATM   19  H   UNL     1      40.430  -8.659  11.715  1.00  0.00     0.280 HD
HETATM   20  C   UNL     1      41.155  -7.561  13.368  1.00  0.00     0.235 C 
HETATM   21  C   UNL     1      42.620  -7.154  13.514  1.00  0.00     0.030 C 
HETATM   22  C   UNL     1      43.431  -8.191  12.751  1.00  0.00     0.036 C 
BRANCH  18  23
HETATM   23  C   UNL     1      40.881 -10.066  13.171  1.00  0.00     0.231 C 
HETATM   24  C   UNL     1      39.495 -10.576  12.812  1.00  0.00     0.034 C 
ENDBRANCH  18  23
ENDBRANCH  16  17
ENDBRANCH  13  16
ENDBRANCH   1  12
BRANCH   7  25
HETATM   25  C   UNL     1      41.483 -13.493   2.193  1.00  0.00     0.236 C 
BRANCH  25  26
HETATM   26  C   UNL     1      41.563 -14.870   2.867  1.00  0.00     0.240 C 
HETATM   27  N   UNL     1      42.791 -15.488   2.681  1.00  0.00    -0.326 N 
HETATM   28  H   UNL     1      43.475 -15.008   2.106  1.00  0.00     0.169 HD
HETATM   29  O   UNL     1      40.596 -15.353   3.450  1.00  0.00    -0.271 OA
BRANCH  27  30
HETATM   30  C   UNL     1      43.195 -16.743   3.187  1.00  0.00     0.036 A 
HETATM   31  C   UNL     1      43.294 -17.903   2.415  1.00  0.00     0.053 A 
HETATM   32  C   UNL     1      43.696 -19.113   2.996  1.00  0.00     0.042 A 
HETATM   33 CL   UNL     1      43.774 -20.508   1.976  1.00  0.00    -0.084 Cl
HETATM   34  C   UNL     1      44.014 -19.187   4.359  1.00  0.00    -0.040 A 
HETATM   35  C   UNL     1      44.444 -20.472   5.008  1.00  0.00     0.050 C 
HETATM   36  C   UNL     1      43.908 -18.022   5.129  1.00  0.00     0.011 A 
HETATM   37  C   UNL     1      43.499 -16.816   4.551  1.00  0.00     0.030 A 
ENDBRANCH  27  30
ENDBRANCH  25  26
ENDBRANCH   7  25
TORSDOF 7
ENDMDL
MODEL 2
REMARK VINA RESULT:      -9.1      1.681      2.190
REMARK  7 active torsions:
REMARK  status: ('A' for Active; 'I' for Inactive)
REMARK    1  A    between atoms: C_2  and  N_3 
REMARK    2  A    between atoms: C_5  and  C_6 
REMARK    3  A    between atoms: C_6  and  N_7 
REMARK       I    between atoms: N_7  and  C_8 
REMARK    4  A    between atoms: C_8  and  C_9 
REMARK    5  A    between atoms: N_15  and  C_16 
REMARK    6  A    between atoms: C_16  and  C_17 
REMARK       I    between atoms: C_17  and  N_18 
REMARK    7  A    between atoms: N_18  and  C_19 
ROOT
HETATM    1  C   UNL     1      43.143 -10.037   8.600  1.00  0.00     0.081 A 
HETATM    2  S   UNL     1      41.589  -9.433   8.190  1.00  0.00    -0.063 SA
HETATM    3  C   UNL     1      41.786  -9.809   6.549  1.00  0.00     0.116 A 
HETATM    4  C   UNL     1      43.020 -10.362   6.289  1.00  0.00     0.075 A 
HETATM    5  C   UNL     1      43.280 -10.797   4.921  1.00  0.00     0.262 A 
HETATM    6  O   UNL     1      44.336 -11.317   4.575  1.00  0.00    -0.267 OA
HETATM    7  N   UNL     1      42.215 -10.590   4.046  1.00  0.00    -0.299 N 
HETATM    8  C   UNL     1      41.030 -10.016   4.467  1.00  0.00     0.214 A 
HETATM    9  N   UNL     1      40.782  -9.594   5.665  1.00  0.00    -0.235 NA
HETATM   10  C   UNL     1      43.852 -10.444   7.471  1.00  0.00    -0.021 A 
HETATM   11  C   UNL     1      45.254 -10.973   7.494  1.00  0.00     0.051 C 
ENDROOT
BRANCH   1  12
HETATM   12  C   UNL     1      43.563 -10.064   9.998  1.00  0.00     0.259 C 
HETATM   13  N   UNL     1      43.558  -8.843  10.648  1.00  0.00    -0.354 N 
HETATM   14  H   UNL     1      43.194  -8.070  10.095  1.00  0.00     0.162 HD
HETATM   15  O   UNL     1      43.919 -11.082  10.592  1.00  0.00    -0.267 OA
BRANCH  13  16
HETATM   16  C   UNL     1      43.666  -8.612  12.086  1.00  0.00     0.156 C 
BRANCH  16  17
HETATM   17  C   UNL     1      42.682  -7.631  12.746  1.00  0.00     0.206 C 
HETATM   18  N   UNL     1      41.272  -8.158  12.973  1.00  0.00    -0.066 N 
HETATM   19  H   UNL     1      40.836  -8.087  12.029  1.00  0.00     0.280 HD
HETATM   20  C   UNL     1      40.643  -7.149  13.912  1.00  0.00     0.235 C 
HETATM   21  C   UNL     1      41.810  -6.462  14.618  1.00  0.00     0.030 C 
HETATM   22  C   UNL     1      43.074  -7.154  14.131  1.00  0.00     0.036 C 
BRANCH  18  23
HETATM   23  C   UNL     1      41.124  -9.585  13.435  1.00  0.00     0.231 C 
HETATM   24  C   UNL     1      39.832 -10.176  12.896  1.00  0.00     0.034 C 
ENDBRANCH  18  23
ENDBRANCH  16  17
ENDBRANCH  13  16
ENDBRANCH   1  12
BRANCH   7  25
HETATM   25  C   UNL     1      42.296 -11.176   2.718  1.00  0.00     0.236 C 
BRANCH  25  26
HETATM   26  C   UNL     1      41.988 -12.678   2.813  1.00  0.00     0.240 C 
HETATM   27  N   UNL     1      43.127 -13.465   2.727  1.00  0.00    -0.326 N 
HETATM   28  H   UNL     1      44.012 -12.994   2.574  1.00  0.00     0.169 HD
HETATM   29  O   UNL     1      40.834 -13.089   2.899  1.00  0.00    -0.271 OA
BRANCH  27  30
HETATM   30  C   UNL     1      43.192 -14.874   2.802  1.00  0.00     0.036 A 
HETATM   31  C   UNL     1      43.214 -15.594   3.998  1.00  0.00     0.053 A 
HETATM   32  C   UNL     1      43.287 -16.993   3.986  1.00  0.00     0.042 A 
HETATM   33 CL   UNL     1      43.330 -17.809   5.511  1.00  0.00    -0.084 Cl
HETATM   34  C   UNL     1      43.332 -17.702   2.778  1.00  0.00    -0.040 A 
HETATM   35  C   UNL     1      43.414 -19.202   2.737  1.00  0.00     0.050 C 
HETATM   36  C   UNL     1      43.315 -16.975   1.581  1.00  0.00     0.011 A 
HETATM   37  C   UNL     1      43.250 -15.578   1.594  1.00  0.00     0.030 A 
ENDBRANCH  27  30
ENDBRANCH  25  26
ENDBRANCH   7  25
TORSDOF 7
ENDMDL
MODEL 3
REMARK VINA RESULT:      -8.8      1.665      2.488
REMARK  7 active torsions:
REMARK  status: ('A' for Active; 'I' for Inactive)
REMARK    1  A    between atoms: C_2  and  N_3 
REMARK    2  A    between atoms: C_5  and  C_6 
REMARK    3  A    between atoms: C_6  and  N_7 
REMARK       I    between atoms: N_7  and  C_8 
REMARK    4  A    between atoms: C_8  and  C_9 
REMARK    5  A    between atoms: N_15  and  C_16 
REMARK    6  A    between atoms: C_16  and  C_17 
REMARK       I    between atoms: C_17  and  N_18 
REMARK    7  A    between atoms: N_18  and  C_19 
ROOT
HETATM    1  C   UNL     1      41.157  -9.990   7.163  1.00  0.00     0.081 A 
HETATM    2  S   UNL     1      42.828  -9.824   6.804  1.00  0.00    -0.063 SA
HETATM    3  C   UNL     1      42.744 -10.924   5.516  1.00  0.00     0.116 A 
HETATM    4  C   UNL     1      41.479 -11.444   5.362  1.00  0.00     0.075 A 
HETATM    5  C   UNL     1      41.265 -12.348   4.237  1.00  0.00     0.262 A 
HETATM    6  O   UNL     1      40.176 -12.860   3.989  1.00  0.00    -0.267 OA
HETATM    7  N   UNL     1      42.398 -12.562   3.454  1.00  0.00    -0.299 N 
HETATM    8  C   UNL     1      43.606 -11.960   3.747  1.00  0.00     0.214 A 
HETATM    9  N   UNL     1      43.834 -11.179   4.753  1.00  0.00    -0.235 NA
HETATM   10  C   UNL     1      40.551 -10.955   6.359  1.00  0.00    -0.021 A 
HETATM   11  C   UNL     1      39.113 -11.363   6.462  1.00  0.00     0.051 C 
ENDROOT
BRANCH   1  12
HETATM   12  C   UNL     1      40.558  -9.171   8.212  1.00  0.00     0.259 C 
HETATM   13  N   UNL     1      40.643  -9.682   9.493  1.00  0.00    -0.354 N 
HETATM   14  H   UNL     1      41.179 -10.544   9.571  1.00  0.00     0.162 HD
HETATM   15  O   UNL     1      39.991  -8.096   8.008  1.00  0.00    -0.267 OA
BRANCH  13  16
HETATM   16  C   UNL     1      40.380  -8.973  10.743  1.00  0.00     0.156 C 
BRANCH  16  17
HETATM   17  C   UNL     1      41.452  -9.008  11.845  1.00  0.00     0.206 C 
HETATM   18  N   UNL     1      42.246  -7.723  12.040  1.00  0.00    -0.066 N 
HETATM   19  H   UNL     1      42.933  -7.747  11.257  1.00  0.00     0.280 HD
HETATM   20  C   UNL     1      42.958  -7.921  13.362  1.00  0.00     0.235 C 
HETATM   21  C   UNL     1      42.142  -8.969  14.116  1.00  0.00     0.030 C 
HETATM   22  C   UNL     1      40.934  -9.281  13.244  1.00  0.00     0.036 C 
BRANCH  18  23
HETATM   23  C   UNL     1      41.498  -6.418  11.947  1.00  0.00     0.231 C 
HETATM   24  C   UNL     1      42.199  -5.357  12.780  1.00  0.00     0.034 C 
ENDBRANCH  18  23
ENDBRANCH  16  17
ENDBRANCH  13  16
ENDBRANCH   1  12
BRANCH   7  25
HETATM   25  C   UNL     1      42.237 -13.277   2.198  1.00  0.00     0.236 C 
BRANCH  25  26
HETATM   26  C   UNL     1      43.014 -14.599   2.272  1.00  0.00     0.240 C 
HETATM   27  N   UNL     1      42.559 -15.432   3.284  1.00  0.00    -0.326 N 
HETATM   28  H   UNL     1      41.815 -15.084   3.878  1.00  0.00     0.169 HD
HETATM   29  O   UNL     1      43.965 -14.824   1.529  1.00  0.00    -0.271 OA
BRANCH  27  30
HETATM   30  C   UNL     1      43.041 -16.721   3.603  1.00  0.00     0.036 A 
HETATM   31  C   UNL     1      43.095 -17.782   2.697  1.00  0.00     0.053 A 
HETATM   32  C   UNL     1      43.581 -19.035   3.095  1.00  0.00     0.042 A 
HETATM   33 CL   UNL     1      43.597 -20.303   1.919  1.00  0.00    -0.084 Cl
HETATM   34  C   UNL     1      44.029 -19.250   4.406  1.00  0.00    -0.040 A 
HETATM   35  C   UNL     1      44.551 -20.584   4.860  1.00  0.00     0.050 C 
HETATM   36  C   UNL     1      43.967 -18.184   5.312  1.00  0.00     0.011 A 
HETATM   37  C   UNL     1      43.474 -16.936   4.916  1.00  0.00     0.030 A 
ENDBRANCH  27  30
ENDBRANCH  25  26
ENDBRANCH   7  25
TORSDOF 7
ENDMDL
MODEL 4
REMARK VINA RESULT:      -8.6      3.918     10.889
REMARK  7 active torsions:
REMARK  status: ('A' for Active; 'I' for Inactive)
REMARK    1  A    between atoms: C_2  and  N_3 
REMARK    2  A    between atoms: C_5  and  C_6 
REMARK    3  A    between atoms: C_6  and  N_7 
REMARK       I    between atoms: N_7  and  C_8 
REMARK    4  A    between atoms: C_8  and  C_9 
REMARK    5  A    between atoms: N_15  and  C_16 
REMARK    6  A    between atoms: C_16  and  C_17 
REMARK       I    between atoms: C_17  and  N_18 
REMARK    7  A    between atoms: N_18  and  C_19 
ROOT
HETATM    1  C   UNL     1      40.862 -13.361   3.613  1.00  0.00     0.081 A 
HETATM    2  S   UNL     1      39.972 -11.934   3.959  1.00  0.00    -0.063 SA
HETATM    3  C   UNL     1      41.111 -11.401   5.095  1.00  0.00     0.116 A 
HETATM    4  C   UNL     1      42.148 -12.293   5.246  1.00  0.00     0.075 A 
HETATM    5  C   UNL     1      43.232 -11.908   6.144  1.00  0.00     0.262 A 
HETATM    6  O   UNL     1      44.215 -12.615   6.346  1.00  0.00    -0.267 OA
HETATM    7  N   UNL     1      43.063 -10.658   6.737  1.00  0.00    -0.299 N 
HETATM    8  C   UNL     1      41.952  -9.877   6.480  1.00  0.00     0.214 A 
HETATM    9  N   UNL     1      40.963 -10.204   5.713  1.00  0.00    -0.235 NA
HETATM   10  C   UNL     1      41.986 -13.478   4.431  1.00  0.00    -0.021 A 
HETATM   11  C   UNL     1      42.937 -14.634   4.404  1.00  0.00     0.051 C 
ENDROOT
BRANCH   1  12
HETATM   12  C   UNL     1      40.396 -14.270   2.571  1.00  0.00     0.259 C 
HETATM   13  N   UNL     1      40.403 -13.761   1.285  1.00  0.00    -0.354 N 
HETATM   14  H   UNL     1      40.800 -12.827   1.201  1.00  0.00     0.162 HD
HETATM   15  O   UNL     1      40.000 -15.417   2.782  1.00  0.00    -0.267 OA
BRANCH  13  16
HETATM   16  C   UNL     1      40.251 -14.511   0.041  1.00  0.00     0.156 C 
BRANCH  16  17
HETATM   17  C   UNL     1      39.222 -14.019  -0.990  1.00  0.00     0.206 C 
HETATM   18  N   UNL     1      39.454 -12.619  -1.543  1.00  0.00    -0.066 N 
HETATM   19  H   UNL     1      39.105 -12.001  -0.779  1.00  0.00     0.280 HD
HETATM   20  C   UNL     1      38.531 -12.533  -2.741  1.00  0.00     0.235 C 
HETATM   21  C   UNL     1      38.273 -13.977  -3.166  1.00  0.00     0.030 C 
HETATM   22  C   UNL     1      39.123 -14.850  -2.255  1.00  0.00     0.036 C 
BRANCH  18  23
HETATM   23  C   UNL     1      40.873 -12.211  -1.844  1.00  0.00     0.231 C 
HETATM   24  C   UNL     1      40.927 -11.440  -3.153  1.00  0.00     0.034 C 
ENDBRANCH  18  23
ENDBRANCH  16  17
ENDBRANCH  13  16
ENDBRANCH   1  12
BRANCH   7  25
HETATM   25  C   UNL     1      44.179 -10.097   7.482  1.00  0.00     0.236 C 
BRANCH  25  26
HETATM   26  C   UNL     1      43.919 -10.276   8.984  1.00  0.00     0.240 C 
HETATM   27  N   UNL     1      43.152  -9.251   9.521  1.00  0.00    -0.326 N 
HETATM   28  H   UNL     1      42.884  -8.494   8.903  1.00  0.00     0.169 HD
HETATM   29  O   UNL     1      44.406 -11.213   9.610  1.00  0.00    -0.271 OA
BRANCH  27  30
HETATM   30  C   UNL     1      42.718  -9.128  10.859  1.00  0.00     0.036 A 
HETATM   31  C   UNL     1      41.605  -9.786  11.385  1.00  0.00     0.053 A 
HETATM   32  C   UNL     1      41.236  -9.604  12.725  1.00  0.00     0.042 A 
HETATM   33 CL   UNL     1      39.833 -10.440  13.293  1.00  0.00    -0.084 Cl
HETATM   34  C   UNL     1      41.977  -8.765  13.568  1.00  0.00    -0.040 A 
HETATM   35  C   UNL     1      41.601  -8.549  15.006  1.00  0.00     0.050 C 
HETATM   36  C   UNL     1      43.089  -8.102  13.034  1.00  0.00     0.011 A 
HETATM   37  C   UNL     1      43.453  -8.278  11.695  1.00  0.00     0.030 A 
ENDBRANCH  27  30
ENDBRANCH  25  26
ENDBRANCH   7  25
TORSDOF 7
ENDMDL
MODEL 5
REMARK VINA RESULT:      -8.0      3.419     10.424
REMARK  7 active torsions:
REMARK  status: ('A' for Active; 'I' for Inactive)
REMARK    1  A    between atoms: C_2  and  N_3 
REMARK    2  A    between atoms: C_5  and  C_6 
REMARK    3  A    between atoms: C_6  and  N_7 
REMARK       I    between atoms: N_7  and  C_8 
REMARK    4  A    between atoms: C_8  and  C_9 
REMARK    5  A    between atoms: N_15  and  C_16 
REMARK    6  A    between atoms: C_16  and  C_17 
REMARK       I    between atoms: C_17  and  N_18 
REMARK    7  A    between atoms: N_18  and  C_19 
ROOT
HETATM    1  C   UNL     1      41.983 -12.752   6.283  1.00  0.00     0.081 A 
HETATM    2  S   UNL     1      43.497 -13.287   6.889  1.00  0.00    -0.063 SA
HETATM    3  C   UNL     1      43.982 -11.715   7.296  1.00  0.00     0.116 A 
HETATM    4  C   UNL     1      43.032 -10.777   6.959  1.00  0.00     0.075 A 
HETATM    5  C   UNL     1      43.305  -9.392   7.329  1.00  0.00     0.262 A 
HETATM    6  O   UNL     1      42.526  -8.473   7.094  1.00  0.00    -0.267 OA
HETATM    7  N   UNL     1      44.517  -9.207   7.991  1.00  0.00    -0.299 N 
HETATM    8  C   UNL     1      45.368 -10.263   8.255  1.00  0.00     0.214 A 
HETATM    9  N   UNL     1      45.168 -11.495   7.914  1.00  0.00    -0.235 NA
HETATM   10  C   UNL     1      41.881 -11.362   6.306  1.00  0.00    -0.021 A 
HETATM   11  C   UNL     1      40.701 -10.589   5.801  1.00  0.00     0.051 C 
ENDROOT
BRANCH   1  12
HETATM   12  C   UNL     1      41.002 -13.730   5.820  1.00  0.00     0.259 C 
HETATM   13  N   UNL     1      41.319 -14.384   4.644  1.00  0.00    -0.354 N 
HETATM   14  H   UNL     1      42.238 -14.159   4.267  1.00  0.00     0.162 HD
HETATM   15  O   UNL     1      39.945 -13.975   6.402  1.00  0.00    -0.267 OA
BRANCH  13  16
HETATM   16  C   UNL     1      40.674 -15.576   4.099  1.00  0.00     0.156 C 
BRANCH  16  17
HETATM   17  C   UNL     1      41.557 -16.778   3.722  1.00  0.00     0.206 C 
HETATM   18  N   UNL     1      41.946 -16.881   2.254  1.00  0.00    -0.066 N 
HETATM   19  H   UNL     1      41.088 -17.268   1.807  1.00  0.00     0.280 HD
HETATM   20  C   UNL     1      43.053 -17.915   2.232  1.00  0.00     0.235 C 
HETATM   21  C   UNL     1      43.634 -17.925   3.645  1.00  0.00     0.030 C 
HETATM   22  C   UNL     1      42.905 -16.835   4.416  1.00  0.00     0.036 C 
BRANCH  18  23
HETATM   23  C   UNL     1      42.299 -15.606   1.531  1.00  0.00     0.231 C 
HETATM   24  C   UNL     1      41.083 -15.071   0.795  1.00  0.00     0.034 C 
ENDBRANCH  18  23
ENDBRANCH  16  17
ENDBRANCH  13  16
ENDBRANCH   1  12
BRANCH   7  25
HETATM   25  C   UNL     1      44.783  -7.905   8.581  1.00  0.00     0.236 C 
BRANCH  25  26
HETATM   26  C   UNL     1      43.761  -7.644   9.698  1.00  0.00     0.240 C 
HETATM   27  N   UNL     1      43.852  -8.563  10.733  1.00  0.00    -0.326 N 
HETATM   28  H   UNL     1      44.529  -9.312  10.637  1.00  0.00     0.169 HD
HETATM   29  O   UNL     1      42.936  -6.739   9.609  1.00  0.00    -0.271 OA
BRANCH  27  30
HETATM   30  C   UNL     1      43.077  -8.591  11.914  1.00  0.00     0.036 A 
HETATM   31  C   UNL     1      41.968  -9.418  12.103  1.00  0.00     0.053 A 
HETATM   32  C   UNL     1      41.247  -9.379  13.303  1.00  0.00     0.042 A 
HETATM   33 CL   UNL     1      39.874 -10.421  13.451  1.00  0.00    -0.084 Cl
HETATM   34  C   UNL     1      41.624  -8.517  14.343  1.00  0.00    -0.040 A 
HETATM   35  C   UNL     1      40.866  -8.453  15.638  1.00  0.00     0.050 C 
HETATM   36  C   UNL     1      42.733  -7.686  14.145  1.00  0.00     0.011 A 
HETATM   37  C   UNL     1      43.448  -7.719  12.944  1.00  0.00     0.030 A 
ENDBRANCH  27  30
ENDBRANCH  25  26
ENDBRANCH   7  25
TORSDOF 7
ENDMDL
MODEL 6
REMARK VINA RESULT:      -7.9      1.850      2.511
REMARK  7 active torsions:
REMARK  status: ('A' for Active; 'I' for Inactive)
REMARK    1  A    between atoms: C_2  and  N_3 
REMARK    2  A    between atoms: C_5  and  C_6 
REMARK    3  A    between atoms: C_6  and  N_7 
REMARK       I    between atoms: N_7  and  C_8 
REMARK    4  A    between atoms: C_8  and  C_9 
REMARK    5  A    between atoms: N_15  and  C_16 
REMARK    6  A    between atoms: C_16  and  C_17 
REMARK       I    between atoms: C_17  and  N_18 
REMARK    7  A    between atoms: N_18  and  C_19 
ROOT
HETATM    1  C   UNL     1      40.860  -9.408   6.764  1.00  0.00     0.081 A 
HETATM    2  S   UNL     1      42.536  -9.551   6.422  1.00  0.00    -0.063 SA
HETATM    3  C   UNL     1      42.293 -10.851   5.361  1.00  0.00     0.116 A 
HETATM    4  C   UNL     1      40.965 -11.205   5.274  1.00  0.00     0.075 A 
HETATM    5  C   UNL     1      40.621 -12.265   4.332  1.00  0.00     0.262 A 
HETATM    6  O   UNL     1      39.470 -12.655   4.157  1.00  0.00    -0.267 OA
HETATM    7  N   UNL     1      41.710 -12.781   3.632  1.00  0.00    -0.299 N 
HETATM    8  C   UNL     1      42.993 -12.312   3.838  1.00  0.00     0.214 A 
HETATM    9  N   UNL     1      43.333 -11.396   4.686  1.00  0.00    -0.235 NA
HETATM   10  C   UNL     1      40.120 -10.411   6.139  1.00  0.00    -0.021 A 
HETATM   11  C   UNL     1      38.638 -10.584   6.279  1.00  0.00     0.051 C 
ENDROOT
BRANCH   1  12
HETATM   12  C   UNL     1      40.387  -8.329   7.626  1.00  0.00     0.259 C 
HETATM   13  N   UNL     1      40.711  -8.447   8.964  1.00  0.00    -0.354 N 
HETATM   14  H   UNL     1      41.307  -9.242   9.189  1.00  0.00     0.162 HD
HETATM   15  O   UNL     1      39.727  -7.368   7.229  1.00  0.00    -0.267 OA
BRANCH  13  16
HETATM   16  C   UNL     1      40.608  -7.411   9.989  1.00  0.00     0.156 C 
BRANCH  16  17
HETATM   17  C   UNL     1      41.458  -7.554  11.263  1.00  0.00     0.206 C 
HETATM   18  N   UNL     1      40.776  -8.235  12.442  1.00  0.00    -0.066 N 
HETATM   19  H   UNL     1      40.170  -7.484  12.833  1.00  0.00     0.280 HD
HETATM   20  C   UNL     1      41.908  -8.541  13.402  1.00  0.00     0.235 C 
HETATM   21  C   UNL     1      43.174  -8.574  12.548  1.00  0.00     0.030 C 
HETATM   22  C   UNL     1      42.725  -8.373  11.108  1.00  0.00     0.036 C 
BRANCH  18  23
HETATM   23  C   UNL     1      39.896  -9.424  12.151  1.00  0.00     0.231 C 
HETATM   24  C   UNL     1      39.858 -10.352  13.353  1.00  0.00     0.034 C 
ENDBRANCH  18  23
ENDBRANCH  16  17
ENDBRANCH  13  16
ENDBRANCH   1  12
BRANCH   7  25
HETATM   25  C   UNL     1      41.445 -13.689   2.527  1.00  0.00     0.236 C 
BRANCH  25  26
HETATM   26  C   UNL     1      41.484 -15.134   3.048  1.00  0.00     0.240 C 
HETATM   27  N   UNL     1      42.776 -15.601   3.235  1.00  0.00    -0.326 N 
HETATM   28  H   UNL     1      43.539 -14.984   2.983  1.00  0.00     0.169 HD
HETATM   29  O   UNL     1      40.453 -15.782   3.210  1.00  0.00    -0.271 OA
BRANCH  27  30
HETATM   30  C   UNL     1      43.156 -16.872   3.722  1.00  0.00     0.036 A 
HETATM   31  C   UNL     1      43.158 -17.224   5.073  1.00  0.00     0.053 A 
HETATM   32  C   UNL     1      43.557 -18.506   5.475  1.00  0.00     0.042 A 
HETATM   33 CL   UNL     1      43.550 -18.857   7.169  1.00  0.00    -0.084 Cl
HETATM   34  C   UNL     1      43.956 -19.464   4.533  1.00  0.00    -0.040 A 
HETATM   35  C   UNL     1      44.391 -20.844   4.937  1.00  0.00     0.050 C 
HETATM   36  C   UNL     1      43.957 -19.104   3.180  1.00  0.00     0.011 A 
HETATM   37  C   UNL     1      43.566 -17.822   2.780  1.00  0.00     0.030 A 
ENDBRANCH  27  30
ENDBRANCH  25  26
ENDBRANCH   7  25
TORSDOF 7
ENDMDL
MODEL 7
REMARK VINA RESULT:      -7.8      4.758      6.504
REMARK  7 active torsions:
REMARK  status: ('A' for Active; 'I' for Inactive)
REMARK    1  A    between atoms: C_2  and  N_3 
REMARK    2  A    between atoms: C_5  and  C_6 
REMARK    3  A    between atoms: C_6  and  N_7 
REMARK       I    between atoms: N_7  and  C_8 
REMARK    4  A    between atoms: C_8  and  C_9 
REMARK    5  A    between atoms: N_15  and  C_16 
REMARK    6  A    between atoms: C_16  and  C_17 
REMARK       I    between atoms: C_17  and  N_18 
REMARK    7  A    between atoms: N_18  and  C_19 
ROOT
HETATM    1  C   UNL     1      38.470  -9.399   4.802  1.00  0.00     0.081 A 
HETATM    2  S   UNL     1      38.744 -10.593   6.004  1.00  0.00    -0.063 SA
HETATM    3  C   UNL     1      39.586 -11.599   4.930  1.00  0.00     0.116 A 
HETATM    4  C   UNL     1      39.646 -11.065   3.662  1.00  0.00     0.075 A 
HETATM    5  C   UNL     1      40.411 -11.806   2.665  1.00  0.00     0.262 A 
HETATM    6  O   UNL     1      40.548 -11.422   1.507  1.00  0.00    -0.267 OA
HETATM    7  N   UNL     1      40.992 -12.977   3.147  1.00  0.00    -0.299 N 
HETATM    8  C   UNL     1      40.834 -13.378   4.460  1.00  0.00     0.214 A 
HETATM    9  N   UNL     1      40.138 -12.759   5.358  1.00  0.00    -0.235 NA
HETATM   10  C   UNL     1      38.941  -9.806   3.555  1.00  0.00    -0.021 A 
HETATM   11  C   UNL     1      38.809  -9.005   2.295  1.00  0.00     0.051 C 
ENDROOT
BRANCH   1  12
HETATM   12  C   UNL     1      37.805  -8.150   5.161  1.00  0.00     0.259 C 
HETATM   13  N   UNL     1      36.644  -7.868   4.467  1.00  0.00    -0.354 N 
HETATM   14  H   UNL     1      36.342  -8.602   3.828  1.00  0.00     0.162 HD
HETATM   15  O   UNL     1      38.227  -7.364   6.011  1.00  0.00    -0.267 OA
BRANCH  13  16
HETATM   16  C   UNL     1      35.647  -6.852   4.795  1.00  0.00     0.156 C 
BRANCH  16  17
HETATM   17  C   UNL     1      34.292  -6.894   4.068  1.00  0.00     0.206 C 
HETATM   18  N   UNL     1      33.203  -7.719   4.741  1.00  0.00    -0.066 N 
HETATM   19  H   UNL     1      33.459  -8.698   4.492  1.00  0.00     0.280 HD
HETATM   20  C   UNL     1      31.932  -7.316   4.023  1.00  0.00     0.235 C 
HETATM   21  C   UNL     1      32.216  -5.940   3.424  1.00  0.00     0.030 C 
HETATM   22  C   UNL     1      33.611  -5.550   3.888  1.00  0.00     0.036 C 
BRANCH  18  23
HETATM   23  C   UNL     1      33.096  -7.645   6.242  1.00  0.00     0.231 C 
HETATM   24  C   UNL     1      31.686  -7.247   6.645  1.00  0.00     0.034 C 
ENDBRANCH  18  23
ENDBRANCH  16  17
ENDBRANCH  13  16
ENDBRANCH   1  12
BRANCH   7  25
HETATM   25  C   UNL     1      41.941 -13.674   2.292  1.00  0.00     0.236 C 
BRANCH  25  26
HETATM   26  C   UNL     1      41.914 -15.171   2.631  1.00  0.00     0.240 C 
HETATM   27  N   UNL     1      43.126 -15.630   3.126  1.00  0.00    -0.326 N 
HETATM   28  H   UNL     1      43.893 -14.969   3.175  1.00  0.00     0.169 HD
HETATM   29  O   UNL     1      40.918 -15.857   2.416  1.00  0.00    -0.271 OA
BRANCH  27  30
HETATM   30  C   UNL     1      43.426 -16.944   3.550  1.00  0.00     0.036 A 
HETATM   31  C   UNL     1      43.535 -18.039   2.691  1.00  0.00     0.053 A 
HETATM   32  C   UNL     1      43.829 -19.313   3.194  1.00  0.00     0.042 A 
HETATM   33 CL   UNL     1      43.928 -20.620   2.065  1.00  0.00    -0.084 Cl
HETATM   34  C   UNL     1      44.027 -19.518   4.566  1.00  0.00    -0.040 A 
HETATM   35  C   UNL     1      44.340 -20.874   5.132  1.00  0.00     0.050 C 
HETATM   36  C   UNL     1      43.911 -18.417   5.424  1.00  0.00     0.011 A 
HETATM   37  C   UNL     1      43.609 -17.147   4.923  1.00  0.00     0.030 A 
ENDBRANCH  27  30
ENDBRANCH  25  26
ENDBRANCH   7  25
TORSDOF 7
ENDMDL
MODEL 8
REMARK VINA RESULT:      -7.8      3.482      5.846
REMARK  7 active torsions:
REMARK  status: ('A' for Active; 'I' for Inactive)
REMARK    1  A    between atoms: C_2  and  N_3 
REMARK    2  A    between atoms: C_5  and  C_6 
REMARK    3  A    between atoms: C_6  and  N_7 
REMARK       I    between atoms: N_7  and  C_8 
REMARK    4  A    between atoms: C_8  and  C_9 
REMARK    5  A    between atoms: N_15  and  C_16 
REMARK    6  A    between atoms: C_16  and  C_17 
REMARK       I    between atoms: C_17  and  N_18 
REMARK    7  A    between atoms: N_18  and  C_19 
ROOT
HETATM    1  C   UNL     1      41.265  -8.464  11.653  1.00  0.00     0.081 A 
HETATM    2  S   UNL     1      41.277  -7.502  10.232  1.00  0.00    -0.063 SA
HETATM    3  C   UNL     1      42.641  -8.294   9.609  1.00  0.00     0.116 A 
HETATM    4  C   UNL     1      43.112  -9.262  10.467  1.00  0.00     0.075 A 
HETATM    5  C   UNL     1      44.240 -10.065  10.006  1.00  0.00     0.262 A 
HETATM    6  O   UNL     1      44.736 -10.967  10.677  1.00  0.00    -0.267 OA
HETATM    7  N   UNL     1      44.692  -9.734   8.730  1.00  0.00    -0.299 N 
HETATM    8  C   UNL     1      44.105  -8.725   7.992  1.00  0.00     0.214 A 
HETATM    9  N   UNL     1      43.125  -7.977   8.384  1.00  0.00    -0.235 NA
HETATM   10  C   UNL     1      42.355  -9.331  11.698  1.00  0.00    -0.021 A 
HETATM   11  C   UNL     1      42.650 -10.266  12.831  1.00  0.00     0.051 C 
ENDROOT
BRANCH   1  12
HETATM   12  C   UNL     1      40.192  -8.298  12.630  1.00  0.00     0.259 C 
HETATM   13  N   UNL     1      40.312  -7.208  13.471  1.00  0.00    -0.354 N 
HETATM   14  H   UNL     1      41.104  -6.600  13.268  1.00  0.00     0.162 HD
HETATM   15  O   UNL     1      39.234  -9.064  12.739  1.00  0.00    -0.267 OA
BRANCH  13  16
HETATM   16  C   UNL     1      39.280  -6.651  14.343  1.00  0.00     0.156 C 
BRANCH  16  17
HETATM   17  C   UNL     1      39.671  -5.522  15.311  1.00  0.00     0.206 C 
HETATM   18  N   UNL     1      39.815  -5.922  16.774  1.00  0.00    -0.066 N 
HETATM   19  H   UNL     1      38.828  -5.975  17.104  1.00  0.00     0.280 HD
HETATM   20  C   UNL     1      40.516  -4.743  17.417  1.00  0.00     0.235 C 
HETATM   21  C   UNL     1      41.237  -4.023  16.279  1.00  0.00     0.030 C 
HETATM   22  C   UNL     1      41.004  -4.857  15.028  1.00  0.00     0.036 C 
BRANCH  18  23
HETATM   23  C   UNL     1      40.467  -7.248  17.076  1.00  0.00     0.231 C 
HETATM   24  C   UNL     1      39.937  -7.801  18.388  1.00  0.00     0.034 C 
ENDBRANCH  18  23
ENDBRANCH  16  17
ENDBRANCH  13  16
ENDBRANCH   1  12
BRANCH   7  25
HETATM   25  C   UNL     1      45.670 -10.608   8.102  1.00  0.00     0.236 C 
BRANCH  25  26
HETATM   26  C   UNL     1      44.998 -11.360   6.944  1.00  0.00     0.240 C 
HETATM   27  N   UNL     1      44.119 -12.341   7.380  1.00  0.00    -0.326 N 
HETATM   28  H   UNL     1      44.040 -12.488   8.380  1.00  0.00     0.169 HD
HETATM   29  O   UNL     1      45.284 -11.119   5.774  1.00  0.00    -0.271 OA
BRANCH  27  30
HETATM   30  C   UNL     1      43.329 -13.191   6.574  1.00  0.00     0.036 A 
HETATM   31  C   UNL     1      42.160 -12.790   5.925  1.00  0.00     0.053 A 
HETATM   32  C   UNL     1      41.428 -13.698   5.149  1.00  0.00     0.042 A 
HETATM   33 CL   UNL     1      39.980 -13.127   4.394  1.00  0.00    -0.084 Cl
HETATM   34  C   UNL     1      41.854 -15.025   5.000  1.00  0.00    -0.040 A 
HETATM   35  C   UNL     1      41.086 -16.020   4.177  1.00  0.00     0.050 C 
HETATM   36  C   UNL     1      43.024 -15.423   5.658  1.00  0.00     0.011 A 
HETATM   37  C   UNL     1      43.750 -14.519   6.439  1.00  0.00     0.030 A 
ENDBRANCH  27  30
ENDBRANCH  25  26
ENDBRANCH   7  25
TORSDOF 7
ENDMDL
MODEL 9
REMARK VINA RESULT:      -7.7      3.575      6.424
REMARK  7 active torsions:
REMARK  status: ('A' for Active; 'I' for Inactive)
REMARK    1  A    between atoms: C_2  and  N_3 
REMARK    2  A    between atoms: C_5  and  C_6 
REMARK    3  A    between atoms: C_6  and  N_7 
REMARK       I    between atoms: N_7  and  C_8 
REMARK    4  A    between atoms: C_8  and  C_9 
REMARK    5  A    between atoms: N_15  and  C_16 
REMARK    6  A    between atoms: C_16  and  C_17 
REMARK       I    between atoms: C_17  and  N_18 
REMARK    7  A    between atoms: N_18  and  C_19 
ROOT
HETATM    1  C   UNL     1      41.893  -7.529  11.787  1.00  0.00     0.081 A 
HETATM    2  S   UNL     1      42.326  -6.544  10.450  1.00  0.00    -0.063 SA
HETATM    3  C   UNL     1      43.475  -7.660   9.895  1.00  0.00     0.116 A 
HETATM    4  C   UNL     1      43.564  -8.761  10.715  1.00  0.00     0.075 A 
HETATM    5  C   UNL     1      44.468  -9.829  10.299  1.00  0.00     0.262 A 
HETATM    6  O   UNL     1      44.618 -10.865  10.941  1.00  0.00    -0.267 OA
HETATM    7  N   UNL     1      45.129  -9.579   9.098  1.00  0.00    -0.299 N 
HETATM    8  C   UNL     1      44.929  -8.410   8.389  1.00  0.00     0.214 A 
HETATM    9  N   UNL     1      44.158  -7.435   8.747  1.00  0.00    -0.235 NA
HETATM   10  C   UNL     1      42.688  -8.672  11.864  1.00  0.00    -0.021 A 
HETATM   11  C   UNL     1      42.587  -9.705  12.944  1.00  0.00     0.051 C 
ENDROOT
BRANCH   1  12
HETATM   12  C   UNL     1      40.809  -7.113  12.672  1.00  0.00     0.259 C 
HETATM   13  N   UNL     1      39.561  -7.014  12.085  1.00  0.00    -0.354 N 
HETATM   14  H   UNL     1      39.525  -7.312  11.112  1.00  0.00     0.162 HD
HETATM   15  O   UNL     1      40.957  -6.844  13.865  1.00  0.00    -0.267 OA
BRANCH  13  16
HETATM   16  C   UNL     1      38.276  -6.886  12.767  1.00  0.00     0.156 C 
BRANCH  16  17
HETATM   17  C   UNL     1      37.350  -5.723  12.373  1.00  0.00     0.206 C 
HETATM   18  N   UNL     1      37.060  -4.706  13.469  1.00  0.00    -0.066 N 
HETATM   19  H   UNL     1      36.343  -5.185  14.055  1.00  0.00     0.280 HD
HETATM   20  C   UNL     1      36.435  -3.536  12.737  1.00  0.00     0.235 C 
HETATM   21  C   UNL     1      36.905  -3.659  11.289  1.00  0.00     0.030 C 
HETATM   22  C   UNL     1      37.858  -4.844  11.246  1.00  0.00     0.036 C 
BRANCH  18  23
HETATM   23  C   UNL     1      38.197  -4.310  14.376  1.00  0.00     0.231 C 
HETATM   24  C   UNL     1      37.704  -4.194  15.809  1.00  0.00     0.034 C 
ENDBRANCH  18  23
ENDBRANCH  16  17
ENDBRANCH  13  16
ENDBRANCH   1  12
BRANCH   7  25
HETATM   25  C   UNL     1      45.888 -10.664   8.496  1.00  0.00     0.236 C 
BRANCH  25  26
HETATM   26  C   UNL     1      45.167 -11.133   7.224  1.00  0.00     0.240 C 
HETATM   27  N   UNL     1      44.107 -11.987   7.493  1.00  0.00    -0.326 N 
HETATM   28  H   UNL     1      43.944 -12.241   8.461  1.00  0.00     0.169 HD
HETATM   29  O   UNL     1      45.560 -10.805   6.109  1.00  0.00    -0.271 OA
BRANCH  27  30
HETATM   30  C   UNL     1      43.232 -12.575   6.553  1.00  0.00     0.036 A 
HETATM   31  C   UNL     1      43.401 -13.854   6.019  1.00  0.00     0.053 A 
HETATM   32  C   UNL     1      42.490 -14.362   5.083  1.00  0.00     0.042 A 
HETATM   33 CL   UNL     1      42.782 -15.947   4.454  1.00  0.00    -0.084 Cl
HETATM   34  C   UNL     1      41.386 -13.605   4.668  1.00  0.00    -0.040 A 
HETATM   35  C   UNL     1      40.396 -14.124   3.665  1.00  0.00     0.050 C 
HETATM   36  C   UNL     1      41.224 -12.321   5.204  1.00  0.00     0.011 A 
HETATM   37  C   UNL     1      42.138 -11.811   6.132  1.00  0.00     0.030 A 
ENDBRANCH  27  30
ENDBRANCH  25  26
ENDBRANCH   7  25
TORSDOF 7
ENDMDL
MODEL 10
REMARK VINA RESULT:      -7.7      5.202      8.085
REMARK  7 active torsions:
REMARK  status: ('A' for Active; 'I' for Inactive)
REMARK    1  A    between atoms: C_2  and  N_3 
REMARK    2  A    between atoms: C_5  and  C_6 
REMARK    3  A    between atoms: C_6  and  N_7 
REMARK       I    between atoms: N_7  and  C_8 
REMARK    4  A    between atoms: C_8  and  C_9 
REMARK    5  A    between atoms: N_15  and  C_16 
REMARK    6  A    between atoms: C_16  and  C_17 
REMARK       I    between atoms: C_17  and  N_18 
REMARK    7  A    between atoms: N_18  and  C_19 
ROOT
HETATM    1  C   UNL     1      40.701 -13.088   3.978  1.00  0.00     0.081 A 
HETATM    2  S   UNL     1      41.258 -14.524   3.220  1.00  0.00    -0.063 SA
HETATM    3  C   UNL     1      40.466 -14.160   1.765  1.00  0.00     0.116 A 
HETATM    4  C   UNL     1      39.759 -12.982   1.842  1.00  0.00     0.075 A 
HETATM    5  C   UNL     1      39.094 -12.525   0.626  1.00  0.00     0.262 A 
HETATM    6  O   UNL     1      38.449 -11.482   0.570  1.00  0.00    -0.267 OA
HETATM    7  N   UNL     1      39.275 -13.364  -0.471  1.00  0.00    -0.299 N 
HETATM    8  C   UNL     1      40.020 -14.524  -0.383  1.00  0.00     0.214 A 
HETATM    9  N   UNL     1      40.595 -14.970   0.687  1.00  0.00    -0.235 NA
HETATM   10  C   UNL     1      39.835 -12.372   3.153  1.00  0.00    -0.021 A 
HETATM   11  C   UNL     1      39.146 -11.101   3.545  1.00  0.00     0.051 C 
ENDROOT
BRANCH   1  12
HETATM   12  C   UNL     1      41.145 -12.765   5.331  1.00  0.00     0.259 C 
HETATM   13  N   UNL     1      42.085 -11.756   5.427  1.00  0.00    -0.354 N 
HETATM   14  H   UNL     1      42.312 -11.302   4.545  1.00  0.00     0.162 HD
HETATM   15  O   UNL     1      40.744 -13.339   6.344  1.00  0.00    -0.267 OA
BRANCH  13  16
HETATM   16  C   UNL     1      42.500 -11.053   6.639  1.00  0.00     0.156 C 
BRANCH  16  17
HETATM   17  C   UNL     1      43.958 -10.573   6.744  1.00  0.00     0.206 C 
HETATM   18  N   UNL     1      44.285  -9.707   7.953  1.00  0.00    -0.066 N 
HETATM   19  H   UNL     1      43.911  -8.772   7.685  1.00  0.00     0.280 HD
HETATM   20  C   UNL     1      45.799  -9.670   7.987  1.00  0.00     0.235 C 
HETATM   21  C   UNL     1      46.258 -10.910   7.222  1.00  0.00     0.030 C 
HETATM   22  C   UNL     1      44.996 -11.673   6.846  1.00  0.00     0.036 C 
BRANCH  18  23
HETATM   23  C   UNL     1      43.662 -10.084   9.273  1.00  0.00     0.231 C 
HETATM   24  C   UNL     1      44.671  -9.905  10.395  1.00  0.00     0.034 C 
ENDBRANCH  18  23
ENDBRANCH  16  17
ENDBRANCH  13  16
ENDBRANCH   1  12
BRANCH   7  25
HETATM   25  C   UNL     1      38.830 -12.893  -1.773  1.00  0.00     0.236 C 
BRANCH  25  26
HETATM   26  C   UNL     1      39.949 -12.057  -2.413  1.00  0.00     0.240 C 
HETATM   27  N   UNL     1      39.707 -10.693  -2.338  1.00  0.00    -0.326 N 
HETATM   28  H   UNL     1      38.832 -10.394  -1.923  1.00  0.00     0.169 HD
HETATM   29  O   UNL     1      40.907 -12.589  -2.967  1.00  0.00    -0.271 OA
BRANCH  27  30
HETATM   30  C   UNL     1      40.544  -9.656  -2.808  1.00  0.00     0.036 A 
HETATM   31  C   UNL     1      41.533  -9.040  -2.039  1.00  0.00     0.053 A 
HETATM   32  C   UNL     1      42.318  -8.012  -2.578  1.00  0.00     0.042 A 
HETATM   33 CL   UNL     1      43.508  -7.287  -1.554  1.00  0.00    -0.084 Cl
HETATM   34  C   UNL     1      42.134  -7.583  -3.900  1.00  0.00    -0.040 A 
HETATM   35  C   UNL     1      42.959  -6.481  -4.501  1.00  0.00     0.050 C 
HETATM   36  C   UNL     1      41.137  -8.201  -4.665  1.00  0.00     0.011 A 
HETATM   37  C   UNL     1      40.349  -9.222  -4.124  1.00  0.00     0.030 A 
ENDBRANCH  27  30
ENDBRANCH  25  26
ENDBRANCH   7  25
TORSDOF 7
ENDMDL
