MODEL 1
REMARK VINA RESULT:      -8.5      0.000      0.000
REMARK  5 active torsions:
REMARK  status: ('A' for Active; 'I' for Inactive)
REMARK    1  A    between atoms: C_2  and  C_3 
REMARK    2  A    between atoms: C_3  and  N_4 
REMARK    3  A    between atoms: N_8  and  C_10 
REMARK    4  A    between atoms: C_10  and  C_11 
REMARK    5  A    between atoms: C_14  and  C_15 
ROOT
HETATM    1  N   UNL     1      41.001 -11.059  -0.779  1.00  0.00     0.104 N 
HETATM    2  C   UNL     1      40.027 -12.081  -0.220  1.00  0.00     0.206 C 
HETATM    3  C   UNL     1      39.216 -11.560   0.991  1.00  0.00     0.076 C 
HETATM    4  C   UNL     1      40.132 -11.175   2.149  1.00  0.00     0.238 C 
HETATM    5  N   UNL     1      40.922 -12.375   2.626  1.00  0.00    -0.065 N 
HETATM    6  H   UNL     1      41.618 -11.980   3.277  1.00  0.00     0.280 HD
HETATM    7  C   UNL     1      41.717 -12.990   1.502  1.00  0.00     0.238 C 
HETATM    8  C   UNL     1      40.819 -13.318   0.308  1.00  0.00     0.076 C 
HETATM    9  C   UNL     1      39.099 -12.539  -1.329  1.00  0.00     0.072 A 
HETATM   10  C   UNL     1      39.367 -12.387  -2.675  1.00  0.00     0.037 A 
HETATM   11  N   UNL     1      38.298 -12.930  -3.352  1.00  0.00    -0.354 N 
HETATM   12  H   UNL     1      38.191 -12.959  -4.366  1.00  0.00     0.166 HD
HETATM   13  C   UNL     1      37.390 -13.402  -2.492  1.00  0.00     0.181 A 
HETATM   14  N   UNL     1      37.872 -13.177  -1.259  1.00  0.00    -0.352 N 
HETATM   15  H   UNL     1      37.357 -13.433  -0.419  1.00  0.00     0.166 HD
HETATM   16  C   UNL     1      40.555 -11.720  -3.238  1.00  0.00     0.089 C 
HETATM   17  C   UNL     1      41.583 -11.499  -2.098  1.00  0.00     0.280 C 
ENDROOT
BRANCH   1  18
HETATM   18  C   UNL     1      40.452  -9.678  -0.899  1.00  0.00     0.273 C 
BRANCH  18  19
HETATM   19  C   UNL     1      41.402  -8.543  -0.483  1.00  0.00     0.026 C 
HETATM   20  C   UNL     1      42.138  -7.917  -1.660  1.00  0.00     0.007 C 
ENDBRANCH  18  19
ENDBRANCH   1  18
BRANCH   5  21
HETATM   21  C   UNL     1      40.171 -13.395   3.490  1.00  0.00     0.301 C 
BRANCH  21  22
HETATM   22  C   UNL     1      40.982 -14.582   3.817  1.00  0.00     0.107 A 
HETATM   23  O   UNL     1      42.027 -14.348   4.651  1.00  0.00    -0.216 OA
HETATM   24  N   UNL     1      42.848 -15.446   4.675  1.00  0.00    -0.128 NA
HETATM   25  C   UNL     1      42.263 -16.382   3.909  1.00  0.00     0.097 A 
HETATM   26  C   UNL     1      41.036 -15.883   3.382  1.00  0.00     0.071 A 
BRANCH  25  27
HETATM   27  C   UNL     1      42.905 -17.658   3.616  1.00  0.00    -0.005 A 
HETATM   28  C   UNL     1      42.703 -18.273   2.369  1.00  0.00     0.014 A 
HETATM   29  C   UNL     1      43.250 -19.529   2.102  1.00  0.00     0.001 A 
HETATM   30  C   UNL     1      44.012 -20.177   3.071  1.00  0.00     0.000 A 
HETATM   31  C   UNL     1      44.232 -19.568   4.306  1.00  0.00     0.001 A 
HETATM   32  C   UNL     1      43.679 -18.315   4.581  1.00  0.00     0.014 A 
ENDBRANCH  25  27
ENDBRANCH  21  22
ENDBRANCH   5  21
TORSDOF 5
ENDMDL
MODEL 2
REMARK VINA RESULT:      -8.4      1.256      3.309
REMARK  5 active torsions:
REMARK  status: ('A' for Active; 'I' for Inactive)
REMARK    1  A    between atoms: C_2  and  C_3 
REMARK    2  A    between atoms: C_3  and  N_4 
REMARK    3  A    between atoms: N_8  and  C_10 
REMARK    4  A    between atoms: C_10  and  C_11 
REMARK    5  A    between atoms: C_14  and  C_15 
ROOT
HETATM    1  N   UNL     1      38.657 -12.191  -0.761  1.00  0.00     0.104 N 
HETATM    2  C   UNL     1      39.769 -11.806   0.198  1.00  0.00     0.206 C 
HETATM    3  C   UNL     1      40.801 -12.938   0.430  1.00  0.00     0.076 C 
HETATM    4  C   UNL     1      40.140 -14.177   1.027  1.00  0.00     0.238 C 
HETATM    5  N   UNL     1      39.522 -13.858   2.370  1.00  0.00    -0.065 N 
HETATM    6  H   UNL     1      38.966 -14.696   2.602  1.00  0.00     0.280 HD
HETATM    7  C   UNL     1      38.528 -12.728   2.262  1.00  0.00     0.238 C 
HETATM    8  C   UNL     1      39.161 -11.501   1.602  1.00  0.00     0.076 C 
HETATM    9  C   UNL     1      40.455 -10.554  -0.315  1.00  0.00     0.072 A 
HETATM   10  C   UNL     1      39.898  -9.687  -1.233  1.00  0.00     0.037 A 
HETATM   11  N   UNL     1      40.817  -8.682  -1.432  1.00  0.00    -0.354 N 
HETATM   12  H   UNL     1      40.704  -7.892  -2.069  1.00  0.00     0.166 HD
HETATM   13  C   UNL     1      41.907  -8.890  -0.688  1.00  0.00     0.181 A 
HETATM   14  N   UNL     1      41.693 -10.022   0.002  1.00  0.00    -0.352 N 
HETATM   15  H   UNL     1      42.387 -10.410   0.639  1.00  0.00     0.166 HD
HETATM   16  C   UNL     1      38.590  -9.867  -1.890  1.00  0.00     0.089 C 
HETATM   17  C   UNL     1      37.823 -11.001  -1.162  1.00  0.00     0.280 C 
ENDROOT
BRANCH   1  18
HETATM   18  C   UNL     1      39.111 -12.927  -1.975  1.00  0.00     0.273 C 
BRANCH  18  19
HETATM   19  C   UNL     1      38.050 -13.804  -2.661  1.00  0.00     0.026 C 
HETATM   20  C   UNL     1      38.568 -15.184  -3.042  1.00  0.00     0.007 C 
ENDBRANCH  18  19
ENDBRANCH   1  18
BRANCH   5  21
HETATM   21  C   UNL     1      40.482 -13.733   3.559  1.00  0.00     0.301 C 
BRANCH  21  22
HETATM   22  C   UNL     1      41.478 -14.819   3.612  1.00  0.00     0.107 A 
HETATM   23  O   UNL     1      42.722 -14.474   3.193  1.00  0.00    -0.216 OA
HETATM   24  N   UNL     1      43.483 -15.605   3.040  1.00  0.00    -0.128 NA
HETATM   25  C   UNL     1      42.723 -16.638   3.438  1.00  0.00     0.097 A 
HETATM   26  C   UNL     1      41.446 -16.169   3.862  1.00  0.00     0.071 A 
BRANCH  25  27
HETATM   27  C   UNL     1      43.169 -18.021   3.319  1.00  0.00    -0.005 A 
HETATM   28  C   UNL     1      42.865 -18.758   2.162  1.00  0.00     0.014 A 
HETATM   29  C   UNL     1      43.220 -20.104   2.065  1.00  0.00     0.001 A 
HETATM   30  C   UNL     1      43.890 -20.724   3.116  1.00  0.00     0.000 A 
HETATM   31  C   UNL     1      44.211 -19.998   4.263  1.00  0.00     0.001 A 
HETATM   32  C   UNL     1      43.850 -18.653   4.367  1.00  0.00     0.014 A 
ENDBRANCH  25  27
ENDBRANCH  21  22
ENDBRANCH   5  21
TORSDOF 5
ENDMDL
MODEL 3
REMARK VINA RESULT:      -8.3      5.831      8.485
REMARK  5 active torsions:
REMARK  status: ('A' for Active; 'I' for Inactive)
REMARK    1  A    between atoms: C_2  and  C_3 
REMARK    2  A    between atoms: C_3  and  N_4 
REMARK    3  A    between atoms: N_8  and  C_10 
REMARK    4  A    between atoms: C_10  and  C_11 
REMARK    5  A    between atoms: C_14  and  C_15 
ROOT
HETATM    1  N   UNL     1      41.750 -15.056   4.022  1.00  0.00     0.104 N 
HETATM    2  C   UNL     1      41.569 -13.557   3.861  1.00  0.00     0.206 C 
HETATM    3  C   UNL     1      42.900 -12.768   3.900  1.00  0.00     0.076 C 
HETATM    4  C   UNL     1      43.624 -12.965   5.229  1.00  0.00     0.238 C 
HETATM    5  N   UNL     1      42.777 -12.461   6.377  1.00  0.00    -0.065 N 
HETATM    6  H   UNL     1      43.269 -12.789   7.221  1.00  0.00     0.280 HD
HETATM    7  C   UNL     1      41.429 -13.138   6.402  1.00  0.00     0.238 C 
HETATM    8  C   UNL     1      40.722 -13.007   5.051  1.00  0.00     0.076 C 
HETATM    9  C   UNL     1      40.822 -13.285   2.570  1.00  0.00     0.072 A 
HETATM   10  C   UNL     1      40.071 -14.227   1.895  1.00  0.00     0.037 A 
HETATM   11  N   UNL     1      39.553 -13.596   0.787  1.00  0.00    -0.354 N 
HETATM   12  H   UNL     1      38.962 -14.032   0.078  1.00  0.00     0.166 HD
HETATM   13  C   UNL     1      39.949 -12.320   0.746  1.00  0.00     0.181 A 
HETATM   14  N   UNL     1      40.714 -12.119   1.831  1.00  0.00    -0.352 N 
HETATM   15  H   UNL     1      41.155 -11.222   2.026  1.00  0.00     0.166 HD
HETATM   16  C   UNL     1      39.922 -15.640   2.291  1.00  0.00     0.089 C 
HETATM   17  C   UNL     1      40.480 -15.812   3.727  1.00  0.00     0.280 C 
ENDROOT
BRANCH   1  18
HETATM   18  C   UNL     1      42.880 -15.633   3.239  1.00  0.00     0.273 C 
BRANCH  18  19
HETATM   19  C   UNL     1      43.387 -17.006   3.709  1.00  0.00     0.026 C 
HETATM   20  C   UNL     1      43.307 -18.077   2.630  1.00  0.00     0.007 C 
ENDBRANCH  18  19
ENDBRANCH   1  18
BRANCH   5  21
HETATM   21  C   UNL     1      42.715 -10.942   6.574  1.00  0.00     0.301 C 
BRANCH  21  22
HETATM   22  C   UNL     1      43.076 -10.523   7.940  1.00  0.00     0.107 A 
HETATM   23  O   UNL     1      44.070 -11.245   8.516  1.00  0.00    -0.216 OA
HETATM   24  N   UNL     1      44.141 -10.945   9.853  1.00  0.00    -0.128 NA
HETATM   25  C   UNL     1      43.234  -9.980  10.079  1.00  0.00     0.097 A 
HETATM   26  C   UNL     1      42.566  -9.645   8.865  1.00  0.00     0.071 A 
BRANCH  25  27
HETATM   27  C   UNL     1      42.951  -9.478  11.418  1.00  0.00    -0.005 A 
HETATM   28  C   UNL     1      41.915 -10.048  12.176  1.00  0.00     0.014 A 
HETATM   29  C   UNL     1      41.585  -9.528  13.428  1.00  0.00     0.001 A 
HETATM   30  C   UNL     1      42.293  -8.444  13.941  1.00  0.00     0.000 A 
HETATM   31  C   UNL     1      43.335  -7.881  13.205  1.00  0.00     0.001 A 
HETATM   32  C   UNL     1      43.662  -8.392  11.946  1.00  0.00     0.014 A 
ENDBRANCH  25  27
ENDBRANCH  21  22
ENDBRANCH   5  21
TORSDOF 5
ENDMDL
MODEL 4
REMARK VINA RESULT:      -8.1      4.575      7.190
REMARK  5 active torsions:
REMARK  status: ('A' for Active; 'I' for Inactive)
REMARK    1  A    between atoms: C_2  and  C_3 
REMARK    2  A    between atoms: C_3  and  N_4 
REMARK    3  A    between atoms: N_8  and  C_10 
REMARK    4  A    between atoms: C_10  and  C_11 
REMARK    5  A    between atoms: C_14  and  C_15 
ROOT
HETATM    1  N   UNL     1      43.470 -10.085   7.104  1.00  0.00     0.104 N 
HETATM    2  C   UNL     1      42.260 -10.805   6.535  1.00  0.00     0.206 C 
HETATM    3  C   UNL     1      42.401 -12.347   6.545  1.00  0.00     0.076 C 
HETATM    4  C   UNL     1      43.593 -12.801   5.707  1.00  0.00     0.238 C 
HETATM    5  N   UNL     1      43.422 -12.380   4.264  1.00  0.00    -0.065 N 
HETATM    6  H   UNL     1      44.337 -12.577   3.830  1.00  0.00     0.280 HD
HETATM    7  C   UNL     1      43.229 -10.889   4.147  1.00  0.00     0.238 C 
HETATM    8  C   UNL     1      42.079 -10.411   5.036  1.00  0.00     0.076 C 
HETATM    9  C   UNL     1      41.023 -10.376   7.301  1.00  0.00     0.072 A 
HETATM   10  C   UNL     1      40.946  -9.231   8.069  1.00  0.00     0.037 A 
HETATM   11  N   UNL     1      39.672  -9.192   8.588  1.00  0.00    -0.354 N 
HETATM   12  H   UNL     1      39.307  -8.471   9.212  1.00  0.00     0.166 HD
HETATM   13  C   UNL     1      38.967 -10.253   8.182  1.00  0.00     0.181 A 
HETATM   14  N   UNL     1      39.778 -10.975   7.392  1.00  0.00    -0.352 N 
HETATM   15  H   UNL     1      39.481 -11.849   6.963  1.00  0.00     0.166 HD
HETATM   16  C   UNL     1      42.054  -8.287   8.304  1.00  0.00     0.089 C 
HETATM   17  C   UNL     1      43.202  -8.617   7.316  1.00  0.00     0.280 C 
ENDROOT
BRANCH   1  18
HETATM   18  C   UNL     1      44.023 -10.688   8.350  1.00  0.00     0.273 C 
BRANCH  18  19
HETATM   19  C   UNL     1      45.264  -9.993   8.936  1.00  0.00     0.026 C 
HETATM   20  C   UNL     1      45.213  -9.853  10.451  1.00  0.00     0.007 C 
ENDBRANCH  18  19
ENDBRANCH   1  18
BRANCH   5  21
HETATM   21  C   UNL     1      42.446 -13.204   3.417  1.00  0.00     0.301 C 
BRANCH  21  22
HETATM   22  C   UNL     1      42.945 -14.558   3.115  1.00  0.00     0.107 A 
HETATM   23  O   UNL     1      43.077 -14.838   1.794  1.00  0.00    -0.216 OA
HETATM   24  N   UNL     1      43.292 -16.182   1.629  1.00  0.00    -0.128 NA
HETATM   25  C   UNL     1      43.365 -16.714   2.860  1.00  0.00     0.097 A 
HETATM   26  C   UNL     1      43.199 -15.695   3.843  1.00  0.00     0.071 A 
BRANCH  25  27
HETATM   27  C   UNL     1      43.485 -18.151   3.079  1.00  0.00    -0.005 A 
HETATM   28  C   UNL     1      43.931 -18.636   4.320  1.00  0.00     0.014 A 
HETATM   29  C   UNL     1      44.121 -20.004   4.518  1.00  0.00     0.001 A 
HETATM   30  C   UNL     1      43.859 -20.901   3.486  1.00  0.00     0.000 A 
HETATM   31  C   UNL     1      43.399 -20.432   2.256  1.00  0.00     0.001 A 
HETATM   32  C   UNL     1      43.216 -19.062   2.050  1.00  0.00     0.014 A 
ENDBRANCH  25  27
ENDBRANCH  21  22
ENDBRANCH   5  21
TORSDOF 5
ENDMDL
MODEL 5
REMARK VINA RESULT:      -8.1      2.339      9.004
REMARK  5 active torsions:
REMARK  status: ('A' for Active; 'I' for Inactive)
REMARK    1  A    between atoms: C_2  and  C_3 
REMARK    2  A    between atoms: C_3  and  N_4 
REMARK    3  A    between atoms: N_8  and  C_10 
REMARK    4  A    between atoms: C_10  and  C_11 
REMARK    5  A    between atoms: C_14  and  C_15 
ROOT
HETATM    1  N   UNL     1      42.903 -16.481   3.085  1.00  0.00     0.104 N 
HETATM    2  C   UNL     1      41.766 -15.524   3.394  1.00  0.00     0.206 C 
HETATM    3  C   UNL     1      40.571 -15.652   2.417  1.00  0.00     0.076 C 
HETATM    4  C   UNL     1      40.994 -15.354   0.981  1.00  0.00     0.238 C 
HETATM    5  N   UNL     1      41.516 -13.939   0.861  1.00  0.00    -0.065 N 
HETATM    6  H   UNL     1      41.925 -13.897  -0.085  1.00  0.00     0.280 HD
HETATM    7  C   UNL     1      42.660 -13.695   1.812  1.00  0.00     0.238 C 
HETATM    8  C   UNL     1      42.270 -14.055   3.247  1.00  0.00     0.076 C 
HETATM    9  C   UNL     1      41.312 -15.739   4.825  1.00  0.00     0.072 A 
HETATM   10  C   UNL     1      42.070 -16.370   5.791  1.00  0.00     0.037 A 
HETATM   11  N   UNL     1      41.321 -16.360   6.946  1.00  0.00    -0.354 N 
HETATM   12  H   UNL     1      41.603 -16.765   7.840  1.00  0.00     0.166 HD
HETATM   13  C   UNL     1      40.145 -15.760   6.737  1.00  0.00     0.181 A 
HETATM   14  N   UNL     1      40.133 -15.371   5.452  1.00  0.00    -0.352 N 
HETATM   15  H   UNL     1      39.334 -14.899   5.034  1.00  0.00     0.166 HD
HETATM   16  C   UNL     1      43.399 -16.970   5.574  1.00  0.00     0.089 C 
HETATM   17  C   UNL     1      43.927 -16.513   4.190  1.00  0.00     0.280 C 
ENDROOT
BRANCH   1  18
HETATM   18  C   UNL     1      42.473 -17.868   2.748  1.00  0.00     0.273 C 
BRANCH  18  19
HETATM   19  C   UNL     1      43.602 -18.905   2.622  1.00  0.00     0.026 C 
HETATM   20  C   UNL     1      43.179 -20.164   1.876  1.00  0.00     0.007 C 
ENDBRANCH  18  19
ENDBRANCH   1  18
BRANCH   5  21
HETATM   21  C   UNL     1      40.470 -12.818   0.841  1.00  0.00     0.301 C 
BRANCH  21  22
HETATM   22  C   UNL     1      40.722 -11.812  -0.207  1.00  0.00     0.107 A 
HETATM   23  O   UNL     1      40.961 -12.321  -1.442  1.00  0.00    -0.216 OA
HETATM   24  N   UNL     1      41.432 -11.329  -2.263  1.00  0.00    -0.128 NA
HETATM   25  C   UNL     1      41.411 -10.193  -1.546  1.00  0.00     0.097 A 
HETATM   26  C   UNL     1      40.913 -10.453  -0.236  1.00  0.00     0.071 A 
BRANCH  25  27
HETATM   27  C   UNL     1      41.944  -8.939  -2.064  1.00  0.00    -0.005 A 
HETATM   28  C   UNL     1      41.576  -8.497  -3.346  1.00  0.00     0.014 A 
HETATM   29  C   UNL     1      42.135  -7.337  -3.883  1.00  0.00     0.001 A 
HETATM   30  C   UNL     1      43.057  -6.601  -3.144  1.00  0.00     0.000 A 
HETATM   31  C   UNL     1      43.417  -7.021  -1.863  1.00  0.00     0.001 A 
HETATM   32  C   UNL     1      42.866  -8.187  -1.325  1.00  0.00     0.014 A 
ENDBRANCH  25  27
ENDBRANCH  21  22
ENDBRANCH   5  21
TORSDOF 5
ENDMDL
MODEL 6
REMARK VINA RESULT:      -7.7      2.334      8.424
REMARK  5 active torsions:
REMARK  status: ('A' for Active; 'I' for Inactive)
REMARK    1  A    between atoms: C_2  and  C_3 
REMARK    2  A    between atoms: C_3  and  N_4 
REMARK    3  A    between atoms: N_8  and  C_10 
REMARK    4  A    between atoms: C_10  and  C_11 
REMARK    5  A    between atoms: C_14  and  C_15 
ROOT
HETATM    1  N   UNL     1      42.199 -14.895   3.544  1.00  0.00     0.104 N 
HETATM    2  C   UNL     1      40.967 -14.072   3.215  1.00  0.00     0.206 C 
HETATM    3  C   UNL     1      39.834 -14.895   2.555  1.00  0.00     0.076 C 
HETATM    4  C   UNL     1      40.292 -15.512   1.236  1.00  0.00     0.238 C 
HETATM    5  N   UNL     1      40.688 -14.433   0.252  1.00  0.00    -0.065 N 
HETATM    6  H   UNL     1      41.134 -14.946  -0.524  1.00  0.00     0.280 HD
HETATM    7  C   UNL     1      41.761 -13.540   0.821  1.00  0.00     0.238 C 
HETATM    8  C   UNL     1      41.342 -12.969   2.177  1.00  0.00     0.076 C 
HETATM    9  C   UNL     1      40.470 -13.397   4.480  1.00  0.00     0.072 A 
HETATM   10  C   UNL     1      41.239 -13.213   5.612  1.00  0.00     0.037 A 
HETATM   11  N   UNL     1      40.441 -12.563   6.527  1.00  0.00    -0.354 N 
HETATM   12  H   UNL     1      40.718 -12.297   7.472  1.00  0.00     0.166 HD
HETATM   13  C   UNL     1      39.226 -12.343   6.015  1.00  0.00     0.181 A 
HETATM   14  N   UNL     1      39.237 -12.838   4.767  1.00  0.00    -0.352 N 
HETATM   15  H   UNL     1      38.417 -12.808   4.164  1.00  0.00     0.166 HD
HETATM   16  C   UNL     1      42.625 -13.684   5.787  1.00  0.00     0.089 C 
HETATM   17  C   UNL     1      43.171 -14.133   4.407  1.00  0.00     0.280 C 
ENDROOT
BRANCH   1  18
HETATM   18  C   UNL     1      41.913 -16.226   4.151  1.00  0.00     0.273 C 
BRANCH  18  19
HETATM   19  C   UNL     1      42.825 -17.378   3.696  1.00  0.00     0.026 C 
HETATM   20  C   UNL     1      43.313 -17.226   2.262  1.00  0.00     0.007 C 
ENDBRANCH  18  19
ENDBRANCH   1  18
BRANCH   5  21
HETATM   21  C   UNL     1      39.546 -13.676  -0.437  1.00  0.00     0.301 C 
BRANCH  21  22
HETATM   22  C   UNL     1      40.017 -12.546  -1.258  1.00  0.00     0.107 A 
HETATM   23  O   UNL     1      40.582 -12.895  -2.441  1.00  0.00    -0.216 OA
HETATM   24  N   UNL     1      41.208 -11.804  -2.990  1.00  0.00    -0.128 NA
HETATM   25  C   UNL     1      40.960 -10.767  -2.174  1.00  0.00     0.097 A 
HETATM   26  C   UNL     1      40.155 -11.192  -1.076  1.00  0.00     0.071 A 
BRANCH  25  27
HETATM   27  C   UNL     1      41.557  -9.453  -2.384  1.00  0.00    -0.005 A 
HETATM   28  C   UNL     1      41.330  -8.766  -3.588  1.00  0.00     0.014 A 
HETATM   29  C   UNL     1      41.955  -7.542  -3.833  1.00  0.00     0.001 A 
HETATM   30  C   UNL     1      42.802  -6.989  -2.877  1.00  0.00     0.000 A 
HETATM   31  C   UNL     1      43.021  -7.654  -1.671  1.00  0.00     0.001 A 
HETATM   32  C   UNL     1      42.405  -8.884  -1.425  1.00  0.00     0.014 A 
ENDBRANCH  25  27
ENDBRANCH  21  22
ENDBRANCH   5  21
TORSDOF 5
ENDMDL
MODEL 7
REMARK VINA RESULT:      -7.7      4.847      7.414
REMARK  5 active torsions:
REMARK  status: ('A' for Active; 'I' for Inactive)
REMARK    1  A    between atoms: C_2  and  C_3 
REMARK    2  A    between atoms: C_3  and  N_4 
REMARK    3  A    between atoms: N_8  and  C_10 
REMARK    4  A    between atoms: C_10  and  C_11 
REMARK    5  A    between atoms: C_14  and  C_15 
ROOT
HETATM    1  N   UNL     1      42.923  -9.047   7.325  1.00  0.00     0.104 N 
HETATM    2  C   UNL     1      41.627  -9.764   6.992  1.00  0.00     0.206 C 
HETATM    3  C   UNL     1      41.823 -11.262   6.650  1.00  0.00     0.076 C 
HETATM    4  C   UNL     1      42.727 -11.440   5.433  1.00  0.00     0.238 C 
HETATM    5  N   UNL     1      42.118 -10.782   4.215  1.00  0.00    -0.065 N 
HETATM    6  H   UNL     1      42.868 -10.809   3.507  1.00  0.00     0.280 HD
HETATM    7  C   UNL     1      41.842  -9.320   4.461  1.00  0.00     0.238 C 
HETATM    8  C   UNL     1      40.993  -9.124   5.718  1.00  0.00     0.076 C 
HETATM    9  C   UNL     1      40.660  -9.602   8.149  1.00  0.00     0.072 A 
HETATM   10  C   UNL     1      40.772  -8.628   9.121  1.00  0.00     0.037 A 
HETATM   11  N   UNL     1      39.710  -8.806   9.979  1.00  0.00    -0.354 N 
HETATM   12  H   UNL     1      39.521  -8.248  10.812  1.00  0.00     0.166 HD
HETATM   13  C   UNL     1      38.957  -9.838   9.585  1.00  0.00     0.181 A 
HETATM   14  N   UNL     1      39.522 -10.323   8.468  1.00  0.00    -0.352 N 
HETATM   15  H   UNL     1      39.144 -11.129   7.974  1.00  0.00     0.166 HD
HETATM   16  C   UNL     1      41.863  -7.640   9.216  1.00  0.00     0.089 C 
HETATM   17  C   UNL     1      42.676  -7.674   7.896  1.00  0.00     0.280 C 
ENDROOT
BRANCH   1  18
HETATM   18  C   UNL     1      43.845  -9.810   8.213  1.00  0.00     0.273 C 
BRANCH  18  19
HETATM   19  C   UNL     1      45.347  -9.635   7.928  1.00  0.00     0.026 C 
HETATM   20  C   UNL     1      45.987 -10.871   7.312  1.00  0.00     0.007 C 
ENDBRANCH  18  19
ENDBRANCH   1  18
BRANCH   5  21
HETATM   21  C   UNL     1      40.965 -11.528   3.533  1.00  0.00     0.301 C 
BRANCH  21  22
HETATM   22  C   UNL     1      41.154 -12.990   3.516  1.00  0.00     0.107 A 
HETATM   23  O   UNL     1      40.337 -13.682   4.350  1.00  0.00    -0.216 OA
HETATM   24  N   UNL     1      40.772 -14.980   4.445  1.00  0.00    -0.128 NA
HETATM   25  C   UNL     1      41.815 -15.099   3.607  1.00  0.00     0.097 A 
HETATM   26  C   UNL     1      42.059 -13.856   2.953  1.00  0.00     0.071 A 
BRANCH  25  27
HETATM   27  C   UNL     1      42.604 -16.322   3.518  1.00  0.00    -0.005 A 
HETATM   28  C   UNL     1      42.473 -17.160   2.399  1.00  0.00     0.014 A 
HETATM   29  C   UNL     1      43.165 -18.370   2.335  1.00  0.00     0.001 A 
HETATM   30  C   UNL     1      44.002 -18.749   3.381  1.00  0.00     0.000 A 
HETATM   31  C   UNL     1      44.153 -17.917   4.490  1.00  0.00     0.001 A 
HETATM   32  C   UNL     1      43.455 -16.709   4.562  1.00  0.00     0.014 A 
ENDBRANCH  25  27
ENDBRANCH  21  22
ENDBRANCH   5  21
TORSDOF 5
ENDMDL
MODEL 8
REMARK VINA RESULT:      -7.6      5.078      7.128
REMARK  5 active torsions:
REMARK  status: ('A' for Active; 'I' for Inactive)
REMARK    1  A    between atoms: C_2  and  C_3 
REMARK    2  A    between atoms: C_3  and  N_4 
REMARK    3  A    between atoms: N_8  and  C_10 
REMARK    4  A    between atoms: C_10  and  C_11 
REMARK    5  A    between atoms: C_14  and  C_15 
ROOT
HETATM    1  N   UNL     1      40.662  -8.492   6.150  1.00  0.00     0.104 N 
HETATM    2  C   UNL     1      40.798  -9.621   7.156  1.00  0.00     0.206 C 
HETATM    3  C   UNL     1      42.260 -10.089   7.362  1.00  0.00     0.076 C 
HETATM    4  C   UNL     1      42.865 -10.609   6.061  1.00  0.00     0.238 C 
HETATM    5  N   UNL     1      42.086 -11.800   5.549  1.00  0.00    -0.065 N 
HETATM    6  H   UNL     1      42.460 -11.963   4.602  1.00  0.00     0.280 HD
HETATM    7  C   UNL     1      40.629 -11.460   5.357  1.00  0.00     0.238 C 
HETATM    8  C   UNL     1      40.028 -10.874   6.636  1.00  0.00     0.076 C 
HETATM    9  C   UNL     1      40.185  -9.188   8.474  1.00  0.00     0.072 A 
HETATM   10  C   UNL     1      39.290  -8.144   8.605  1.00  0.00     0.037 A 
HETATM   11  N   UNL     1      38.963  -8.073   9.941  1.00  0.00    -0.354 N 
HETATM   12  H   UNL     1      38.330  -7.392  10.361  1.00  0.00     0.166 HD
HETATM   13  C   UNL     1      39.613  -9.014  10.633  1.00  0.00     0.181 A 
HETATM   14  N   UNL     1      40.352  -9.703   9.748  1.00  0.00    -0.352 N 
HETATM   15  H   UNL     1      40.957 -10.472  10.028  1.00  0.00     0.166 HD
HETATM   16  C   UNL     1      38.837  -7.267   7.510  1.00  0.00     0.089 C 
HETATM   17  C   UNL     1      39.280  -7.892   6.162  1.00  0.00     0.280 C 
ENDROOT
BRANCH   1  18
HETATM   18  C   UNL     1      41.686  -7.416   6.282  1.00  0.00     0.273 C 
BRANCH  18  19
HETATM   19  C   UNL     1      41.667  -6.337   5.186  1.00  0.00     0.026 C 
HETATM   20  C   UNL     1      41.668  -4.919   5.741  1.00  0.00     0.007 C 
ENDBRANCH  18  19
ENDBRANCH   1  18
BRANCH   5  21
HETATM   21  C   UNL     1      42.327 -13.138   6.257  1.00  0.00     0.301 C 
BRANCH  21  22
HETATM   22  C   UNL     1      42.790 -14.199   5.344  1.00  0.00     0.107 A 
HETATM   23  O   UNL     1      42.609 -13.937   4.025  1.00  0.00    -0.216 OA
HETATM   24  N   UNL     1      42.829 -15.078   3.296  1.00  0.00    -0.128 NA
HETATM   25  C   UNL     1      43.219 -16.022   4.168  1.00  0.00     0.097 A 
HETATM   26  C   UNL     1      43.256 -15.483   5.487  1.00  0.00     0.071 A 
BRANCH  25  27
HETATM   27  C   UNL     1      43.444 -17.405   3.766  1.00  0.00    -0.005 A 
HETATM   28  C   UNL     1      43.033 -17.841   2.495  1.00  0.00     0.014 A 
HETATM   29  C   UNL     1      43.174 -19.179   2.125  1.00  0.00     0.001 A 
HETATM   30  C   UNL     1      43.736 -20.092   3.014  1.00  0.00     0.000 A 
HETATM   31  C   UNL     1      44.163 -19.667   4.272  1.00  0.00     0.001 A 
HETATM   32  C   UNL     1      44.015 -18.330   4.650  1.00  0.00     0.014 A 
ENDBRANCH  25  27
ENDBRANCH  21  22
ENDBRANCH   5  21
TORSDOF 5
ENDMDL
MODEL 9
REMARK VINA RESULT:      -7.3      2.124      3.836
REMARK  5 active torsions:
REMARK  status: ('A' for Active; 'I' for Inactive)
REMARK    1  A    between atoms: C_2  and  C_3 
REMARK    2  A    between atoms: C_3  and  N_4 
REMARK    3  A    between atoms: N_8  and  C_10 
REMARK    4  A    between atoms: C_10  and  C_11 
REMARK    5  A    between atoms: C_14  and  C_15 
ROOT
HETATM    1  N   UNL     1      38.473 -10.600  -0.073  1.00  0.00     0.104 N 
HETATM    2  C   UNL     1      39.725 -10.445   0.772  1.00  0.00     0.206 C 
HETATM    3  C   UNL     1      41.026 -10.815   0.019  1.00  0.00     0.076 C 
HETATM    4  C   UNL     1      41.007 -12.269  -0.443  1.00  0.00     0.238 C 
HETATM    5  N   UNL     1      40.900 -13.204   0.741  1.00  0.00    -0.065 N 
HETATM    6  H   UNL     1      40.724 -14.129   0.322  1.00  0.00     0.280 HD
HETATM    7  C   UNL     1      39.681 -12.896   1.575  1.00  0.00     0.238 C 
HETATM    8  C   UNL     1      39.654 -11.423   1.987  1.00  0.00     0.076 C 
HETATM    9  C   UNL     1      39.796  -9.024   1.298  1.00  0.00     0.072 A 
HETATM   10  C   UNL     1      38.716  -8.167   1.360  1.00  0.00     0.037 A 
HETATM   11  N   UNL     1      39.181  -6.988   1.897  1.00  0.00    -0.354 N 
HETATM   12  H   UNL     1      38.623  -6.149   2.059  1.00  0.00     0.166 HD
HETATM   13  C   UNL     1      40.488  -7.077   2.164  1.00  0.00     0.181 A 
HETATM   14  N   UNL     1      40.869  -8.316   1.811  1.00  0.00    -0.352 N 
HETATM   15  H   UNL     1      41.832  -8.634   1.901  1.00  0.00     0.166 HD
HETATM   16  C   UNL     1      37.355  -8.475   0.884  1.00  0.00     0.089 C 
HETATM   17  C   UNL     1      37.265  -9.996   0.596  1.00  0.00     0.280 C 
ENDROOT
BRANCH   1  18
HETATM   18  C   UNL     1      38.597 -10.082  -1.466  1.00  0.00     0.273 C 
BRANCH  18  19
HETATM   19  C   UNL     1      37.753 -10.810  -2.526  1.00  0.00     0.026 C 
HETATM   20  C   UNL     1      37.743 -12.322  -2.349  1.00  0.00     0.007 C 
ENDBRANCH  18  19
ENDBRANCH   1  18
BRANCH   5  21
HETATM   21  C   UNL     1      42.176 -13.426   1.561  1.00  0.00     0.301 C 
BRANCH  21  22
HETATM   22  C   UNL     1      42.230 -14.756   2.196  1.00  0.00     0.107 A 
HETATM   23  O   UNL     1      42.016 -14.759   3.536  1.00  0.00    -0.216 OA
HETATM   24  N   UNL     1      42.343 -15.988   4.049  1.00  0.00    -0.128 NA
HETATM   25  C   UNL     1      42.688 -16.762   3.006  1.00  0.00     0.097 A 
HETATM   26  C   UNL     1      42.578 -16.022   1.793  1.00  0.00     0.071 A 
BRANCH  25  27
HETATM   27  C   UNL     1      43.198 -18.117   3.180  1.00  0.00    -0.005 A 
HETATM   28  C   UNL     1      43.042 -19.061   2.152  1.00  0.00     0.014 A 
HETATM   29  C   UNL     1      43.459 -20.380   2.333  1.00  0.00     0.001 A 
HETATM   30  C   UNL     1      44.044 -20.767   3.535  1.00  0.00     0.000 A 
HETATM   31  C   UNL     1      44.219 -19.834   4.557  1.00  0.00     0.001 A 
HETATM   32  C   UNL     1      43.795 -18.514   4.383  1.00  0.00     0.014 A 
ENDBRANCH  25  27
ENDBRANCH  21  22
ENDBRANCH   5  21
TORSDOF 5
ENDMDL
MODEL 10
REMARK VINA RESULT:      -7.2      3.833      5.237
REMARK  5 active torsions:
REMARK  status: ('A' for Active; 'I' for Inactive)
REMARK    1  A    between atoms: C_2  and  C_3 
REMARK    2  A    between atoms: C_3  and  N_4 
REMARK    3  A    between atoms: N_8  and  C_10 
REMARK    4  A    between atoms: C_10  and  C_11 
REMARK    5  A    between atoms: C_14  and  C_15 
ROOT
HETATM    1  N   UNL     1      41.136  -8.930   5.334  1.00  0.00     0.104 N 
HETATM    2  C   UNL     1      40.357  -9.702   4.284  1.00  0.00     0.206 C 
HETATM    3  C   UNL     1      39.808 -11.056   4.796  1.00  0.00     0.076 C 
HETATM    4  C   UNL     1      40.938 -11.978   5.246  1.00  0.00     0.238 C 
HETATM    5  N   UNL     1      41.868 -12.285   4.093  1.00  0.00    -0.065 N 
HETATM    6  H   UNL     1      42.671 -12.761   4.531  1.00  0.00     0.280 HD
HETATM    7  C   UNL     1      42.425 -11.021   3.487  1.00  0.00     0.238 C 
HETATM    8  C   UNL     1      41.303 -10.058   3.095  1.00  0.00     0.076 C 
HETATM    9  C   UNL     1      39.230  -8.831   3.762  1.00  0.00     0.072 A 
HETATM   10  C   UNL     1      39.188  -7.457   3.895  1.00  0.00     0.037 A 
HETATM   11  N   UNL     1      38.023  -7.040   3.292  1.00  0.00    -0.354 N 
HETATM   12  H   UNL     1      37.698  -6.074   3.235  1.00  0.00     0.166 HD
HETATM   13  C   UNL     1      37.350  -8.084   2.801  1.00  0.00     0.181 A 
HETATM   14  N   UNL     1      38.080  -9.178   3.074  1.00  0.00    -0.352 N 
HETATM   15  H   UNL     1      37.775 -10.114   2.815  1.00  0.00     0.166 HD
HETATM   16  C   UNL     1      40.192  -6.638   4.600  1.00  0.00     0.089 C 
HETATM   17  C   UNL     1      41.433  -7.520   4.890  1.00  0.00     0.280 C 
ENDROOT
BRANCH   1  18
HETATM   18  C   UNL     1      40.509  -8.916   6.687  1.00  0.00     0.273 C 
BRANCH  18  19
HETATM   19  C   UNL     1      41.374  -9.477   7.829  1.00  0.00     0.026 C 
HETATM   20  C   UNL     1      42.846  -9.597   7.462  1.00  0.00     0.007 C 
ENDBRANCH  18  19
ENDBRANCH   1  18
BRANCH   5  21
HETATM   21  C   UNL     1      41.373 -13.305   3.061  1.00  0.00     0.301 C 
BRANCH  21  22
HETATM   22  C   UNL     1      42.220 -14.510   2.991  1.00  0.00     0.107 A 
HETATM   23  O   UNL     1      42.996 -14.600   1.881  1.00  0.00    -0.216 OA
HETATM   24  N   UNL     1      43.532 -15.859   1.797  1.00  0.00    -0.128 NA
HETATM   25  C   UNL     1      43.141 -16.519   2.900  1.00  0.00     0.097 A 
HETATM   26  C   UNL     1      42.339 -15.670   3.717  1.00  0.00     0.071 A 
BRANCH  25  27
HETATM   27  C   UNL     1      43.439 -17.931   3.106  1.00  0.00    -0.005 A 
HETATM   28  C   UNL     1      43.102 -18.870   2.117  1.00  0.00     0.014 A 
HETATM   29  C   UNL     1      43.313 -20.233   2.333  1.00  0.00     0.001 A 
HETATM   30  C   UNL     1      43.871 -20.670   3.531  1.00  0.00     0.000 A 
HETATM   31  C   UNL     1      44.224 -19.745   4.514  1.00  0.00     0.001 A 
HETATM   32  C   UNL     1      44.006 -18.381   4.305  1.00  0.00     0.014 A 
ENDBRANCH  25  27
ENDBRANCH  21  22
ENDBRANCH   5  21
TORSDOF 5
ENDMDL
