MODEL 1
REMARK VINA RESULT:      -8.5      0.000      0.000
REMARK  4 active torsions:
REMARK  status: ('A' for Active; 'I' for Inactive)
REMARK       I    between atoms: C_2  and  N_3 
REMARK    1  A    between atoms: N_3  and  C_4 
REMARK    2  A    between atoms: C_7  and  C_8 
REMARK    3  A    between atoms: C_12  and  N_13 
REMARK    4  A    between atoms: C_20  and  C_21 
ROOT
HETATM    1  C   UNL     1      41.561 -13.544   4.365  1.00  0.00     0.105 C 
HETATM    2  C   UNL     1      41.041 -12.232   4.946  1.00  0.00     0.067 C 
HETATM    3  C   UNL     1      41.792 -10.979   4.527  1.00  0.00     0.020 C 
HETATM    4  N   UNL     1      42.414  -9.940   4.178  1.00  0.00    -0.096 N 
HETATM    5  C   UNL     1      40.075 -12.166   5.901  1.00  0.00     0.139 C 
HETATM    6  O   UNL     1      39.484 -13.328   6.432  1.00  0.00    -0.279 OA
HETATM    7  C   UNL     1      40.041 -14.481   6.074  1.00  0.00     0.175 A 
HETATM    8  C   UNL     1      41.024 -14.696   5.142  1.00  0.00     0.040 A 
HETATM    9  N   UNL     1      39.731 -15.689   6.602  1.00  0.00    -0.256 N 
HETATM   10  H   UNL     1      39.048 -15.907   7.320  1.00  0.00     0.191 HD
HETATM   11  N   UNL     1      40.467 -16.689   6.082  1.00  0.00    -0.172 NA
HETATM   12  C   UNL     1      41.299 -16.088   5.205  1.00  0.00     0.099 A 
ENDROOT
BRANCH   1  13
HETATM   13  C   UNL     1      41.124 -13.742   2.919  1.00  0.00    -0.044 A 
HETATM   14  C   UNL     1      42.076 -14.090   1.949  1.00  0.00     0.010 A 
HETATM   15  C   UNL     1      41.723 -14.239   0.598  1.00  0.00     0.030 A 
HETATM   16  C   UNL     1      40.409 -14.047   0.179  1.00  0.00     0.034 A 
HETATM   17  C   UNL     1      39.457 -13.688   1.143  1.00  0.00     0.030 A 
HETATM   18  C   UNL     1      39.807 -13.529   2.487  1.00  0.00     0.010 A 
BRANCH  16  19
HETATM   19  N   UNL     1      39.932 -14.165  -1.138  1.00  0.00    -0.328 N 
HETATM   20  C   UNL     1      40.091 -13.449  -2.284  1.00  0.00     0.218 C 
HETATM   21  C   UNL     1      40.954 -12.226  -2.346  1.00  0.00     0.117 C 
HETATM   22  O   UNL     1      39.495 -13.838  -3.294  1.00  0.00    -0.274 OA
HETATM   23  H   UNL     1      39.328 -14.959  -1.318  1.00  0.00     0.169 HD
ENDBRANCH  16  19
ENDBRANCH   1  13
BRANCH   5  24
HETATM   24  N   UNL     1      39.595 -11.010   6.471  1.00  0.00    -0.282 NA
HETATM   25  H   UNL     1      40.261 -10.488   7.035  1.00  0.00     0.126 HD
HETATM   26  H   UNL     1      39.099 -10.427   5.800  1.00  0.00     0.126 HD
ENDBRANCH   5  24
BRANCH  12  27
HETATM   27  C   UNL     1      42.296 -16.863   4.469  1.00  0.00    -0.005 A 
HETATM   28  C   UNL     1      42.086 -17.170   3.118  1.00  0.00     0.014 A 
HETATM   29  C   UNL     1      43.028 -17.916   2.403  1.00  0.00     0.001 A 
HETATM   30  C   UNL     1      44.185 -18.366   3.035  1.00  0.00     0.000 A 
HETATM   31  C   UNL     1      44.398 -18.079   4.383  1.00  0.00     0.001 A 
HETATM   32  C   UNL     1      43.456 -17.336   5.098  1.00  0.00     0.014 A 
ENDBRANCH  12  27
TORSDOF 4
ENDMDL
MODEL 2
REMARK VINA RESULT:      -8.3      2.780      5.356
REMARK  4 active torsions:
REMARK  status: ('A' for Active; 'I' for Inactive)
REMARK       I    between atoms: C_2  and  N_3 
REMARK    1  A    between atoms: N_3  and  C_4 
REMARK    2  A    between atoms: C_7  and  C_8 
REMARK    3  A    between atoms: C_12  and  N_13 
REMARK    4  A    between atoms: C_20  and  C_21 
ROOT
HETATM    1  C   UNL     1      41.217 -12.640   2.163  1.00  0.00     0.105 C 
HETATM    2  C   UNL     1      40.241 -12.399   1.015  1.00  0.00     0.067 C 
HETATM    3  C   UNL     1      40.863 -12.259  -0.364  1.00  0.00     0.020 C 
HETATM    4  N   UNL     1      41.380 -12.143  -1.509  1.00  0.00    -0.096 N 
HETATM    5  C   UNL     1      38.914 -12.162   1.196  1.00  0.00     0.139 C 
HETATM    6  O   UNL     1      38.344 -12.116   2.482  1.00  0.00    -0.279 OA
HETATM    7  C   UNL     1      39.198 -12.145   3.501  1.00  0.00     0.175 A 
HETATM    8  C   UNL     1      40.552 -12.361   3.466  1.00  0.00     0.040 A 
HETATM    9  N   UNL     1      38.866 -11.943   4.798  1.00  0.00    -0.256 N 
HETATM   10  H   UNL     1      37.951 -11.753   5.192  1.00  0.00     0.191 HD
HETATM   11  N   UNL     1      39.929 -11.997   5.622  1.00  0.00    -0.172 NA
HETATM   12  C   UNL     1      40.986 -12.216   4.811  1.00  0.00     0.099 A 
ENDROOT
BRANCH   1  13
HETATM   13  C   UNL     1      41.698 -14.085   2.211  1.00  0.00    -0.044 A 
HETATM   14  C   UNL     1      43.038 -14.380   1.923  1.00  0.00     0.010 A 
HETATM   15  C   UNL     1      43.511 -15.702   1.913  1.00  0.00     0.030 A 
HETATM   16  C   UNL     1      42.659 -16.766   2.193  1.00  0.00     0.034 A 
HETATM   17  C   UNL     1      41.316 -16.478   2.471  1.00  0.00     0.030 A 
HETATM   18  C   UNL     1      40.839 -15.164   2.472  1.00  0.00     0.010 A 
BRANCH  16  19
HETATM   19  N   UNL     1      43.010 -18.127   2.214  1.00  0.00    -0.328 N 
HETATM   20  C   UNL     1      43.717 -18.923   3.062  1.00  0.00     0.218 C 
HETATM   21  C   UNL     1      44.321 -18.398   4.329  1.00  0.00     0.117 C 
HETATM   22  O   UNL     1      43.852 -20.112   2.758  1.00  0.00    -0.274 OA
HETATM   23  H   UNL     1      42.675 -18.681   1.434  1.00  0.00     0.169 HD
ENDBRANCH  16  19
ENDBRANCH   1  13
BRANCH   5  24
HETATM   24  N   UNL     1      38.004 -11.914   0.195  1.00  0.00    -0.282 NA
HETATM   25  H   UNL     1      37.464 -11.058   0.293  1.00  0.00     0.126 HD
HETATM   26  H   UNL     1      38.412 -12.022  -0.731  1.00  0.00     0.126 HD
ENDBRANCH   5  24
BRANCH  12  27
HETATM   27  C   UNL     1      42.341 -12.289   5.354  1.00  0.00    -0.005 A 
HETATM   28  C   UNL     1      42.714 -13.369   6.165  1.00  0.00     0.014 A 
HETATM   29  C   UNL     1      44.005 -13.449   6.695  1.00  0.00     0.001 A 
HETATM   30  C   UNL     1      44.933 -12.446   6.423  1.00  0.00     0.000 A 
HETATM   31  C   UNL     1      44.569 -11.358   5.630  1.00  0.00     0.001 A 
HETATM   32  C   UNL     1      43.278 -11.277   5.101  1.00  0.00     0.014 A 
ENDBRANCH  12  27
TORSDOF 4
ENDMDL
MODEL 3
REMARK VINA RESULT:      -8.2      2.915      6.480
REMARK  4 active torsions:
REMARK  status: ('A' for Active; 'I' for Inactive)
REMARK       I    between atoms: C_2  and  N_3 
REMARK    1  A    between atoms: N_3  and  C_4 
REMARK    2  A    between atoms: C_7  and  C_8 
REMARK    3  A    between atoms: C_12  and  N_13 
REMARK    4  A    between atoms: C_20  and  C_21 
ROOT
HETATM    1  C   UNL     1      40.259 -12.205   1.690  1.00  0.00     0.105 C 
HETATM    2  C   UNL     1      40.633 -11.360   2.905  1.00  0.00     0.067 C 
HETATM    3  C   UNL     1      39.912 -11.704   4.197  1.00  0.00     0.020 C 
HETATM    4  N   UNL     1      39.314 -11.990   5.270  1.00  0.00    -0.096 N 
HETATM    5  C   UNL     1      41.433 -10.262   2.837  1.00  0.00     0.139 C 
HETATM    6  O   UNL     1      41.976  -9.822   1.615  1.00  0.00    -0.279 OA
HETATM    7  C   UNL     1      41.525 -10.431   0.523  1.00  0.00     0.175 A 
HETATM    8  C   UNL     1      40.709 -11.531   0.441  1.00  0.00     0.040 A 
HETATM    9  N   UNL     1      41.792 -10.045  -0.748  1.00  0.00    -0.256 N 
HETATM   10  H   UNL     1      42.361  -9.267  -1.063  1.00  0.00     0.191 HD
HETATM   11  N   UNL     1      41.184 -10.819  -1.665  1.00  0.00    -0.172 NA
HETATM   12  C   UNL     1      40.479 -11.720  -0.948  1.00  0.00     0.099 A 
ENDROOT
BRANCH   1  13
HETATM   13  C   UNL     1      40.925 -13.575   1.720  1.00  0.00    -0.044 A 
HETATM   14  C   UNL     1      40.131 -14.730   1.771  1.00  0.00     0.010 A 
HETATM   15  C   UNL     1      40.705 -16.009   1.845  1.00  0.00     0.030 A 
HETATM   16  C   UNL     1      42.088 -16.170   1.866  1.00  0.00     0.034 A 
HETATM   17  C   UNL     1      42.885 -15.019   1.827  1.00  0.00     0.030 A 
HETATM   18  C   UNL     1      42.317 -13.743   1.764  1.00  0.00     0.010 A 
BRANCH  16  19
HETATM   19  N   UNL     1      42.781 -17.392   1.938  1.00  0.00    -0.328 N 
HETATM   20  C   UNL     1      43.431 -18.070   2.922  1.00  0.00     0.218 C 
HETATM   21  C   UNL     1      43.515 -17.551   4.325  1.00  0.00     0.117 C 
HETATM   22  O   UNL     1      43.961 -19.146   2.627  1.00  0.00    -0.274 OA
HETATM   23  H   UNL     1      42.826 -17.923   1.076  1.00  0.00     0.169 HD
ENDBRANCH  16  19
ENDBRANCH   1  13
BRANCH   5  24
HETATM   24  N   UNL     1      41.775  -9.457   3.899  1.00  0.00    -0.282 NA
HETATM   25  H   UNL     1      41.128  -8.699   4.102  1.00  0.00     0.126 HD
HETATM   26  H   UNL     1      42.028  -9.996   4.724  1.00  0.00     0.126 HD
ENDBRANCH   5  24
BRANCH  12  27
HETATM   27  C   UNL     1      39.640 -12.714  -1.615  1.00  0.00    -0.005 A 
HETATM   28  C   UNL     1      40.168 -13.968  -1.946  1.00  0.00     0.014 A 
HETATM   29  C   UNL     1      39.379 -14.926  -2.589  1.00  0.00     0.001 A 
HETATM   30  C   UNL     1      38.056 -14.636  -2.911  1.00  0.00     0.000 A 
HETATM   31  C   UNL     1      37.522 -13.386  -2.600  1.00  0.00     0.001 A 
HETATM   32  C   UNL     1      38.311 -12.427  -1.960  1.00  0.00     0.014 A 
ENDBRANCH  12  27
TORSDOF 4
ENDMDL
MODEL 4
REMARK VINA RESULT:      -8.1      3.097      5.876
REMARK  4 active torsions:
REMARK  status: ('A' for Active; 'I' for Inactive)
REMARK       I    between atoms: C_2  and  N_3 
REMARK    1  A    between atoms: N_3  and  C_4 
REMARK    2  A    between atoms: C_7  and  C_8 
REMARK    3  A    between atoms: C_12  and  N_13 
REMARK    4  A    between atoms: C_20  and  C_21 
ROOT
HETATM    1  C   UNL     1      41.014 -13.532   4.330  1.00  0.00     0.105 C 
HETATM    2  C   UNL     1      40.029 -12.427   3.959  1.00  0.00     0.067 C 
HETATM    3  C   UNL     1      39.254 -11.816   5.115  1.00  0.00     0.020 C 
HETATM    4  N   UNL     1      38.612 -11.309   6.075  1.00  0.00    -0.096 N 
HETATM    5  C   UNL     1      39.722 -12.095   2.677  1.00  0.00     0.139 C 
HETATM    6  O   UNL     1      40.301 -12.768   1.584  1.00  0.00    -0.279 OA
HETATM    7  C   UNL     1      41.022 -13.845   1.878  1.00  0.00     0.175 A 
HETATM    8  C   UNL     1      41.395 -14.305   3.115  1.00  0.00     0.040 A 
HETATM    9  N   UNL     1      41.517 -14.719   0.969  1.00  0.00    -0.256 N 
HETATM   10  H   UNL     1      41.431 -14.694  -0.041  1.00  0.00     0.191 HD
HETATM   11  N   UNL     1      42.184 -15.740   1.539  1.00  0.00    -0.172 NA
HETATM   12  C   UNL     1      42.086 -15.521   2.867  1.00  0.00     0.099 A 
ENDROOT
BRANCH   1  13
HETATM   13  C   UNL     1      42.301 -12.975   4.924  1.00  0.00    -0.044 A 
HETATM   14  C   UNL     1      42.693 -13.362   6.215  1.00  0.00     0.010 A 
HETATM   15  C   UNL     1      43.848 -12.838   6.816  1.00  0.00     0.030 A 
HETATM   16  C   UNL     1      44.646 -11.915   6.144  1.00  0.00     0.034 A 
HETATM   17  C   UNL     1      44.253 -11.517   4.860  1.00  0.00     0.030 A 
HETATM   18  C   UNL     1      43.097 -12.029   4.262  1.00  0.00     0.010 A 
BRANCH  16  19
HETATM   19  N   UNL     1      45.821 -11.320   6.636  1.00  0.00    -0.328 N 
HETATM   20  C   UNL     1      46.104 -10.427   7.623  1.00  0.00     0.218 C 
HETATM   21  C   UNL     1      45.038  -9.850   8.504  1.00  0.00     0.117 C 
HETATM   22  O   UNL     1      47.284 -10.097   7.781  1.00  0.00    -0.274 OA
HETATM   23  H   UNL     1      46.681 -11.598   6.177  1.00  0.00     0.169 HD
ENDBRANCH  16  19
ENDBRANCH   1  13
BRANCH   5  24
HETATM   24  N   UNL     1      38.823 -11.126   2.297  1.00  0.00    -0.282 NA
HETATM   25  H   UNL     1      38.444 -10.558   3.050  1.00  0.00     0.126 HD
HETATM   26  H   UNL     1      39.161 -10.573   1.513  1.00  0.00     0.126 HD
ENDBRANCH   5  24
BRANCH  12  27
HETATM   27  C   UNL     1      42.661 -16.464   3.825  1.00  0.00    -0.005 A 
HETATM   28  C   UNL     1      43.672 -17.346   3.420  1.00  0.00     0.014 A 
HETATM   29  C   UNL     1      44.225 -18.257   4.323  1.00  0.00     0.001 A 
HETATM   30  C   UNL     1      43.769 -18.299   5.638  1.00  0.00     0.000 A 
HETATM   31  C   UNL     1      42.753 -17.438   6.050  1.00  0.00     0.001 A 
HETATM   32  C   UNL     1      42.197 -16.528   5.147  1.00  0.00     0.014 A 
ENDBRANCH  12  27
TORSDOF 4
ENDMDL
MODEL 5
REMARK VINA RESULT:      -7.7      3.876      6.550
REMARK  4 active torsions:
REMARK  status: ('A' for Active; 'I' for Inactive)
REMARK       I    between atoms: C_2  and  N_3 
REMARK    1  A    between atoms: N_3  and  C_4 
REMARK    2  A    between atoms: C_7  and  C_8 
REMARK    3  A    between atoms: C_12  and  N_13 
REMARK    4  A    between atoms: C_20  and  C_21 
ROOT
HETATM    1  C   UNL     1      41.196  -9.950   5.640  1.00  0.00     0.105 C 
HETATM    2  C   UNL     1      39.825  -9.658   5.034  1.00  0.00     0.067 C 
HETATM    3  C   UNL     1      39.806  -9.399   3.537  1.00  0.00     0.020 C 
HETATM    4  N   UNL     1      39.790  -9.185   2.294  1.00  0.00    -0.096 N 
HETATM    5  C   UNL     1      38.700  -9.476   5.776  1.00  0.00     0.139 C 
HETATM    6  O   UNL     1      38.728  -9.542   7.182  1.00  0.00    -0.279 OA
HETATM    7  C   UNL     1      39.932  -9.617   7.739  1.00  0.00     0.175 A 
HETATM    8  C   UNL     1      41.145  -9.786   7.119  1.00  0.00     0.040 A 
HETATM    9  N   UNL     1      40.181  -9.519   9.067  1.00  0.00    -0.256 N 
HETATM   10  H   UNL     1      39.519  -9.387   9.823  1.00  0.00     0.191 HD
HETATM   11  N   UNL     1      41.493  -9.598   9.358  1.00  0.00    -0.172 NA
HETATM   12  C   UNL     1      42.107  -9.725   8.163  1.00  0.00     0.099 A 
ENDROOT
BRANCH   1  13
HETATM   13  C   UNL     1      41.649 -11.378   5.367  1.00  0.00    -0.044 A 
HETATM   14  C   UNL     1      42.729 -11.609   4.502  1.00  0.00     0.010 A 
HETATM   15  C   UNL     1      43.150 -12.911   4.189  1.00  0.00     0.030 A 
HETATM   16  C   UNL     1      42.506 -14.019   4.734  1.00  0.00     0.034 A 
HETATM   17  C   UNL     1      41.420 -13.794   5.590  1.00  0.00     0.030 A 
HETATM   18  C   UNL     1      40.991 -12.499   5.896  1.00  0.00     0.010 A 
BRANCH  16  19
HETATM   19  N   UNL     1      42.832 -15.367   4.500  1.00  0.00    -0.328 N 
HETATM   20  C   UNL     1      43.602 -16.293   5.133  1.00  0.00     0.218 C 
HETATM   21  C   UNL     1      44.336 -15.983   6.402  1.00  0.00     0.117 C 
HETATM   22  O   UNL     1      43.684 -17.417   4.629  1.00  0.00    -0.274 OA
HETATM   23  H   UNL     1      42.412 -15.785   3.677  1.00  0.00     0.169 HD
ENDBRANCH  16  19
ENDBRANCH   1  13
BRANCH   5  24
HETATM   24  N   UNL     1      37.453  -9.187   5.275  1.00  0.00    -0.282 NA
HETATM   25  H   UNL     1      37.135  -9.781   4.513  1.00  0.00     0.126 HD
HETATM   26  H   UNL     1      36.759  -9.078   6.011  1.00  0.00     0.126 HD
ENDBRANCH   5  24
BRANCH  12  27
HETATM   27  C   UNL     1      43.565  -9.793   8.075  1.00  0.00    -0.005 A 
HETATM   28  C   UNL     1      44.189 -10.992   7.707  1.00  0.00     0.014 A 
HETATM   29  C   UNL     1      45.581 -11.074   7.625  1.00  0.00     0.001 A 
HETATM   30  C   UNL     1      46.363  -9.958   7.915  1.00  0.00     0.000 A 
HETATM   31  C   UNL     1      45.755  -8.763   8.297  1.00  0.00     0.001 A 
HETATM   32  C   UNL     1      44.362  -8.681   8.382  1.00  0.00     0.014 A 
ENDBRANCH  12  27
TORSDOF 4
ENDMDL
MODEL 6
REMARK VINA RESULT:      -7.6      6.405      8.889
REMARK  4 active torsions:
REMARK  status: ('A' for Active; 'I' for Inactive)
REMARK       I    between atoms: C_2  and  N_3 
REMARK    1  A    between atoms: N_3  and  C_4 
REMARK    2  A    between atoms: C_7  and  C_8 
REMARK    3  A    between atoms: C_12  and  N_13 
REMARK    4  A    between atoms: C_20  and  C_21 
ROOT
HETATM    1  C   UNL     1      42.802  -7.954  10.832  1.00  0.00     0.105 C 
HETATM    2  C   UNL     1      42.190  -7.213  12.018  1.00  0.00     0.067 C 
HETATM    3  C   UNL     1      42.143  -5.699  11.900  1.00  0.00     0.020 C 
HETATM    4  N   UNL     1      42.104  -4.442  11.801  1.00  0.00    -0.096 N 
HETATM    5  C   UNL     1      41.846  -7.821  13.185  1.00  0.00     0.139 C 
HETATM    6  O   UNL     1      42.041  -9.201  13.382  1.00  0.00    -0.279 OA
HETATM    7  C   UNL     1      42.731  -9.833  12.438  1.00  0.00     0.175 A 
HETATM    8  C   UNL     1      43.154  -9.346  11.227  1.00  0.00     0.040 A 
HETATM    9  N   UNL     1      43.168 -11.112  12.520  1.00  0.00    -0.256 N 
HETATM   10  H   UNL     1      43.040 -11.774  13.278  1.00  0.00     0.191 HD
HETATM   11  N   UNL     1      43.870 -11.494  11.437  1.00  0.00    -0.172 NA
HETATM   12  C   UNL     1      43.904 -10.403  10.643  1.00  0.00     0.099 A 
ENDROOT
BRANCH   1  13
HETATM   13  C   UNL     1      41.833  -8.056   9.661  1.00  0.00    -0.044 A 
HETATM   14  C   UNL     1      40.495  -8.406   9.896  1.00  0.00     0.010 A 
HETATM   15  C   UNL     1      39.582  -8.554   8.840  1.00  0.00     0.030 A 
HETATM   16  C   UNL     1      39.978  -8.354   7.520  1.00  0.00     0.034 A 
HETATM   17  C   UNL     1      41.316  -8.015   7.279  1.00  0.00     0.030 A 
HETATM   18  C   UNL     1      42.231  -7.877   8.327  1.00  0.00     0.010 A 
BRANCH  16  19
HETATM   19  N   UNL     1      39.161  -8.471   6.382  1.00  0.00    -0.328 N 
HETATM   20  C   UNL     1      38.637  -9.513   5.680  1.00  0.00     0.218 C 
HETATM   21  C   UNL     1      38.866 -10.938   6.081  1.00  0.00     0.117 C 
HETATM   22  O   UNL     1      37.954  -9.251   4.685  1.00  0.00    -0.274 OA
HETATM   23  H   UNL     1      38.872  -7.598   5.956  1.00  0.00     0.169 HD
ENDBRANCH  16  19
ENDBRANCH   1  13
BRANCH   5  24
HETATM   24  N   UNL     1      41.317  -7.190  14.287  1.00  0.00    -0.282 NA
HETATM   25  H   UNL     1      40.585  -7.698  14.777  1.00  0.00     0.126 HD
HETATM   26  H   UNL     1      42.039  -6.834  14.910  1.00  0.00     0.126 HD
ENDBRANCH   5  24
BRANCH  12  27
HETATM   27  C   UNL     1      44.631 -10.423   9.376  1.00  0.00    -0.005 A 
HETATM   28  C   UNL     1      45.693  -9.533   9.163  1.00  0.00     0.014 A 
HETATM   29  C   UNL     1      46.393  -9.537   7.953  1.00  0.00     0.001 A 
HETATM   30  C   UNL     1      46.035 -10.427   6.944  1.00  0.00     0.000 A 
HETATM   31  C   UNL     1      44.972 -11.308   7.138  1.00  0.00     0.001 A 
HETATM   32  C   UNL     1      44.269 -11.303   8.346  1.00  0.00     0.014 A 
ENDBRANCH  12  27
TORSDOF 4
ENDMDL
MODEL 7
REMARK VINA RESULT:      -7.4     15.497     17.573
REMARK  4 active torsions:
REMARK  status: ('A' for Active; 'I' for Inactive)
REMARK       I    between atoms: C_2  and  N_3 
REMARK    1  A    between atoms: N_3  and  C_4 
REMARK    2  A    between atoms: C_7  and  C_8 
REMARK    3  A    between atoms: C_12  and  N_13 
REMARK    4  A    between atoms: C_20  and  C_21 
ROOT
HETATM    1  C   UNL     1      45.520 -30.591  -1.319  1.00  0.00     0.105 C 
HETATM    2  C   UNL     1      44.736 -30.787  -2.614  1.00  0.00     0.067 C 
HETATM    3  C   UNL     1      44.196 -32.187  -2.856  1.00  0.00     0.020 C 
HETATM    4  N   UNL     1      43.747 -33.348  -3.055  1.00  0.00    -0.096 N 
HETATM    5  C   UNL     1      44.644 -29.839  -3.586  1.00  0.00     0.139 C 
HETATM    6  O   UNL     1      45.283 -28.591  -3.459  1.00  0.00    -0.279 OA
HETATM    7  C   UNL     1      46.113 -28.463  -2.429  1.00  0.00     0.175 A 
HETATM    8  C   UNL     1      46.317 -29.335  -1.390  1.00  0.00     0.040 A 
HETATM    9  N   UNL     1      46.944 -27.412  -2.228  1.00  0.00    -0.256 N 
HETATM   10  H   UNL     1      47.061 -26.583  -2.800  1.00  0.00     0.191 HD
HETATM   11  N   UNL     1      47.699 -27.550  -1.122  1.00  0.00    -0.172 NA
HETATM   12  C   UNL     1      47.352 -28.750  -0.612  1.00  0.00     0.099 A 
ENDROOT
BRANCH   1  13
HETATM   13  C   UNL     1      44.602 -30.466  -0.109  1.00  0.00    -0.044 A 
HETATM   14  C   UNL     1      43.625 -29.461  -0.081  1.00  0.00     0.010 A 
HETATM   15  C   UNL     1      42.789 -29.284   1.032  1.00  0.00     0.030 A 
HETATM   16  C   UNL     1      42.904 -30.108   2.149  1.00  0.00     0.034 A 
HETATM   17  C   UNL     1      43.887 -31.107   2.131  1.00  0.00     0.030 A 
HETATM   18  C   UNL     1      44.728 -31.279   1.027  1.00  0.00     0.010 A 
BRANCH  16  19
HETATM   19  N   UNL     1      42.130 -30.032   3.320  1.00  0.00    -0.328 N 
HETATM   20  C   UNL     1      41.049 -30.703   3.801  1.00  0.00     0.218 C 
HETATM   21  C   UNL     1      40.411 -31.830   3.047  1.00  0.00     0.117 C 
HETATM   22  O   UNL     1      40.595 -30.356   4.896  1.00  0.00    -0.274 OA
HETATM   23  H   UNL     1      42.413 -29.326   3.990  1.00  0.00     0.169 HD
ENDBRANCH  16  19
ENDBRANCH   1  13
BRANCH   5  24
HETATM   24  N   UNL     1      43.973 -29.982  -4.778  1.00  0.00    -0.282 NA
HETATM   25  H   UNL     1      44.318 -29.415  -5.548  1.00  0.00     0.126 HD
HETATM   26  H   UNL     1      43.841 -30.958  -5.031  1.00  0.00     0.126 HD
ENDBRANCH   5  24
BRANCH  12  27
HETATM   27  C   UNL     1      48.008 -29.271   0.586  1.00  0.00    -0.005 A 
HETATM   28  C   UNL     1      47.522 -28.931   1.855  1.00  0.00     0.014 A 
HETATM   29  C   UNL     1      48.143 -29.416   3.009  1.00  0.00     0.001 A 
HETATM   30  C   UNL     1      49.259 -30.242   2.905  1.00  0.00     0.000 A 
HETATM   31  C   UNL     1      49.762 -30.576   1.648  1.00  0.00     0.001 A 
HETATM   32  C   UNL     1      49.143 -30.089   0.494  1.00  0.00     0.014 A 
ENDBRANCH  12  27
TORSDOF 4
ENDMDL
MODEL 8
REMARK VINA RESULT:      -7.4     15.420     18.710
REMARK  4 active torsions:
REMARK  status: ('A' for Active; 'I' for Inactive)
REMARK       I    between atoms: C_2  and  N_3 
REMARK    1  A    between atoms: N_3  and  C_4 
REMARK    2  A    between atoms: C_7  and  C_8 
REMARK    3  A    between atoms: C_12  and  N_13 
REMARK    4  A    between atoms: C_20  and  C_21 
ROOT
HETATM    1  C   UNL     1      47.278 -30.504   0.270  1.00  0.00     0.105 C 
HETATM    2  C   UNL     1      47.908 -29.841   1.492  1.00  0.00     0.067 C 
HETATM    3  C   UNL     1      48.620 -30.774   2.457  1.00  0.00     0.020 C 
HETATM    4  N   UNL     1      49.212 -31.549   3.257  1.00  0.00    -0.096 N 
HETATM    5  C   UNL     1      47.729 -28.531   1.811  1.00  0.00     0.139 C 
HETATM    6  O   UNL     1      46.929 -27.684   1.020  1.00  0.00    -0.279 OA
HETATM    7  C   UNL     1      46.229 -28.275   0.057  1.00  0.00     0.175 A 
HETATM    8  C   UNL     1      46.295 -29.580  -0.362  1.00  0.00     0.040 A 
HETATM    9  N   UNL     1      45.280 -27.669  -0.696  1.00  0.00    -0.256 N 
HETATM   10  H   UNL     1      44.965 -26.706  -0.657  1.00  0.00     0.191 HD
HETATM   11  N   UNL     1      44.704 -28.506  -1.579  1.00  0.00    -0.172 NA
HETATM   12  C   UNL     1      45.292 -29.701  -1.361  1.00  0.00     0.099 A 
ENDROOT
BRANCH   1  13
HETATM   13  C   UNL     1      48.313 -30.846  -0.794  1.00  0.00    -0.044 A 
HETATM   14  C   UNL     1      48.300 -32.115  -1.391  1.00  0.00     0.010 A 
HETATM   15  C   UNL     1      49.264 -32.485  -2.343  1.00  0.00     0.030 A 
HETATM   16  C   UNL     1      50.265 -31.598  -2.726  1.00  0.00     0.034 A 
HETATM   17  C   UNL     1      50.289 -30.333  -2.124  1.00  0.00     0.030 A 
HETATM   18  C   UNL     1      49.338 -29.964  -1.168  1.00  0.00     0.010 A 
BRANCH  16  19
HETATM   19  N   UNL     1      51.282 -31.849  -3.664  1.00  0.00    -0.328 N 
HETATM   20  C   UNL     1      52.595 -32.200  -3.586  1.00  0.00     0.218 C 
HETATM   21  C   UNL     1      53.279 -32.433  -2.274  1.00  0.00     0.117 C 
HETATM   22  O   UNL     1      53.221 -32.326  -4.642  1.00  0.00    -0.274 OA
HETATM   23  H   UNL     1      51.015 -31.760  -4.638  1.00  0.00     0.169 HD
ENDBRANCH  16  19
ENDBRANCH   1  13
BRANCH   5  24
HETATM   24  N   UNL     1      48.256 -27.899   2.913  1.00  0.00    -0.282 NA
HETATM   25  H   UNL     1      49.166 -28.233   3.219  1.00  0.00     0.126 HD
HETATM   26  H   UNL     1      48.210 -26.886   2.834  1.00  0.00     0.126 HD
ENDBRANCH   5  24
BRANCH  12  27
HETATM   27  C   UNL     1      44.883 -30.884  -2.114  1.00  0.00    -0.005 A 
HETATM   28  C   UNL     1      45.119 -30.953  -3.494  1.00  0.00     0.014 A 
HETATM   29  C   UNL     1      44.727 -32.075  -4.228  1.00  0.00     0.001 A 
HETATM   30  C   UNL     1      44.091 -33.138  -3.590  1.00  0.00     0.000 A 
HETATM   31  C   UNL     1      43.838 -33.076  -2.221  1.00  0.00     0.001 A 
HETATM   32  C   UNL     1      44.226 -31.953  -1.486  1.00  0.00     0.014 A 
ENDBRANCH  12  27
TORSDOF 4
ENDMDL
MODEL 9
REMARK VINA RESULT:      -7.4     15.793     18.985
REMARK  4 active torsions:
REMARK  status: ('A' for Active; 'I' for Inactive)
REMARK       I    between atoms: C_2  and  N_3 
REMARK    1  A    between atoms: N_3  and  C_4 
REMARK    2  A    between atoms: C_7  and  C_8 
REMARK    3  A    between atoms: C_12  and  N_13 
REMARK    4  A    between atoms: C_20  and  C_21 
ROOT
HETATM    1  C   UNL     1      48.283 -31.213   1.329  1.00  0.00     0.105 C 
HETATM    2  C   UNL     1      48.858 -32.034   2.480  1.00  0.00     0.067 C 
HETATM    3  C   UNL     1      48.686 -33.540   2.369  1.00  0.00     0.020 C 
HETATM    4  N   UNL     1      48.545 -34.790   2.277  1.00  0.00    -0.096 N 
HETATM    5  C   UNL     1      49.355 -31.483   3.620  1.00  0.00     0.139 C 
HETATM    6  O   UNL     1      49.366 -30.089   3.819  1.00  0.00    -0.279 OA
HETATM    7  C   UNL     1      48.713 -29.366   2.915  1.00  0.00     0.175 A 
HETATM    8  C   UNL     1      48.153 -29.786   1.735  1.00  0.00     0.040 A 
HETATM    9  N   UNL     1      48.465 -28.038   3.015  1.00  0.00    -0.256 N 
HETATM   10  H   UNL     1      48.730 -27.402   3.759  1.00  0.00     0.191 HD
HETATM   11  N   UNL     1      47.756 -27.561   1.975  1.00  0.00    -0.172 NA
HETATM   12  C   UNL     1      47.522 -28.635   1.192  1.00  0.00     0.099 A 
ENDROOT
BRANCH   1  13
HETATM   13  C   UNL     1      49.181 -31.245   0.100  1.00  0.00    -0.044 A 
HETATM   14  C   UNL     1      48.644 -31.616  -1.142  1.00  0.00     0.010 A 
HETATM   15  C   UNL     1      49.447 -31.700  -2.290  1.00  0.00     0.030 A 
HETATM   16  C   UNL     1      50.808 -31.414  -2.232  1.00  0.00     0.034 A 
HETATM   17  C   UNL     1      51.352 -31.055  -0.992  1.00  0.00     0.030 A 
HETATM   18  C   UNL     1      50.558 -30.979   0.157  1.00  0.00     0.010 A 
BRANCH  16  19
HETATM   19  N   UNL     1      51.713 -31.463  -3.306  1.00  0.00    -0.328 N 
HETATM   20  C   UNL     1      52.565 -32.401  -3.803  1.00  0.00     0.218 C 
HETATM   21  C   UNL     1      52.685 -33.766  -3.198  1.00  0.00     0.117 C 
HETATM   22  O   UNL     1      53.251 -32.096  -4.783  1.00  0.00    -0.274 OA
HETATM   23  H   UNL     1      51.774 -30.622  -3.870  1.00  0.00     0.169 HD
ENDBRANCH  16  19
ENDBRANCH   1  13
BRANCH   5  24
HETATM   24  N   UNL     1      49.858 -32.183   4.691  1.00  0.00    -0.282 NA
HETATM   25  H   UNL     1      50.322 -33.060   4.466  1.00  0.00     0.126 HD
HETATM   26  H   UNL     1      50.405 -31.593   5.314  1.00  0.00     0.126 HD
ENDBRANCH   5  24
BRANCH  12  27
HETATM   27  C   UNL     1      46.727 -28.511  -0.028  1.00  0.00    -0.005 A 
HETATM   28  C   UNL     1      45.347 -28.753   0.007  1.00  0.00     0.014 A 
HETATM   29  C   UNL     1      44.576 -28.645  -1.153  1.00  0.00     0.001 A 
HETATM   30  C   UNL     1      45.178 -28.299  -2.360  1.00  0.00     0.000 A 
HETATM   31  C   UNL     1      46.552 -28.070  -2.412  1.00  0.00     0.001 A 
HETATM   32  C   UNL     1      47.325 -28.181  -1.252  1.00  0.00     0.014 A 
ENDBRANCH  12  27
TORSDOF 4
ENDMDL
MODEL 10
REMARK VINA RESULT:      -7.2     15.586     19.073
REMARK  4 active torsions:
REMARK  status: ('A' for Active; 'I' for Inactive)
REMARK       I    between atoms: C_2  and  N_3 
REMARK    1  A    between atoms: N_3  and  C_4 
REMARK    2  A    between atoms: C_7  and  C_8 
REMARK    3  A    between atoms: C_12  and  N_13 
REMARK    4  A    between atoms: C_20  and  C_21 
ROOT
HETATM    1  C   UNL     1      47.517 -30.728   1.785  1.00  0.00     0.105 C 
HETATM    2  C   UNL     1      46.276 -30.262   2.543  1.00  0.00     0.067 C 
HETATM    3  C   UNL     1      45.616 -31.302   3.433  1.00  0.00     0.020 C 
HETATM    4  N   UNL     1      45.068 -32.164   4.172  1.00  0.00    -0.096 N 
HETATM    5  C   UNL     1      45.681 -29.056   2.339  1.00  0.00     0.139 C 
HETATM    6  O   UNL     1      46.178 -28.142   1.391  1.00  0.00    -0.279 OA
HETATM    7  C   UNL     1      47.144 -28.592   0.596  1.00  0.00     0.175 A 
HETATM    8  C   UNL     1      47.821 -29.782   0.675  1.00  0.00     0.040 A 
HETATM    9  N   UNL     1      47.634 -27.932  -0.480  1.00  0.00    -0.256 N 
HETATM   10  H   UNL     1      47.364 -27.023  -0.839  1.00  0.00     0.191 HD
HETATM   11  N   UNL     1      48.587 -28.629  -1.128  1.00  0.00    -0.172 NA
HETATM   12  C   UNL     1      48.689 -29.791  -0.450  1.00  0.00     0.099 A 
ENDROOT
BRANCH   1  13
HETATM   13  C   UNL     1      48.749 -30.774   2.679  1.00  0.00    -0.044 A 
HETATM   14  C   UNL     1      49.582 -31.902   2.652  1.00  0.00     0.010 A 
HETATM   15  C   UNL     1      50.703 -32.004   3.491  1.00  0.00     0.030 A 
HETATM   16  C   UNL     1      51.024 -30.981   4.380  1.00  0.00     0.034 A 
HETATM   17  C   UNL     1      50.188 -29.857   4.419  1.00  0.00     0.030 A 
HETATM   18  C   UNL     1      49.066 -29.757   3.591  1.00  0.00     0.010 A 
BRANCH  16  19
HETATM   19  N   UNL     1      52.114 -30.965   5.268  1.00  0.00    -0.328 N 
HETATM   20  C   UNL     1      52.426 -31.624   6.417  1.00  0.00     0.218 C 
HETATM   21  C   UNL     1      51.520 -32.658   7.012  1.00  0.00     0.117 C 
HETATM   22  O   UNL     1      53.495 -31.346   6.968  1.00  0.00    -0.274 OA
HETATM   23  H   UNL     1      52.866 -30.327   5.031  1.00  0.00     0.169 HD
ENDBRANCH  16  19
ENDBRANCH   1  13
BRANCH   5  24
HETATM   24  N   UNL     1      44.550 -28.606   2.979  1.00  0.00    -0.282 NA
HETATM   25  H   UNL     1      44.577 -27.640   3.294  1.00  0.00     0.126 HD
HETATM   26  H   UNL     1      43.702 -28.833   2.465  1.00  0.00     0.126 HD
ENDBRANCH   5  24
BRANCH  12  27
HETATM   27  C   UNL     1      49.607 -30.838  -0.895  1.00  0.00    -0.005 A 
HETATM   28  C   UNL     1      49.128 -31.913  -1.656  1.00  0.00     0.014 A 
HETATM   29  C   UNL     1      49.993 -32.924  -2.083  1.00  0.00     0.001 A 
HETATM   30  C   UNL     1      51.344 -32.872  -1.749  1.00  0.00     0.000 A 
HETATM   31  C   UNL     1      51.831 -31.815  -0.980  1.00  0.00     0.001 A 
HETATM   32  C   UNL     1      50.966 -30.805  -0.550  1.00  0.00     0.014 A 
ENDBRANCH  12  27
TORSDOF 4
ENDMDL
