MODEL 1
REMARK VINA RESULT:      -8.7      0.000      0.000
REMARK  9 active torsions:
REMARK  status: ('A' for Active; 'I' for Inactive)
REMARK    1  A    between atoms: C_7  and  C_8 
REMARK    2  A    between atoms: C_9  and  O_10 
REMARK    3  A    between atoms: C_13  and  N_14 
REMARK    4  A    between atoms: N_14  and  C_15 
REMARK    5  A    between atoms: C_15  and  N_16 
REMARK       I    between atoms: N_16  and  C_17 
REMARK    6  A    between atoms: C_17  and  C_18 
REMARK    7  A    between atoms: C_21  and  O_22 
REMARK    8  A    between atoms: O_22  and  C_23 
REMARK    9  A    between atoms: C_23  and  C_24 
ROOT
HETATM    1  N   UNL     1      38.687 -11.967   2.321  1.00  0.00    -0.337 N 
HETATM    2  H   UNL     1      37.674 -11.945   2.304  1.00  0.00     0.168 HD
ENDROOT
BRANCH   1   3
HETATM    3  C   UNL     1      39.275 -12.622   3.427  1.00  0.00     0.035 A 
HETATM    4  C   UNL     1      39.137 -12.038   4.688  1.00  0.00     0.032 A 
HETATM    5  C   UNL     1      39.752 -12.614   5.801  1.00  0.00     0.040 A 
HETATM    6  C   UNL     1      40.536 -13.757   5.652  1.00  0.00     0.080 A 
HETATM    7  C   UNL     1      40.717 -14.349   4.394  1.00  0.00     0.052 A 
HETATM    8  C   UNL     1      40.072 -13.765   3.288  1.00  0.00     0.048 A 
BRANCH   6   9
HETATM    9  O   UNL     1      41.120 -14.240   6.795  1.00  0.00    -0.360 OA
HETATM   10  H   UNL     1      41.013 -15.215   6.811  1.00  0.00     0.217 HD
ENDBRANCH   6   9
BRANCH   7  11
HETATM   11  C   UNL     1      41.585 -15.513   4.233  1.00  0.00     0.183 A 
HETATM   12  N   UNL     1      42.585 -15.898   5.013  1.00  0.00    -0.221 NA
HETATM   13  C   UNL     1      43.076 -17.013   4.377  1.00  0.00     0.093 A 
HETATM   14  C   UNL     1      42.335 -17.269   3.235  1.00  0.00     0.107 A 
HETATM   15  C   UNL     1      44.146 -17.858   4.690  1.00  0.00     0.035 A 
HETATM   16  C   UNL     1      42.564 -18.324   2.359  1.00  0.00     0.046 A 
HETATM   17  O   UNL     1      41.374 -16.309   3.136  1.00  0.00    -0.289 OA
HETATM   18  C   UNL     1      43.631 -19.179   2.685  1.00  0.00    -0.059 A 
HETATM   19  C   UNL     1      43.974 -20.324   1.774  1.00  0.00     0.048 C 
HETATM   20  C   UNL     1      44.416 -18.935   3.828  1.00  0.00     0.009 A 
ENDBRANCH   7  11
ENDBRANCH   1   3
BRANCH   1  21
HETATM   21  C   UNL     1      39.314 -11.489   1.196  1.00  0.00     0.157 C 
HETATM   22  S   UNL     1      39.309 -12.201  -0.321  1.00  0.00    -0.047 SA
BRANCH  21  23
HETATM   23  N   UNL     1      39.989 -10.294   1.329  1.00  0.00    -0.201 NA
HETATM   24  C   UNL     1      41.364 -10.247   1.409  1.00  0.00     0.237 C 
HETATM   25  O   UNL     1      42.065  -9.993   0.436  1.00  0.00    -0.274 OA
HETATM   26  H   UNL     1      39.667  -9.704   0.569  1.00  0.00     0.139 HD
BRANCH  24  27
HETATM   27  C   UNL     1      41.972 -10.421   2.747  1.00  0.00     0.026 A 
HETATM   28  C   UNL     1      41.530  -9.617   3.801  1.00  0.00     0.019 A 
HETATM   29  C   UNL     1      42.011  -9.835   5.097  1.00  0.00     0.038 A 
HETATM   30  C   UNL     1      42.907 -10.877   5.345  1.00  0.00     0.068 A 
HETATM   31  C   UNL     1      43.368 -11.657   4.280  1.00  0.00     0.038 A 
HETATM   32  C   UNL     1      42.907 -11.433   2.980  1.00  0.00     0.019 A 
BRANCH  30  33
HETATM   33  O   UNL     1      43.395 -11.232   6.573  1.00  0.00    -0.351 OA
BRANCH  33  34
HETATM   34  C   UNL     1      43.746 -10.162   7.455  1.00  0.00     0.179 C 
BRANCH  34  35
HETATM   35  C   UNL     1      45.174 -10.384   7.975  1.00  0.00     0.002 C 
HETATM   36  C   UNL     1      46.007 -11.133   6.935  1.00  0.00     0.011 C 
HETATM   37  C   UNL     1      45.847  -9.058   8.334  1.00  0.00     0.011 C 
ENDBRANCH  34  35
ENDBRANCH  33  34
ENDBRANCH  30  33
ENDBRANCH  24  27
ENDBRANCH  21  23
ENDBRANCH   1  21
TORSDOF 9
ENDMDL
MODEL 2
REMARK VINA RESULT:      -8.5      2.004      6.317
REMARK  9 active torsions:
REMARK  status: ('A' for Active; 'I' for Inactive)
REMARK    1  A    between atoms: C_7  and  C_8 
REMARK    2  A    between atoms: C_9  and  O_10 
REMARK    3  A    between atoms: C_13  and  N_14 
REMARK    4  A    between atoms: N_14  and  C_15 
REMARK    5  A    between atoms: C_15  and  N_16 
REMARK       I    between atoms: N_16  and  C_17 
REMARK    6  A    between atoms: C_17  and  C_18 
REMARK    7  A    between atoms: C_21  and  O_22 
REMARK    8  A    between atoms: O_22  and  C_23 
REMARK    9  A    between atoms: C_23  and  C_24 
ROOT
HETATM    1  N   UNL     1      40.723 -11.583   0.959  1.00  0.00    -0.337 N 
HETATM    2  H   UNL     1      41.234 -10.751   0.692  1.00  0.00     0.168 HD
ENDROOT
BRANCH   1   3
HETATM    3  C   UNL     1      40.655 -11.852   2.345  1.00  0.00     0.035 A 
HETATM    4  C   UNL     1      39.446 -12.315   2.868  1.00  0.00     0.032 A 
HETATM    5  C   UNL     1      39.311 -12.535   4.240  1.00  0.00     0.040 A 
HETATM    6  C   UNL     1      40.375 -12.261   5.098  1.00  0.00     0.080 A 
HETATM    7  C   UNL     1      41.592 -11.768   4.606  1.00  0.00     0.052 A 
HETATM    8  C   UNL     1      41.714 -11.572   3.218  1.00  0.00     0.048 A 
BRANCH   6   9
HETATM    9  O   UNL     1      40.145 -12.485   6.432  1.00  0.00    -0.360 OA
HETATM   10  H   UNL     1      39.693 -13.350   6.529  1.00  0.00     0.217 HD
ENDBRANCH   6   9
BRANCH   7  11
HETATM   11  C   UNL     1      42.684 -11.429   5.515  1.00  0.00     0.183 A 
HETATM   12  N   UNL     1      43.986 -11.565   5.311  1.00  0.00    -0.221 NA
HETATM   13  C   UNL     1      44.541 -11.140   6.494  1.00  0.00     0.093 A 
HETATM   14  C   UNL     1      43.543 -10.744   7.369  1.00  0.00     0.107 A 
HETATM   15  C   UNL     1      45.874 -11.065   6.915  1.00  0.00     0.035 A 
HETATM   16  C   UNL     1      43.757 -10.259   8.654  1.00  0.00     0.046 A 
HETATM   17  O   UNL     1      42.345 -10.927   6.746  1.00  0.00    -0.289 OA
HETATM   18  C   UNL     1      45.098 -10.172   9.066  1.00  0.00    -0.059 A 
HETATM   19  C   UNL     1      45.422  -9.694  10.453  1.00  0.00     0.048 C 
HETATM   20  C   UNL     1      46.136 -10.585   8.208  1.00  0.00     0.009 A 
ENDBRANCH   7  11
ENDBRANCH   1   3
BRANCH   1  21
HETATM   21  C   UNL     1      40.058 -12.229  -0.056  1.00  0.00     0.157 C 
HETATM   22  S   UNL     1      38.646 -11.717  -0.799  1.00  0.00    -0.047 SA
BRANCH  21  23
HETATM   23  N   UNL     1      40.629 -13.394  -0.521  1.00  0.00    -0.201 NA
HETATM   24  C   UNL     1      40.193 -14.630  -0.096  1.00  0.00     0.237 C 
HETATM   25  O   UNL     1      39.409 -15.307  -0.753  1.00  0.00    -0.274 OA
HETATM   26  H   UNL     1      40.586 -13.343  -1.534  1.00  0.00     0.139 HD
BRANCH  24  27
HETATM   27  C   UNL     1      40.783 -15.166   1.151  1.00  0.00     0.026 A 
HETATM   28  C   UNL     1      42.164 -15.069   1.342  1.00  0.00     0.019 A 
HETATM   29  C   UNL     1      42.733 -15.469   2.556  1.00  0.00     0.038 A 
HETATM   30  C   UNL     1      41.918 -15.933   3.591  1.00  0.00     0.068 A 
HETATM   31  C   UNL     1      40.540 -16.056   3.382  1.00  0.00     0.038 A 
HETATM   32  C   UNL     1      39.967 -15.676   2.165  1.00  0.00     0.019 A 
BRANCH  30  33
HETATM   33  O   UNL     1      42.344 -16.289   4.842  1.00  0.00    -0.351 OA
BRANCH  33  34
HETATM   34  C   UNL     1      43.757 -16.277   5.063  1.00  0.00     0.179 C 
BRANCH  34  35
HETATM   35  C   UNL     1      44.227 -17.701   5.397  1.00  0.00     0.002 C 
HETATM   36  C   UNL     1      43.266 -18.358   6.386  1.00  0.00     0.011 C 
HETATM   37  C   UNL     1      44.349 -18.555   4.133  1.00  0.00     0.011 C 
ENDBRANCH  34  35
ENDBRANCH  33  34
ENDBRANCH  30  33
ENDBRANCH  24  27
ENDBRANCH  21  23
ENDBRANCH   1  21
TORSDOF 9
ENDMDL
MODEL 3
REMARK VINA RESULT:      -8.2      4.244      5.677
REMARK  9 active torsions:
REMARK  status: ('A' for Active; 'I' for Inactive)
REMARK    1  A    between atoms: C_7  and  C_8 
REMARK    2  A    between atoms: C_9  and  O_10 
REMARK    3  A    between atoms: C_13  and  N_14 
REMARK    4  A    between atoms: N_14  and  C_15 
REMARK    5  A    between atoms: C_15  and  N_16 
REMARK       I    between atoms: N_16  and  C_17 
REMARK    6  A    between atoms: C_17  and  C_18 
REMARK    7  A    between atoms: C_21  and  O_22 
REMARK    8  A    between atoms: O_22  and  C_23 
REMARK    9  A    between atoms: C_23  and  C_24 
ROOT
HETATM    1  N   UNL     1      42.592 -11.339   7.143  1.00  0.00    -0.337 N 
HETATM    2  H   UNL     1      42.040 -11.170   7.975  1.00  0.00     0.168 HD
ENDROOT
BRANCH   1   3
HETATM    3  C   UNL     1      42.006 -12.178   6.169  1.00  0.00     0.035 A 
HETATM    4  C   UNL     1      40.813 -11.763   5.574  1.00  0.00     0.032 A 
HETATM    5  C   UNL     1      40.162 -12.586   4.652  1.00  0.00     0.040 A 
HETATM    6  C   UNL     1      40.685 -13.841   4.347  1.00  0.00     0.080 A 
HETATM    7  C   UNL     1      41.866 -14.298   4.950  1.00  0.00     0.052 A 
HETATM    8  C   UNL     1      42.516 -13.446   5.862  1.00  0.00     0.048 A 
BRANCH   6   9
HETATM    9  O   UNL     1      39.968 -14.591   3.449  1.00  0.00    -0.360 OA
HETATM   10  H   UNL     1      40.568 -15.256   3.050  1.00  0.00     0.217 HD
ENDBRANCH   6   9
BRANCH   7  11
HETATM   11  C   UNL     1      42.379 -15.637   4.671  1.00  0.00     0.183 A 
HETATM   12  N   UNL     1      43.011 -16.457   5.498  1.00  0.00    -0.221 NA
HETATM   13  C   UNL     1      43.303 -17.545   4.710  1.00  0.00     0.093 A 
HETATM   14  C   UNL     1      42.816 -17.343   3.429  1.00  0.00     0.107 A 
HETATM   15  C   UNL     1      43.981 -18.735   4.994  1.00  0.00     0.035 A 
HETATM   16  C   UNL     1      42.939 -18.247   2.381  1.00  0.00     0.046 A 
HETATM   17  O   UNL     1      42.221 -16.118   3.396  1.00  0.00    -0.289 OA
HETATM   18  C   UNL     1      43.608 -19.448   2.674  1.00  0.00    -0.059 A 
HETATM   19  C   UNL     1      43.820 -20.468   1.592  1.00  0.00     0.048 C 
HETATM   20  C   UNL     1      44.132 -19.676   3.962  1.00  0.00     0.009 A 
ENDBRANCH   7  11
ENDBRANCH   1   3
BRANCH   1  21
HETATM   21  C   UNL     1      43.751 -10.609   7.036  1.00  0.00     0.157 C 
HETATM   22  S   UNL     1      45.216 -11.156   6.433  1.00  0.00    -0.047 SA
BRANCH  21  23
HETATM   23  N   UNL     1      43.688  -9.292   7.440  1.00  0.00    -0.201 NA
HETATM   24  C   UNL     1      44.407  -8.834   8.522  1.00  0.00     0.237 C 
HETATM   25  O   UNL     1      45.479  -8.252   8.393  1.00  0.00    -0.274 OA
HETATM   26  H   UNL     1      43.908  -8.736   6.619  1.00  0.00     0.139 HD
BRANCH  24  27
HETATM   27  C   UNL     1      43.791  -8.985   9.859  1.00  0.00     0.026 A 
HETATM   28  C   UNL     1      42.829  -8.057  10.269  1.00  0.00     0.019 A 
HETATM   29  C   UNL     1      42.154  -8.238  11.481  1.00  0.00     0.038 A 
HETATM   30  C   UNL     1      42.416  -9.363  12.267  1.00  0.00     0.068 A 
HETATM   31  C   UNL     1      43.402 -10.270  11.865  1.00  0.00     0.038 A 
HETATM   32  C   UNL     1      44.094 -10.086  10.665  1.00  0.00     0.019 A 
BRANCH  30  33
HETATM   33  O   UNL     1      41.778  -9.686  13.434  1.00  0.00    -0.351 OA
BRANCH  33  34
HETATM   34  C   UNL     1      41.072  -8.628  14.089  1.00  0.00     0.179 C 
BRANCH  34  35
HETATM   35  C   UNL     1      41.895  -8.143  15.292  1.00  0.00     0.002 C 
HETATM   36  C   UNL     1      42.767  -6.953  14.892  1.00  0.00     0.011 C 
HETATM   37  C   UNL     1      40.991  -7.763  16.466  1.00  0.00     0.011 C 
ENDBRANCH  34  35
ENDBRANCH  33  34
ENDBRANCH  30  33
ENDBRANCH  24  27
ENDBRANCH  21  23
ENDBRANCH   1  21
TORSDOF 9
ENDMDL
MODEL 4
REMARK VINA RESULT:      -7.9      3.936      9.053
REMARK  9 active torsions:
REMARK  status: ('A' for Active; 'I' for Inactive)
REMARK    1  A    between atoms: C_7  and  C_8 
REMARK    2  A    between atoms: C_9  and  O_10 
REMARK    3  A    between atoms: C_13  and  N_14 
REMARK    4  A    between atoms: N_14  and  C_15 
REMARK    5  A    between atoms: C_15  and  N_16 
REMARK       I    between atoms: N_16  and  C_17 
REMARK    6  A    between atoms: C_17  and  C_18 
REMARK    7  A    between atoms: C_21  and  O_22 
REMARK    8  A    between atoms: O_22  and  C_23 
REMARK    9  A    between atoms: C_23  and  C_24 
ROOT
HETATM    1  N   UNL     1      41.965 -10.266   5.362  1.00  0.00    -0.337 N 
HETATM    2  H   UNL     1      41.358  -9.460   5.280  1.00  0.00     0.168 HD
ENDROOT
BRANCH   1   3
HETATM    3  C   UNL     1      42.778 -10.317   6.517  1.00  0.00     0.035 A 
HETATM    4  C   UNL     1      44.016 -10.955   6.425  1.00  0.00     0.032 A 
HETATM    5  C   UNL     1      44.826 -11.085   7.554  1.00  0.00     0.040 A 
HETATM    6  C   UNL     1      44.387 -10.607   8.787  1.00  0.00     0.080 A 
HETATM    7  C   UNL     1      43.136  -9.987   8.917  1.00  0.00     0.052 A 
HETATM    8  C   UNL     1      42.343  -9.848   7.764  1.00  0.00     0.048 A 
BRANCH   6   9
HETATM    9  O   UNL     1      45.239 -10.798   9.845  1.00  0.00    -0.360 OA
HETATM   10  H   UNL     1      45.338 -11.763   9.993  1.00  0.00     0.217 HD
ENDBRANCH   6   9
BRANCH   7  11
HETATM   11  C   UNL     1      42.656  -9.538  10.222  1.00  0.00     0.183 A 
HETATM   12  N   UNL     1      41.440  -9.669  10.731  1.00  0.00    -0.221 NA
HETATM   13  C   UNL     1      41.533  -9.037  11.949  1.00  0.00     0.093 A 
HETATM   14  C   UNL     1      42.820  -8.559  12.134  1.00  0.00     0.107 A 
HETATM   15  C   UNL     1      40.580  -8.815  12.949  1.00  0.00     0.035 A 
HETATM   16  C   UNL     1      43.257  -7.870  13.259  1.00  0.00     0.046 A 
HETATM   17  O   UNL     1      43.548  -8.878  11.028  1.00  0.00    -0.289 OA
HETATM   18  C   UNL     1      42.300  -7.661  14.268  1.00  0.00    -0.059 A 
HETATM   19  C   UNL     1      42.675  -6.893  15.504  1.00  0.00     0.048 C 
HETATM   20  C   UNL     1      40.978  -8.117  14.102  1.00  0.00     0.009 A 
ENDBRANCH   7  11
ENDBRANCH   1   3
BRANCH   1  21
HETATM   21  C   UNL     1      41.790 -11.246   4.414  1.00  0.00     0.157 C 
HETATM   22  S   UNL     1      42.788 -11.546   3.102  1.00  0.00    -0.047 SA
BRANCH  21  23
HETATM   23  N   UNL     1      40.700 -12.074   4.580  1.00  0.00    -0.201 NA
HETATM   24  C   UNL     1      40.492 -12.767   5.752  1.00  0.00     0.237 C 
HETATM   25  O   UNL     1      39.725 -12.364   6.620  1.00  0.00    -0.274 OA
HETATM   26  H   UNL     1      39.884 -11.511   4.362  1.00  0.00     0.139 HD
BRANCH  24  27
HETATM   27  C   UNL     1      41.162 -14.079   5.894  1.00  0.00     0.026 A 
HETATM   28  C   UNL     1      40.599 -15.196   5.271  1.00  0.00     0.019 A 
HETATM   29  C   UNL     1      41.269 -16.425   5.299  1.00  0.00     0.038 A 
HETATM   30  C   UNL     1      42.516 -16.528   5.918  1.00  0.00     0.068 A 
HETATM   31  C   UNL     1      43.059 -15.413   6.566  1.00  0.00     0.038 A 
HETATM   32  C   UNL     1      42.387 -14.187   6.559  1.00  0.00     0.019 A 
BRANCH  30  33
HETATM   33  O   UNL     1      43.297 -17.651   5.954  1.00  0.00    -0.351 OA
BRANCH  33  34
HETATM   34  C   UNL     1      44.491 -17.623   5.166  1.00  0.00     0.179 C 
BRANCH  34  35
HETATM   35  C   UNL     1      44.520 -18.858   4.252  1.00  0.00     0.002 C 
HETATM   36  C   UNL     1      44.109 -20.106   5.033  1.00  0.00     0.011 C 
HETATM   37  C   UNL     1      43.607 -18.671   3.038  1.00  0.00     0.011 C 
ENDBRANCH  34  35
ENDBRANCH  33  34
ENDBRANCH  30  33
ENDBRANCH  24  27
ENDBRANCH  21  23
ENDBRANCH   1  21
TORSDOF 9
ENDMDL
MODEL 5
REMARK VINA RESULT:      -7.9      4.545      6.588
REMARK  9 active torsions:
REMARK  status: ('A' for Active; 'I' for Inactive)
REMARK    1  A    between atoms: C_7  and  C_8 
REMARK    2  A    between atoms: C_9  and  O_10 
REMARK    3  A    between atoms: C_13  and  N_14 
REMARK    4  A    between atoms: N_14  and  C_15 
REMARK    5  A    between atoms: C_15  and  N_16 
REMARK       I    between atoms: N_16  and  C_17 
REMARK    6  A    between atoms: C_17  and  C_18 
REMARK    7  A    between atoms: C_21  and  O_22 
REMARK    8  A    between atoms: O_22  and  C_23 
REMARK    9  A    between atoms: C_23  and  C_24 
ROOT
HETATM    1  N   UNL     1      43.886 -11.487   8.324  1.00  0.00    -0.337 N 
HETATM    2  H   UNL     1      43.190 -11.527   9.059  1.00  0.00     0.168 HD
ENDROOT
BRANCH   1   3
HETATM    3  C   UNL     1      43.490 -11.999   7.067  1.00  0.00     0.035 A 
HETATM    4  C   UNL     1      42.801 -11.151   6.198  1.00  0.00     0.032 A 
HETATM    5  C   UNL     1      42.335 -11.629   4.972  1.00  0.00     0.040 A 
HETATM    6  C   UNL     1      42.528 -12.965   4.625  1.00  0.00     0.080 A 
HETATM    7  C   UNL     1      43.191 -13.847   5.489  1.00  0.00     0.052 A 
HETATM    8  C   UNL     1      43.670 -13.342   6.712  1.00  0.00     0.048 A 
BRANCH   6   9
HETATM    9  O   UNL     1      42.016 -13.352   3.412  1.00  0.00    -0.360 OA
HETATM   10  H   UNL     1      41.156 -13.799   3.566  1.00  0.00     0.217 HD
ENDBRANCH   6   9
BRANCH   7  11
HETATM   11  C   UNL     1      43.340 -15.259   5.147  1.00  0.00     0.183 A 
HETATM   12  N   UNL     1      43.628 -16.268   5.956  1.00  0.00    -0.221 NA
HETATM   13  C   UNL     1      43.690 -17.350   5.110  1.00  0.00     0.093 A 
HETATM   14  C   UNL     1      43.419 -16.949   3.812  1.00  0.00     0.107 A 
HETATM   15  C   UNL     1      43.977 -18.697   5.353  1.00  0.00     0.035 A 
HETATM   16  C   UNL     1      43.398 -17.793   2.707  1.00  0.00     0.046 A 
HETATM   17  O   UNL     1      43.193 -15.606   3.827  1.00  0.00    -0.289 OA
HETATM   18  C   UNL     1      43.673 -19.148   2.959  1.00  0.00    -0.059 A 
HETATM   19  C   UNL     1      43.709 -20.126   1.818  1.00  0.00     0.048 C 
HETATM   20  C   UNL     1      43.972 -19.585   4.264  1.00  0.00     0.009 A 
ENDBRANCH   7  11
ENDBRANCH   1   3
BRANCH   1  21
HETATM   21  C   UNL     1      45.041 -10.809   8.630  1.00  0.00     0.157 C 
HETATM   22  S   UNL     1      46.156 -10.205   7.535  1.00  0.00    -0.047 SA
BRANCH  21  23
HETATM   23  N   UNL     1      45.287 -10.585   9.968  1.00  0.00    -0.201 NA
HETATM   24  C   UNL     1      44.260 -10.423  10.873  1.00  0.00     0.237 C 
HETATM   25  O   UNL     1      43.866 -11.343  11.582  1.00  0.00    -0.274 OA
HETATM   26  H   UNL     1      45.898 -11.337  10.271  1.00  0.00     0.139 HD
BRANCH  24  27
HETATM   27  C   UNL     1      43.704  -9.061  11.032  1.00  0.00     0.026 A 
HETATM   28  C   UNL     1      43.447  -8.298   9.889  1.00  0.00     0.019 A 
HETATM   29  C   UNL     1      42.822  -7.052  10.006  1.00  0.00     0.038 A 
HETATM   30  C   UNL     1      42.422  -6.584  11.260  1.00  0.00     0.068 A 
HETATM   31  C   UNL     1      42.710  -7.339  12.401  1.00  0.00     0.038 A 
HETATM   32  C   UNL     1      43.351  -8.577  12.295  1.00  0.00     0.019 A 
BRANCH  30  33
HETATM   33  O   UNL     1      41.745  -5.418  11.497  1.00  0.00    -0.351 OA
BRANCH  33  34
HETATM   34  C   UNL     1      42.391  -4.467  12.347  1.00  0.00     0.179 C 
BRANCH  34  35
HETATM   35  C   UNL     1      42.358  -3.086  11.676  1.00  0.00     0.002 C 
HETATM   36  C   UNL     1      42.207  -1.988  12.727  1.00  0.00     0.011 C 
HETATM   37  C   UNL     1      43.617  -2.846  10.839  1.00  0.00     0.011 C 
ENDBRANCH  34  35
ENDBRANCH  33  34
ENDBRANCH  30  33
ENDBRANCH  24  27
ENDBRANCH  21  23
ENDBRANCH   1  21
TORSDOF 9
ENDMDL
MODEL 6
REMARK VINA RESULT:      -7.7      3.048      5.398
REMARK  9 active torsions:
REMARK  status: ('A' for Active; 'I' for Inactive)
REMARK    1  A    between atoms: C_7  and  C_8 
REMARK    2  A    between atoms: C_9  and  O_10 
REMARK    3  A    between atoms: C_13  and  N_14 
REMARK    4  A    between atoms: N_14  and  C_15 
REMARK    5  A    between atoms: C_15  and  N_16 
REMARK       I    between atoms: N_16  and  C_17 
REMARK    6  A    between atoms: C_17  and  C_18 
REMARK    7  A    between atoms: C_21  and  O_22 
REMARK    8  A    between atoms: O_22  and  C_23 
REMARK    9  A    between atoms: C_23  and  C_24 
ROOT
HETATM    1  N   UNL     1      41.437 -10.349   4.580  1.00  0.00    -0.337 N 
HETATM    2  H   UNL     1      42.199 -10.463   5.238  1.00  0.00     0.168 HD
ENDROOT
BRANCH   1   3
HETATM    3  C   UNL     1      40.934 -11.536   4.001  1.00  0.00     0.035 A 
HETATM    4  C   UNL     1      39.635 -11.521   3.490  1.00  0.00     0.032 A 
HETATM    5  C   UNL     1      39.071 -12.685   2.966  1.00  0.00     0.040 A 
HETATM    6  C   UNL     1      39.792 -13.878   2.980  1.00  0.00     0.080 A 
HETATM    7  C   UNL     1      41.088 -13.931   3.513  1.00  0.00     0.052 A 
HETATM    8  C   UNL     1      41.646 -12.743   4.019  1.00  0.00     0.048 A 
BRANCH   6   9
HETATM    9  O   UNL     1      39.151 -14.976   2.465  1.00  0.00    -0.360 OA
HETATM   10  H   UNL     1      39.598 -15.233   1.630  1.00  0.00     0.217 HD
ENDBRANCH   6   9
BRANCH   7  11
HETATM   11  C   UNL     1      41.818 -15.195   3.578  1.00  0.00     0.183 A 
HETATM   12  N   UNL     1      42.660 -15.602   4.518  1.00  0.00    -0.221 NA
HETATM   13  C   UNL     1      43.084 -16.826   4.058  1.00  0.00     0.093 A 
HETATM   14  C   UNL     1      42.463 -17.120   2.855  1.00  0.00     0.107 A 
HETATM   15  C   UNL     1      43.995 -17.746   4.589  1.00  0.00     0.035 A 
HETATM   16  C   UNL     1      42.665 -18.281   2.119  1.00  0.00     0.046 A 
HETATM   17  O   UNL     1      41.647 -16.075   2.540  1.00  0.00    -0.289 OA
HETATM   18  C   UNL     1      43.570 -19.209   2.662  1.00  0.00    -0.059 A 
HETATM   19  C   UNL     1      43.878 -20.476   1.916  1.00  0.00     0.048 C 
HETATM   20  C   UNL     1      44.233 -18.932   3.874  1.00  0.00     0.009 A 
ENDBRANCH   7  11
ENDBRANCH   1   3
BRANCH   1  21
HETATM   21  C   UNL     1      40.924  -9.079   4.474  1.00  0.00     0.157 C 
HETATM   22  S   UNL     1      39.867  -8.344   5.546  1.00  0.00    -0.047 SA
BRANCH  21  23
HETATM   23  N   UNL     1      41.346  -8.334   3.393  1.00  0.00    -0.201 NA
HETATM   24  C   UNL     1      40.470  -7.926   2.411  1.00  0.00     0.237 C 
HETATM   25  O   UNL     1      39.982  -6.801   2.398  1.00  0.00    -0.274 OA
HETATM   26  H   UNL     1      41.830  -7.529   3.779  1.00  0.00     0.139 HD
BRANCH  24  27
HETATM   27  C   UNL     1      40.204  -8.872   1.303  1.00  0.00     0.026 A 
HETATM   28  C   UNL     1      41.259  -9.638   0.801  1.00  0.00     0.019 A 
HETATM   29  C   UNL     1      41.014 -10.615  -0.171  1.00  0.00     0.038 A 
HETATM   30  C   UNL     1      39.711 -10.849  -0.614  1.00  0.00     0.068 A 
HETATM   31  C   UNL     1      38.665 -10.057  -0.129  1.00  0.00     0.038 A 
HETATM   32  C   UNL     1      38.905  -9.066   0.827  1.00  0.00     0.019 A 
BRANCH  30  33
HETATM   33  O   UNL     1      39.334 -11.816  -1.506  1.00  0.00    -0.351 OA
BRANCH  33  34
HETATM   34  C   UNL     1      39.194 -13.142  -0.988  1.00  0.00     0.179 C 
BRANCH  34  35
HETATM   35  C   UNL     1      39.857 -14.134  -1.956  1.00  0.00     0.002 C 
HETATM   36  C   UNL     1      38.795 -14.980  -2.657  1.00  0.00     0.011 C 
HETATM   37  C   UNL     1      40.720 -13.408  -2.990  1.00  0.00     0.011 C 
ENDBRANCH  34  35
ENDBRANCH  33  34
ENDBRANCH  30  33
ENDBRANCH  24  27
ENDBRANCH  21  23
ENDBRANCH   1  21
TORSDOF 9
ENDMDL
MODEL 7
REMARK VINA RESULT:      -7.6      2.986      7.651
REMARK  9 active torsions:
REMARK  status: ('A' for Active; 'I' for Inactive)
REMARK    1  A    between atoms: C_7  and  C_8 
REMARK    2  A    between atoms: C_9  and  O_10 
REMARK    3  A    between atoms: C_13  and  N_14 
REMARK    4  A    between atoms: N_14  and  C_15 
REMARK    5  A    between atoms: C_15  and  N_16 
REMARK       I    between atoms: N_16  and  C_17 
REMARK    6  A    between atoms: C_17  and  C_18 
REMARK    7  A    between atoms: C_21  and  O_22 
REMARK    8  A    between atoms: O_22  and  C_23 
REMARK    9  A    between atoms: C_23  and  C_24 
ROOT
HETATM    1  N   UNL     1      39.841 -11.289   5.106  1.00  0.00    -0.337 N 
HETATM    2  H   UNL     1      38.932 -11.228   5.548  1.00  0.00     0.168 HD
ENDROOT
BRANCH   1   3
HETATM    3  C   UNL     1      39.849 -11.712   3.758  1.00  0.00     0.035 A 
HETATM    4  C   UNL     1      39.496 -13.034   3.480  1.00  0.00     0.032 A 
HETATM    5  C   UNL     1      39.548 -13.516   2.171  1.00  0.00     0.040 A 
HETATM    6  C   UNL     1      39.986 -12.688   1.139  1.00  0.00     0.080 A 
HETATM    7  C   UNL     1      40.375 -11.364   1.391  1.00  0.00     0.052 A 
HETATM    8  C   UNL     1      40.296 -10.892   2.714  1.00  0.00     0.048 A 
BRANCH   6   9
HETATM    9  O   UNL     1      40.028 -13.252  -0.111  1.00  0.00    -0.360 OA
HETATM   10  H   UNL     1      39.140 -13.617  -0.316  1.00  0.00     0.217 HD
ENDBRANCH   6   9
BRANCH   7  11
HETATM   11  C   UNL     1      40.887 -10.518   0.317  1.00  0.00     0.183 A 
HETATM   12  N   UNL     1      41.966  -9.749   0.330  1.00  0.00    -0.221 NA
HETATM   13  C   UNL     1      41.947  -9.150  -0.908  1.00  0.00     0.093 A 
HETATM   14  C   UNL     1      40.855  -9.598  -1.632  1.00  0.00     0.107 A 
HETATM   15  C   UNL     1      42.805  -8.212  -1.493  1.00  0.00     0.035 A 
HETATM   16  C   UNL     1      40.537  -9.194  -2.923  1.00  0.00     0.046 A 
HETATM   17  O   UNL     1      40.168 -10.478  -0.851  1.00  0.00    -0.289 OA
HETATM   18  C   UNL     1      41.409  -8.263  -3.512  1.00  0.00    -0.059 A 
HETATM   19  C   UNL     1      41.123  -7.742  -4.893  1.00  0.00     0.048 C 
HETATM   20  C   UNL     1      42.519  -7.773  -2.796  1.00  0.00     0.009 A 
ENDBRANCH   7  11
ENDBRANCH   1   3
BRANCH   1  21
HETATM   21  C   UNL     1      40.897 -10.810   5.843  1.00  0.00     0.157 C 
HETATM   22  S   UNL     1      41.278  -9.199   6.099  1.00  0.00    -0.047 SA
BRANCH  21  23
HETATM   23  N   UNL     1      41.701 -11.752   6.450  1.00  0.00    -0.201 NA
HETATM   24  C   UNL     1      42.910 -12.126   5.908  1.00  0.00     0.237 C 
HETATM   25  O   UNL     1      43.973 -11.655   6.298  1.00  0.00    -0.274 OA
HETATM   26  H   UNL     1      41.834 -11.433   7.405  1.00  0.00     0.139 HD
BRANCH  24  27
HETATM   27  C   UNL     1      42.895 -13.200   4.889  1.00  0.00     0.026 A 
HETATM   28  C   UNL     1      43.209 -12.882   3.566  1.00  0.00     0.019 A 
HETATM   29  C   UNL     1      43.306 -13.896   2.606  1.00  0.00     0.038 A 
HETATM   30  C   UNL     1      43.124 -15.230   2.976  1.00  0.00     0.068 A 
HETATM   31  C   UNL     1      42.780 -15.538   4.297  1.00  0.00     0.038 A 
HETATM   32  C   UNL     1      42.662 -14.529   5.257  1.00  0.00     0.019 A 
BRANCH  30  33
HETATM   33  O   UNL     1      43.259 -16.312   2.149  1.00  0.00    -0.351 OA
BRANCH  33  34
HETATM   34  C   UNL     1      42.679 -17.538   2.604  1.00  0.00     0.179 C 
BRANCH  34  35
HETATM   35  C   UNL     1      43.750 -18.639   2.584  1.00  0.00     0.002 C 
HETATM   36  C   UNL     1      44.326 -18.844   3.984  1.00  0.00     0.011 C 
HETATM   37  C   UNL     1      43.182 -19.956   2.049  1.00  0.00     0.011 C 
ENDBRANCH  34  35
ENDBRANCH  33  34
ENDBRANCH  30  33
ENDBRANCH  24  27
ENDBRANCH  21  23
ENDBRANCH   1  21
TORSDOF 9
ENDMDL
MODEL 8
REMARK VINA RESULT:      -7.6      2.480      6.774
REMARK  9 active torsions:
REMARK  status: ('A' for Active; 'I' for Inactive)
REMARK    1  A    between atoms: C_7  and  C_8 
REMARK    2  A    between atoms: C_9  and  O_10 
REMARK    3  A    between atoms: C_13  and  N_14 
REMARK    4  A    between atoms: N_14  and  C_15 
REMARK    5  A    between atoms: C_15  and  N_16 
REMARK       I    between atoms: N_16  and  C_17 
REMARK    6  A    between atoms: C_17  and  C_18 
REMARK    7  A    between atoms: C_21  and  O_22 
REMARK    8  A    between atoms: O_22  and  C_23 
REMARK    9  A    between atoms: C_23  and  C_24 
ROOT
HETATM    1  N   UNL     1      41.727 -10.315   1.985  1.00  0.00    -0.337 N 
HETATM    2  H   UNL     1      42.466  -9.623   1.953  1.00  0.00     0.168 HD
ENDROOT
BRANCH   1   3
HETATM    3  C   UNL     1      41.377 -10.791   3.269  1.00  0.00     0.035 A 
HETATM    4  C   UNL     1      40.191 -11.516   3.402  1.00  0.00     0.032 A 
HETATM    5  C   UNL     1      39.771 -11.954   4.659  1.00  0.00     0.040 A 
HETATM    6  C   UNL     1      40.519 -11.638   5.793  1.00  0.00     0.080 A 
HETATM    7  C   UNL     1      41.698 -10.887   5.695  1.00  0.00     0.052 A 
HETATM    8  C   UNL     1      42.114 -10.472   4.416  1.00  0.00     0.048 A 
BRANCH   6   9
HETATM    9  O   UNL     1      40.018 -12.089   6.989  1.00  0.00    -0.360 OA
HETATM   10  H   UNL     1      39.776 -13.035   6.887  1.00  0.00     0.217 HD
ENDBRANCH   6   9
BRANCH   7  11
HETATM   11  C   UNL     1      42.447 -10.510   6.891  1.00  0.00     0.183 A 
HETATM   12  N   UNL     1      43.717 -10.763   7.170  1.00  0.00    -0.221 NA
HETATM   13  C   UNL     1      43.882 -10.229   8.426  1.00  0.00     0.093 A 
HETATM   14  C   UNL     1      42.696  -9.654   8.853  1.00  0.00     0.107 A 
HETATM   15  C   UNL     1      44.992 -10.194   9.277  1.00  0.00     0.035 A 
HETATM   16  C   UNL     1      42.514  -9.023  10.078  1.00  0.00     0.046 A 
HETATM   17  O   UNL     1      41.768  -9.831   7.871  1.00  0.00    -0.289 OA
HETATM   18  C   UNL     1      43.636  -8.979  10.924  1.00  0.00    -0.059 A 
HETATM   19  C   UNL     1      43.521  -8.349  12.283  1.00  0.00     0.048 C 
HETATM   20  C   UNL     1      44.851  -9.570  10.528  1.00  0.00     0.009 A 
ENDBRANCH   7  11
ENDBRANCH   1   3
BRANCH   1  21
HETATM   21  C   UNL     1      41.091 -10.565   0.793  1.00  0.00     0.157 C 
HETATM   22  S   UNL     1      39.806  -9.699   0.155  1.00  0.00    -0.047 SA
BRANCH  21  23
HETATM   23  N   UNL     1      41.579 -11.613   0.043  1.00  0.00    -0.201 NA
HETATM   24  C   UNL     1      40.860 -12.776  -0.126  1.00  0.00     0.237 C 
HETATM   25  O   UNL     1      40.188 -12.987  -1.130  1.00  0.00    -0.274 OA
HETATM   26  H   UNL     1      41.820 -11.222  -0.862  1.00  0.00     0.139 HD
BRANCH  24  27
HETATM   27  C   UNL     1      41.001 -13.819   0.915  1.00  0.00     0.026 A 
HETATM   28  C   UNL     1      42.228 -13.960   1.569  1.00  0.00     0.019 A 
HETATM   29  C   UNL     1      42.356 -14.863   2.630  1.00  0.00     0.038 A 
HETATM   30  C   UNL     1      41.250 -15.599   3.060  1.00  0.00     0.068 A 
HETATM   31  C   UNL     1      40.033 -15.475   2.381  1.00  0.00     0.038 A 
HETATM   32  C   UNL     1      39.903 -14.589   1.307  1.00  0.00     0.019 A 
BRANCH  30  33
HETATM   33  O   UNL     1      41.230 -16.460   4.123  1.00  0.00    -0.351 OA
BRANCH  33  34
HETATM   34  C   UNL     1      42.265 -16.297   5.096  1.00  0.00     0.179 C 
BRANCH  34  35
HETATM   35  C   UNL     1      41.740 -15.433   6.252  1.00  0.00     0.002 C 
HETATM   36  C   UNL     1      40.275 -15.763   6.537  1.00  0.00     0.011 C 
HETATM   37  C   UNL     1      42.580 -15.627   7.516  1.00  0.00     0.011 C 
ENDBRANCH  34  35
ENDBRANCH  33  34
ENDBRANCH  30  33
ENDBRANCH  24  27
ENDBRANCH  21  23
ENDBRANCH   1  21
TORSDOF 9
ENDMDL
MODEL 9
REMARK VINA RESULT:      -7.5      3.401      8.854
REMARK  9 active torsions:
REMARK  status: ('A' for Active; 'I' for Inactive)
REMARK    1  A    between atoms: C_7  and  C_8 
REMARK    2  A    between atoms: C_9  and  O_10 
REMARK    3  A    between atoms: C_13  and  N_14 
REMARK    4  A    between atoms: N_14  and  C_15 
REMARK    5  A    between atoms: C_15  and  N_16 
REMARK       I    between atoms: N_16  and  C_17 
REMARK    6  A    between atoms: C_17  and  C_18 
REMARK    7  A    between atoms: C_21  and  O_22 
REMARK    8  A    between atoms: O_22  and  C_23 
REMARK    9  A    between atoms: C_23  and  C_24 
ROOT
HETATM    1  N   UNL     1      42.065 -11.738   4.786  1.00  0.00    -0.337 N 
HETATM    2  H   UNL     1      41.558 -12.604   4.923  1.00  0.00     0.168 HD
ENDROOT
BRANCH   1   3
HETATM    3  C   UNL     1      43.003 -11.402   5.790  1.00  0.00     0.035 A 
HETATM    4  C   UNL     1      44.218 -12.089   5.812  1.00  0.00     0.032 A 
HETATM    5  C   UNL     1      45.150 -11.838   6.821  1.00  0.00     0.040 A 
HETATM    6  C   UNL     1      44.855 -10.922   7.830  1.00  0.00     0.080 A 
HETATM    7  C   UNL     1      43.631 -10.239   7.851  1.00  0.00     0.052 A 
HETATM    8  C   UNL     1      42.714 -10.492   6.815  1.00  0.00     0.048 A 
BRANCH   6   9
HETATM    9  O   UNL     1      45.819 -10.756   8.792  1.00  0.00    -0.360 OA
HETATM   10  H   UNL     1      45.910 -11.597   9.290  1.00  0.00     0.217 HD
ENDBRANCH   6   9
BRANCH   7  11
HETATM   11  C   UNL     1      43.304  -9.323   8.941  1.00  0.00     0.183 A 
HETATM   12  N   UNL     1      42.800  -8.101   8.855  1.00  0.00    -0.221 NA
HETATM   13  C   UNL     1      42.738  -7.687  10.165  1.00  0.00     0.093 A 
HETATM   14  C   UNL     1      43.197  -8.694  10.999  1.00  0.00     0.107 A 
HETATM   15  C   UNL     1      42.318  -6.480  10.733  1.00  0.00     0.035 A 
HETATM   16  C   UNL     1      43.268  -8.607  12.385  1.00  0.00     0.046 A 
HETATM   17  O   UNL     1      43.563  -9.749  10.219  1.00  0.00    -0.289 OA
HETATM   18  C   UNL     1      42.832  -7.397  12.952  1.00  0.00    -0.059 A 
HETATM   19  C   UNL     1      42.908  -7.201  14.440  1.00  0.00     0.048 C 
HETATM   20  C   UNL     1      42.378  -6.347  12.130  1.00  0.00     0.009 A 
ENDBRANCH   7  11
ENDBRANCH   1   3
BRANCH   1  21
HETATM   21  C   UNL     1      41.865 -11.111   3.580  1.00  0.00     0.157 C 
HETATM   22  S   UNL     1      40.997  -9.701   3.327  1.00  0.00    -0.047 SA
BRANCH  21  23
HETATM   23  N   UNL     1      42.462 -11.690   2.480  1.00  0.00    -0.201 NA
HETATM   24  C   UNL     1      41.875 -12.741   1.810  1.00  0.00     0.237 C 
HETATM   25  O   UNL     1      41.224 -12.578   0.783  1.00  0.00    -0.274 OA
HETATM   26  H   UNL     1      42.653 -10.932   1.833  1.00  0.00     0.139 HD
BRANCH  24  27
HETATM   27  C   UNL     1      42.137 -14.105   2.323  1.00  0.00     0.026 A 
HETATM   28  C   UNL     1      43.001 -14.941   1.612  1.00  0.00     0.019 A 
HETATM   29  C   UNL     1      43.349 -16.193   2.131  1.00  0.00     0.038 A 
HETATM   30  C   UNL     1      42.861 -16.594   3.376  1.00  0.00     0.068 A 
HETATM   31  C   UNL     1      41.972 -15.765   4.068  1.00  0.00     0.038 A 
HETATM   32  C   UNL     1      41.605 -14.521   3.547  1.00  0.00     0.019 A 
BRANCH  30  33
HETATM   33  O   UNL     1      43.180 -17.759   4.019  1.00  0.00    -0.351 OA
BRANCH  33  34
HETATM   34  C   UNL     1      44.127 -18.610   3.366  1.00  0.00     0.179 C 
BRANCH  34  35
HETATM   35  C   UNL     1      43.478 -19.977   3.104  1.00  0.00     0.002 C 
HETATM   36  C   UNL     1      43.815 -20.462   1.694  1.00  0.00     0.011 C 
HETATM   37  C   UNL     1      43.926 -21.012   4.138  1.00  0.00     0.011 C 
ENDBRANCH  34  35
ENDBRANCH  33  34
ENDBRANCH  30  33
ENDBRANCH  24  27
ENDBRANCH  21  23
ENDBRANCH   1  21
TORSDOF 9
ENDMDL
MODEL 10
REMARK VINA RESULT:      -7.4      2.856      5.197
REMARK  9 active torsions:
REMARK  status: ('A' for Active; 'I' for Inactive)
REMARK    1  A    between atoms: C_7  and  C_8 
REMARK    2  A    between atoms: C_9  and  O_10 
REMARK    3  A    between atoms: C_13  and  N_14 
REMARK    4  A    between atoms: N_14  and  C_15 
REMARK    5  A    between atoms: C_15  and  N_16 
REMARK       I    between atoms: N_16  and  C_17 
REMARK    6  A    between atoms: C_17  and  C_18 
REMARK    7  A    between atoms: C_21  and  O_22 
REMARK    8  A    between atoms: O_22  and  C_23 
REMARK    9  A    between atoms: C_23  and  C_24 
ROOT
HETATM    1  N   UNL     1      42.009  -9.612   4.746  1.00  0.00    -0.337 N 
HETATM    2  H   UNL     1      43.019  -9.568   4.816  1.00  0.00     0.168 HD
ENDROOT
BRANCH   1   3
HETATM    3  C   UNL     1      41.423 -10.870   5.016  1.00  0.00     0.035 A 
HETATM    4  C   UNL     1      40.305 -10.911   5.851  1.00  0.00     0.032 A 
HETATM    5  C   UNL     1      39.729 -12.134   6.197  1.00  0.00     0.040 A 
HETATM    6  C   UNL     1      40.290 -13.324   5.736  1.00  0.00     0.080 A 
HETATM    7  C   UNL     1      41.430 -13.317   4.920  1.00  0.00     0.052 A 
HETATM    8  C   UNL     1      41.983 -12.073   4.567  1.00  0.00     0.048 A 
BRANCH   6   9
HETATM    9  O   UNL     1      39.672 -14.479   6.146  1.00  0.00    -0.360 OA
HETATM   10  H   UNL     1      38.711 -14.302   6.235  1.00  0.00     0.217 HD
ENDBRANCH   6   9
BRANCH   7  11
HETATM   11  C   UNL     1      42.047 -14.568   4.486  1.00  0.00     0.183 A 
HETATM   12  N   UNL     1      42.286 -14.972   3.247  1.00  0.00    -0.221 NA
HETATM   13  C   UNL     1      42.830 -16.223   3.418  1.00  0.00     0.093 A 
HETATM   14  C   UNL     1      42.913 -16.521   4.768  1.00  0.00     0.107 A 
HETATM   15  C   UNL     1      43.270 -17.173   2.489  1.00  0.00     0.035 A 
HETATM   16  C   UNL     1      43.416 -17.707   5.291  1.00  0.00     0.046 A 
HETATM   17  O   UNL     1      42.411 -15.461   5.462  1.00  0.00    -0.289 OA
HETATM   18  C   UNL     1      43.870 -18.652   4.355  1.00  0.00    -0.059 A 
HETATM   19  C   UNL     1      44.396 -19.978   4.829  1.00  0.00     0.048 C 
HETATM   20  C   UNL     1      43.781 -18.388   2.974  1.00  0.00     0.009 A 
ENDBRANCH   7  11
ENDBRANCH   1   3
BRANCH   1  21
HETATM   21  C   UNL     1      41.370  -8.412   4.546  1.00  0.00     0.157 C 
HETATM   22  S   UNL     1      40.952  -7.303   5.730  1.00  0.00    -0.047 SA
BRANCH  21  23
HETATM   23  N   UNL     1      41.072  -8.084   3.241  1.00  0.00    -0.201 NA
HETATM   24  C   UNL     1      39.962  -8.594   2.604  1.00  0.00     0.237 C 
HETATM   25  O   UNL     1      38.917  -7.959   2.507  1.00  0.00    -0.274 OA
HETATM   26  H   UNL     1      41.056  -7.070   3.203  1.00  0.00     0.139 HD
BRANCH  24  27
HETATM   27  C   UNL     1      40.101  -9.914   1.949  1.00  0.00     0.026 A 
HETATM   28  C   UNL     1      41.204 -10.145   1.122  1.00  0.00     0.019 A 
HETATM   29  C   UNL     1      41.417 -11.417   0.578  1.00  0.00     0.038 A 
HETATM   30  C   UNL     1      40.547 -12.464   0.887  1.00  0.00     0.068 A 
HETATM   31  C   UNL     1      39.428 -12.218   1.690  1.00  0.00     0.038 A 
HETATM   32  C   UNL     1      39.199 -10.946   2.222  1.00  0.00     0.019 A 
BRANCH  30  33
HETATM   33  O   UNL     1      40.684 -13.762   0.474  1.00  0.00    -0.351 OA
BRANCH  33  34
HETATM   34  C   UNL     1      39.638 -14.283  -0.351  1.00  0.00     0.179 C 
BRANCH  34  35
HETATM   35  C   UNL     1      39.476 -13.385  -1.586  1.00  0.00     0.002 C 
HETATM   36  C   UNL     1      40.358 -13.889  -2.728  1.00  0.00     0.011 C 
HETATM   37  C   UNL     1      38.015 -13.320  -2.037  1.00  0.00     0.011 C 
ENDBRANCH  34  35
ENDBRANCH  33  34
ENDBRANCH  30  33
ENDBRANCH  24  27
ENDBRANCH  21  23
ENDBRANCH   1  21
TORSDOF 9
ENDMDL
