MODEL 1
REMARK VINA RESULT:      -8.2      0.000      0.000
REMARK  2 active torsions:
REMARK  status: ('A' for Active; 'I' for Inactive)
REMARK    1  A    between atoms: C_4  and  C_5 
REMARK    2  A    between atoms: C_10  and  C_11 
ROOT
HETATM    1  C   UNL     1      42.024 -15.873   4.662  1.00  0.00     0.224 C 
HETATM    2  N   UNL     1      41.401 -14.690   5.267  1.00  0.00    -0.359 N 
HETATM    3  C   UNL     1      40.121 -14.289   4.698  1.00  0.00     0.152 C 
HETATM    4  C   UNL     1      42.257 -13.737   5.823  1.00  0.00     0.047 A 
HETATM    5  C   UNL     1      43.537 -14.113   6.271  1.00  0.00     0.058 A 
HETATM    6  C   UNL     1      43.929 -15.533   6.166  1.00  0.00     0.255 C 
HETATM    7  O   UNL     1      44.982 -15.955   6.631  1.00  0.00    -0.268 OA
HETATM    8  N   UNL     1      43.042 -16.361   5.543  1.00  0.00    -0.331 N 
HETATM    9  C   UNL     1      41.898 -12.392   6.001  1.00  0.00     0.030 A 
HETATM   10  C   UNL     1      42.786 -11.463   6.563  1.00  0.00     0.002 A 
HETATM   11  C   UNL     1      44.053 -11.861   6.975  1.00  0.00     0.001 A 
HETATM   12  C   UNL     1      44.431 -13.192   6.836  1.00  0.00     0.019 A 
HETATM   13  H   UNL     1      43.368 -17.306   5.405  1.00  0.00     0.165 HD
ENDROOT
BRANCH   1  14
HETATM   14  C   UNL     1      42.609 -15.737   3.283  1.00  0.00     0.034 A 
HETATM   15  C   UNL     1      43.216 -16.752   2.489  1.00  0.00     0.122 A 
HETATM   16  N   UNL     1      43.623 -16.283   1.299  1.00  0.00    -0.172 NA
HETATM   17  N   UNL     1      43.316 -14.981   1.339  1.00  0.00    -0.288 N 
HETATM   18  H   UNL     1      43.557 -14.405   0.539  1.00  0.00     0.188 HD
HETATM   19  C   UNL     1      42.697 -14.605   2.490  1.00  0.00     0.123 A 
BRANCH  15  20
HETATM   20  C   UNL     1      43.413 -18.185   2.870  1.00  0.00     0.106 A 
HETATM   21  O   UNL     1      43.894 -18.618   4.076  1.00  0.00    -0.313 OA
HETATM   22  C   UNL     1      43.920 -19.978   4.044  1.00  0.00     0.050 A 
HETATM   23  C   UNL     1      44.400 -20.662   5.263  1.00  0.00     0.076 C 
HETATM   24  C   UNL     1      43.469 -20.433   2.826  1.00  0.00     0.035 A 
HETATM   25  C   UNL     1      43.144 -19.280   2.070  1.00  0.00     0.042 A 
ENDBRANCH  15  20
ENDBRANCH   1  14
TORSDOF 2
ENDMDL
MODEL 2
REMARK VINA RESULT:      -8.0      1.519      6.248
REMARK  2 active torsions:
REMARK  status: ('A' for Active; 'I' for Inactive)
REMARK    1  A    between atoms: C_4  and  C_5 
REMARK    2  A    between atoms: C_10  and  C_11 
ROOT
HETATM    1  C   UNL     1      42.682 -15.237   4.089  1.00  0.00     0.224 C 
HETATM    2  N   UNL     1      42.761 -16.101   2.905  1.00  0.00    -0.359 N 
HETATM    3  C   UNL     1      41.867 -15.752   1.808  1.00  0.00     0.152 C 
HETATM    4  C   UNL     1      43.143 -17.427   3.112  1.00  0.00     0.047 A 
HETATM    5  C   UNL     1      43.915 -17.774   4.236  1.00  0.00     0.058 A 
HETATM    6  C   UNL     1      44.333 -16.699   5.158  1.00  0.00     0.255 C 
HETATM    7  O   UNL     1      45.094 -16.905   6.097  1.00  0.00    -0.268 OA
HETATM    8  N   UNL     1      43.846 -15.452   4.896  1.00  0.00    -0.331 N 
HETATM    9  C   UNL     1      42.822 -18.467   2.225  1.00  0.00     0.030 A 
HETATM   10  C   UNL     1      43.221 -19.789   2.467  1.00  0.00     0.002 A 
HETATM   11  C   UNL     1      43.966 -20.103   3.599  1.00  0.00     0.001 A 
HETATM   12  C   UNL     1      44.322 -19.092   4.485  1.00  0.00     0.019 A 
HETATM   13  H   UNL     1      44.072 -14.754   5.588  1.00  0.00     0.165 HD
ENDROOT
BRANCH   1  14
HETATM   14  C   UNL     1      41.465 -15.347   4.964  1.00  0.00     0.034 A 
HETATM   15  C   UNL     1      40.925 -14.359   5.836  1.00  0.00     0.122 A 
HETATM   16  N   UNL     1      39.819 -14.790   6.462  1.00  0.00    -0.172 NA
HETATM   17  N   UNL     1      39.669 -16.048   6.030  1.00  0.00    -0.288 N 
HETATM   18  H   UNL     1      38.894 -16.593   6.394  1.00  0.00     0.188 HD
HETATM   19  C   UNL     1      40.611 -16.426   5.125  1.00  0.00     0.123 A 
BRANCH  15  20
HETATM   20  C   UNL     1      41.470 -12.986   6.076  1.00  0.00     0.106 A 
HETATM   21  O   UNL     1      42.763 -12.706   6.428  1.00  0.00    -0.313 OA
HETATM   22  C   UNL     1      42.873 -11.354   6.547  1.00  0.00     0.050 A 
HETATM   23  C   UNL     1      44.203 -10.827   6.913  1.00  0.00     0.076 C 
HETATM   24  C   UNL     1      41.661 -10.755   6.285  1.00  0.00     0.035 A 
HETATM   25  C   UNL     1      40.759 -11.804   5.984  1.00  0.00     0.042 A 
ENDBRANCH  15  20
ENDBRANCH   1  14
TORSDOF 2
ENDMDL
MODEL 3
REMARK VINA RESULT:      -7.9      2.047      3.667
REMARK  2 active torsions:
REMARK  status: ('A' for Active; 'I' for Inactive)
REMARK    1  A    between atoms: C_4  and  C_5 
REMARK    2  A    between atoms: C_10  and  C_11 
ROOT
HETATM    1  C   UNL     1      41.675 -15.936   5.072  1.00  0.00     0.224 C 
HETATM    2  N   UNL     1      42.277 -15.126   4.007  1.00  0.00    -0.359 N 
HETATM    3  C   UNL     1      43.319 -15.781   3.227  1.00  0.00     0.152 C 
HETATM    4  C   UNL     1      42.300 -13.743   4.197  1.00  0.00     0.047 A 
HETATM    5  C   UNL     1      41.355 -13.129   5.041  1.00  0.00     0.058 A 
HETATM    6  C   UNL     1      40.331 -13.978   5.682  1.00  0.00     0.255 C 
HETATM    7  O   UNL     1      39.412 -13.506   6.343  1.00  0.00    -0.268 OA
HETATM    8  N   UNL     1      40.446 -15.323   5.480  1.00  0.00    -0.331 N 
HETATM    9  C   UNL     1      43.215 -12.893   3.556  1.00  0.00     0.030 A 
HETATM   10  C   UNL     1      43.209 -11.508   3.774  1.00  0.00     0.002 A 
HETATM   11  C   UNL     1      42.276 -10.935   4.631  1.00  0.00     0.001 A 
HETATM   12  C   UNL     1      41.340 -11.745   5.263  1.00  0.00     0.019 A 
HETATM   13  H   UNL     1      39.790 -15.888   5.999  1.00  0.00     0.165 HD
ENDROOT
BRANCH   1  14
HETATM   14  C   UNL     1      42.499 -16.218   6.297  1.00  0.00     0.034 A 
HETATM   15  C   UNL     1      43.322 -17.353   6.553  1.00  0.00     0.122 A 
HETATM   16  N   UNL     1      43.927 -17.276   7.749  1.00  0.00    -0.172 NA
HETATM   17  N   UNL     1      43.475 -16.129   8.270  1.00  0.00    -0.288 N 
HETATM   18  H   UNL     1      43.786 -15.867   9.200  1.00  0.00     0.188 HD
HETATM   19  C   UNL     1      42.635 -15.451   7.443  1.00  0.00     0.123 A 
BRANCH  15  20
HETATM   20  C   UNL     1      43.531 -18.526   5.648  1.00  0.00     0.106 A 
HETATM   21  O   UNL     1      43.584 -18.464   4.283  1.00  0.00    -0.313 OA
HETATM   22  C   UNL     1      43.795 -19.727   3.822  1.00  0.00     0.050 A 
HETATM   23  C   UNL     1      43.899 -19.891   2.357  1.00  0.00     0.076 C 
HETATM   24  C   UNL     1      43.868 -20.610   4.875  1.00  0.00     0.035 A 
HETATM   25  C   UNL     1      43.697 -19.838   6.050  1.00  0.00     0.042 A 
ENDBRANCH  15  20
ENDBRANCH   1  14
TORSDOF 2
ENDMDL
MODEL 4
REMARK VINA RESULT:      -7.6      2.971      4.794
REMARK  2 active torsions:
REMARK  status: ('A' for Active; 'I' for Inactive)
REMARK    1  A    between atoms: C_4  and  C_5 
REMARK    2  A    between atoms: C_10  and  C_11 
ROOT
HETATM    1  C   UNL     1      42.380 -14.426   2.287  1.00  0.00     0.224 C 
HETATM    2  N   UNL     1      42.581 -12.978   2.149  1.00  0.00    -0.359 N 
HETATM    3  C   UNL     1      43.509 -12.377   3.098  1.00  0.00     0.152 C 
HETATM    4  C   UNL     1      41.517 -12.236   1.633  1.00  0.00     0.047 A 
HETATM    5  C   UNL     1      40.561 -12.853   0.805  1.00  0.00     0.058 A 
HETATM    6  C   UNL     1      40.736 -14.282   0.475  1.00  0.00     0.255 C 
HETATM    7  O   UNL     1      40.007 -14.860  -0.324  1.00  0.00    -0.268 OA
HETATM    8  N   UNL     1      41.771 -14.923   1.090  1.00  0.00    -0.331 N 
HETATM    9  C   UNL     1      41.352 -10.862   1.868  1.00  0.00     0.030 A 
HETATM   10  C   UNL     1      40.269 -10.150   1.334  1.00  0.00     0.002 A 
HETATM   11  C   UNL     1      39.329 -10.794   0.537  1.00  0.00     0.001 A 
HETATM   12  C   UNL     1      39.476 -12.149   0.263  1.00  0.00     0.019 A 
HETATM   13  H   UNL     1      41.816 -15.917   0.919  1.00  0.00     0.165 HD
ENDROOT
BRANCH   1  14
HETATM   14  C   UNL     1      41.591 -14.920   3.467  1.00  0.00     0.034 A 
HETATM   15  C   UNL     1      41.719 -16.169   4.141  1.00  0.00     0.122 A 
HETATM   16  N   UNL     1      40.858 -16.279   5.166  1.00  0.00    -0.172 NA
HETATM   17  N   UNL     1      40.162 -15.136   5.130  1.00  0.00    -0.288 N 
HETATM   18  H   UNL     1      39.423 -15.001   5.812  1.00  0.00     0.188 HD
HETATM   19  C   UNL     1      40.566 -14.284   4.150  1.00  0.00     0.123 A 
BRANCH  15  20
HETATM   20  C   UNL     1      42.672 -17.272   3.804  1.00  0.00     0.106 A 
HETATM   21  O   UNL     1      42.498 -18.177   2.793  1.00  0.00    -0.313 OA
HETATM   22  C   UNL     1      43.575 -19.010   2.797  1.00  0.00     0.050 A 
HETATM   23  C   UNL     1      43.599 -20.069   1.768  1.00  0.00     0.076 C 
HETATM   24  C   UNL     1      44.440 -18.661   3.809  1.00  0.00     0.035 A 
HETATM   25  C   UNL     1      43.860 -17.544   4.457  1.00  0.00     0.042 A 
ENDBRANCH  15  20
ENDBRANCH   1  14
TORSDOF 2
ENDMDL
MODEL 5
REMARK VINA RESULT:      -7.6      2.879      6.777
REMARK  2 active torsions:
REMARK  status: ('A' for Active; 'I' for Inactive)
REMARK    1  A    between atoms: C_4  and  C_5 
REMARK    2  A    between atoms: C_10  and  C_11 
ROOT
HETATM    1  C   UNL     1      41.308 -14.306   5.106  1.00  0.00     0.224 C 
HETATM    2  N   UNL     1      42.094 -15.478   5.511  1.00  0.00    -0.359 N 
HETATM    3  C   UNL     1      42.941 -15.296   6.682  1.00  0.00     0.152 C 
HETATM    4  C   UNL     1      42.460 -16.374   4.505  1.00  0.00     0.047 A 
HETATM    5  C   UNL     1      41.697 -16.465   3.326  1.00  0.00     0.058 A 
HETATM    6  C   UNL     1      40.493 -15.618   3.203  1.00  0.00     0.255 C 
HETATM    7  O   UNL     1      39.720 -15.718   2.256  1.00  0.00    -0.268 OA
HETATM    8  N   UNL     1      40.270 -14.731   4.215  1.00  0.00    -0.331 N 
HETATM    9  C   UNL     1      43.557 -17.243   4.611  1.00  0.00     0.030 A 
HETATM   10  C   UNL     1      43.896 -18.129   3.579  1.00  0.00     0.002 A 
HETATM   11  C   UNL     1      43.134 -18.179   2.416  1.00  0.00     0.001 A 
HETATM   12  C   UNL     1      42.026 -17.350   2.290  1.00  0.00     0.019 A 
HETATM   13  H   UNL     1      39.494 -14.104   4.067  1.00  0.00     0.165 HD
ENDROOT
BRANCH   1  14
HETATM   14  C   UNL     1      42.036 -13.151   4.477  1.00  0.00     0.034 A 
HETATM   15  C   UNL     1      41.746 -11.762   4.608  1.00  0.00     0.122 A 
HETATM   16  N   UNL     1      42.608 -11.000   3.915  1.00  0.00    -0.172 NA
HETATM   17  N   UNL     1      43.417 -11.885   3.319  1.00  0.00    -0.288 N 
HETATM   18  H   UNL     1      44.150 -11.533   2.711  1.00  0.00     0.188 HD
HETATM   19  C   UNL     1      43.132 -13.177   3.630  1.00  0.00     0.123 A 
BRANCH  15  20
HETATM   20  C   UNL     1      40.633 -11.153   5.401  1.00  0.00     0.106 A 
HETATM   21  O   UNL     1      40.764 -10.618   6.654  1.00  0.00    -0.313 OA
HETATM   22  C   UNL     1      39.539 -10.160   7.035  1.00  0.00     0.050 A 
HETATM   23  C   UNL     1      39.453  -9.525   8.366  1.00  0.00     0.076 C 
HETATM   24  C   UNL     1      38.613 -10.403   6.046  1.00  0.00     0.035 A 
HETATM   25  C   UNL     1      39.316 -11.043   4.996  1.00  0.00     0.042 A 
ENDBRANCH  15  20
ENDBRANCH   1  14
TORSDOF 2
ENDMDL
MODEL 6
REMARK VINA RESULT:      -7.5      3.407      6.366
REMARK  2 active torsions:
REMARK  status: ('A' for Active; 'I' for Inactive)
REMARK    1  A    between atoms: C_4  and  C_5 
REMARK    2  A    between atoms: C_10  and  C_11 
ROOT
HETATM    1  C   UNL     1      40.991 -14.125   4.340  1.00  0.00     0.224 C 
HETATM    2  N   UNL     1      41.571 -15.240   5.097  1.00  0.00    -0.359 N 
HETATM    3  C   UNL     1      42.041 -14.917   6.438  1.00  0.00     0.152 C 
HETATM    4  C   UNL     1      42.181 -16.258   4.361  1.00  0.00     0.047 A 
HETATM    5  C   UNL     1      41.798 -16.492   3.027  1.00  0.00     0.058 A 
HETATM    6  C   UNL     1      40.721 -15.662   2.450  1.00  0.00     0.255 C 
HETATM    7  O   UNL     1      40.259 -15.876   1.334  1.00  0.00    -0.268 OA
HETATM    8  N   UNL     1      40.246 -14.654   3.237  1.00  0.00    -0.331 N 
HETATM    9  C   UNL     1      43.161 -17.111   4.892  1.00  0.00     0.030 A 
HETATM   10  C   UNL     1      43.752 -18.121   4.120  1.00  0.00     0.002 A 
HETATM   11  C   UNL     1      43.367 -18.313   2.798  1.00  0.00     0.001 A 
HETATM   12  C   UNL     1      42.381 -17.502   2.248  1.00  0.00     0.019 A 
HETATM   13  H   UNL     1      39.576 -14.047   2.790  1.00  0.00     0.165 HD
ENDROOT
BRANCH   1  14
HETATM   14  C   UNL     1      41.920 -13.061   3.825  1.00  0.00     0.034 A 
HETATM   15  C   UNL     1      41.660 -12.092   2.814  1.00  0.00     0.122 A 
HETATM   16  N   UNL     1      42.713 -11.284   2.609  1.00  0.00    -0.172 NA
HETATM   17  N   UNL     1      43.647 -11.748   3.448  1.00  0.00    -0.288 N 
HETATM   18  H   UNL     1      44.556 -11.297   3.452  1.00  0.00     0.188 HD
HETATM   19  C   UNL     1      43.224 -12.794   4.207  1.00  0.00     0.123 A 
BRANCH  15  20
HETATM   20  C   UNL     1      40.395 -11.934   2.032  1.00  0.00     0.106 A 
HETATM   21  O   UNL     1      40.172 -12.455   0.786  1.00  0.00    -0.313 OA
HETATM   22  C   UNL     1      38.910 -12.106   0.414  1.00  0.00     0.050 A 
HETATM   23  C   UNL     1      38.452 -12.580  -0.908  1.00  0.00     0.076 C 
HETATM   24  C   UNL     1      38.315 -11.355   1.403  1.00  0.00     0.035 A 
HETATM   25  C   UNL     1      39.270 -11.244   2.442  1.00  0.00     0.042 A 
ENDBRANCH  15  20
ENDBRANCH   1  14
TORSDOF 2
ENDMDL
MODEL 7
REMARK VINA RESULT:      -7.5      2.422      6.319
REMARK  2 active torsions:
REMARK  status: ('A' for Active; 'I' for Inactive)
REMARK    1  A    between atoms: C_4  and  C_5 
REMARK    2  A    between atoms: C_10  and  C_11 
ROOT
HETATM    1  C   UNL     1      41.382 -13.852   4.697  1.00  0.00     0.224 C 
HETATM    2  N   UNL     1      42.310 -14.897   5.145  1.00  0.00    -0.359 N 
HETATM    3  C   UNL     1      43.333 -14.471   6.091  1.00  0.00     0.152 C 
HETATM    4  C   UNL     1      42.560 -15.945   4.257  1.00  0.00     0.047 A 
HETATM    5  C   UNL     1      41.612 -16.279   3.272  1.00  0.00     0.058 A 
HETATM    6  C   UNL     1      40.346 -15.520   3.230  1.00  0.00     0.255 C 
HETATM    7  O   UNL     1      39.430 -15.821   2.473  1.00  0.00    -0.268 OA
HETATM    8  N   UNL     1      40.239 -14.474   4.099  1.00  0.00    -0.331 N 
HETATM    9  C   UNL     1      43.720 -16.734   4.306  1.00  0.00     0.030 A 
HETATM   10  C   UNL     1      43.938 -17.778   3.395  1.00  0.00     0.002 A 
HETATM   11  C   UNL     1      42.991 -18.069   2.419  1.00  0.00     0.001 A 
HETATM   12  C   UNL     1      41.820 -17.323   2.359  1.00  0.00     0.019 A 
HETATM   13  H   UNL     1      39.405 -13.916   3.992  1.00  0.00     0.165 HD
ENDROOT
BRANCH   1  14
HETATM   14  C   UNL     1      41.902 -12.800   3.757  1.00  0.00     0.034 A 
HETATM   15  C   UNL     1      42.694 -11.660   4.075  1.00  0.00     0.122 A 
HETATM   16  N   UNL     1      42.991 -10.933   2.986  1.00  0.00    -0.172 NA
HETATM   17  N   UNL     1      42.371 -11.575   1.988  1.00  0.00    -0.288 N 
HETATM   18  H   UNL     1      42.437 -11.187   1.053  1.00  0.00     0.188 HD
HETATM   19  C   UNL     1      41.721 -12.700   2.387  1.00  0.00     0.123 A 
BRANCH  15  20
HETATM   20  C   UNL     1      43.171 -11.256   5.434  1.00  0.00     0.106 A 
HETATM   21  O   UNL     1      44.479 -11.252   5.838  1.00  0.00    -0.313 OA
HETATM   22  C   UNL     1      44.510 -10.818   7.128  1.00  0.00     0.050 A 
HETATM   23  C   UNL     1      45.839 -10.725   7.765  1.00  0.00     0.076 C 
HETATM   24  C   UNL     1      43.234 -10.549   7.568  1.00  0.00     0.035 A 
HETATM   25  C   UNL     1      42.373 -10.832   6.480  1.00  0.00     0.042 A 
ENDBRANCH  15  20
ENDBRANCH   1  14
TORSDOF 2
ENDMDL
MODEL 8
REMARK VINA RESULT:      -7.5      4.195      6.792
REMARK  2 active torsions:
REMARK  status: ('A' for Active; 'I' for Inactive)
REMARK    1  A    between atoms: C_4  and  C_5 
REMARK    2  A    between atoms: C_10  and  C_11 
ROOT
HETATM    1  C   UNL     1      39.864 -13.317   3.386  1.00  0.00     0.224 C 
HETATM    2  N   UNL     1      40.419 -14.186   4.430  1.00  0.00    -0.359 N 
HETATM    3  C   UNL     1      40.639 -13.557   5.726  1.00  0.00     0.152 C 
HETATM    4  C   UNL     1      41.230 -15.243   4.010  1.00  0.00     0.047 A 
HETATM    5  C   UNL     1      41.086 -15.773   2.715  1.00  0.00     0.058 A 
HETATM    6  C   UNL     1      40.041 -15.208   1.837  1.00  0.00     0.255 C 
HETATM    7  O   UNL     1      39.783 -15.687   0.738  1.00  0.00    -0.268 OA
HETATM    8  N   UNL     1      39.356 -14.135   2.326  1.00  0.00    -0.331 N 
HETATM    9  C   UNL     1      42.189 -15.851   4.835  1.00  0.00     0.030 A 
HETATM   10  C   UNL     1      42.987 -16.910   4.378  1.00  0.00     0.002 A 
HETATM   11  C   UNL     1      42.835 -17.397   3.084  1.00  0.00     0.001 A 
HETATM   12  C   UNL     1      41.877 -16.833   2.250  1.00  0.00     0.019 A 
HETATM   13  H   UNL     1      38.710 -13.711   1.676  1.00  0.00     0.165 HD
ENDROOT
BRANCH   1  14
HETATM   14  C   UNL     1      40.759 -12.265   2.793  1.00  0.00     0.034 A 
HETATM   15  C   UNL     1      40.553 -11.517   1.597  1.00  0.00     0.122 A 
HETATM   16  N   UNL     1      41.552 -10.650   1.368  1.00  0.00    -0.172 NA
HETATM   17  N   UNL     1      42.404 -10.860   2.379  1.00  0.00    -0.288 N 
HETATM   18  H   UNL     1      43.263 -10.321   2.403  1.00  0.00     0.188 HD
HETATM   19  C   UNL     1      41.975 -11.798   3.264  1.00  0.00     0.123 A 
BRANCH  15  20
HETATM   20  C   UNL     1      39.392 -11.633   0.661  1.00  0.00     0.106 A 
HETATM   21  O   UNL     1      39.312 -12.512  -0.385  1.00  0.00    -0.313 OA
HETATM   22  C   UNL     1      38.108 -12.321  -0.991  1.00  0.00     0.050 A 
HETATM   23  C   UNL     1      37.804 -13.184  -2.151  1.00  0.00     0.076 C 
HETATM   24  C   UNL     1      37.411 -11.319  -0.355  1.00  0.00     0.035 A 
HETATM   25  C   UNL     1      38.237 -10.876   0.707  1.00  0.00     0.042 A 
ENDBRANCH  15  20
ENDBRANCH   1  14
TORSDOF 2
ENDMDL
MODEL 9
REMARK VINA RESULT:      -7.4      5.464      8.037
REMARK  2 active torsions:
REMARK  status: ('A' for Active; 'I' for Inactive)
REMARK    1  A    between atoms: C_4  and  C_5 
REMARK    2  A    between atoms: C_10  and  C_11 
ROOT
HETATM    1  C   UNL     1      42.727  -9.642   9.258  1.00  0.00     0.224 C 
HETATM    2  N   UNL     1      42.023  -8.413   9.644  1.00  0.00    -0.359 N 
HETATM    3  C   UNL     1      41.609  -7.550   8.545  1.00  0.00     0.152 C 
HETATM    4  C   UNL     1      42.336  -7.868  10.891  1.00  0.00     0.047 A 
HETATM    5  C   UNL     1      42.841  -8.691  11.915  1.00  0.00     0.058 A 
HETATM    6  C   UNL     1      42.996 -10.134  11.644  1.00  0.00     0.255 C 
HETATM    7  O   UNL     1      43.328 -10.930  12.516  1.00  0.00    -0.268 OA
HETATM    8  N   UNL     1      42.726 -10.544  10.370  1.00  0.00    -0.331 N 
HETATM    9  C   UNL     1      42.141  -6.516  11.210  1.00  0.00     0.030 A 
HETATM   10  C   UNL     1      42.469  -6.004  12.474  1.00  0.00     0.002 A 
HETATM   11  C   UNL     1      42.987  -6.839  13.458  1.00  0.00     0.001 A 
HETATM   12  C   UNL     1      43.169  -8.189  13.182  1.00  0.00     0.019 A 
HETATM   13  H   UNL     1      42.924 -11.516  10.186  1.00  0.00     0.165 HD
ENDROOT
BRANCH   1  14
HETATM   14  C   UNL     1      44.134  -9.519   8.742  1.00  0.00     0.034 A 
HETATM   15  C   UNL     1      44.801 -10.370   7.815  1.00  0.00     0.122 A 
HETATM   16  N   UNL     1      46.055  -9.960   7.567  1.00  0.00    -0.172 NA
HETATM   17  N   UNL     1      46.205  -8.883   8.347  1.00  0.00    -0.288 N 
HETATM   18  H   UNL     1      47.102  -8.408   8.344  1.00  0.00     0.188 HD
HETATM   19  C   UNL     1      45.089  -8.566   9.056  1.00  0.00     0.123 A 
BRANCH  15  20
HETATM   20  C   UNL     1      44.238 -11.592   7.160  1.00  0.00     0.106 A 
HETATM   21  O   UNL     1      43.922 -12.755   7.807  1.00  0.00    -0.313 OA
HETATM   22  C   UNL     1      43.432 -13.622   6.879  1.00  0.00     0.050 A 
HETATM   23  C   UNL     1      43.014 -14.951   7.369  1.00  0.00     0.076 C 
HETATM   24  C   UNL     1      43.437 -13.036   5.634  1.00  0.00     0.035 A 
HETATM   25  C   UNL     1      43.956 -11.731   5.813  1.00  0.00     0.042 A 
ENDBRANCH  15  20
ENDBRANCH   1  14
TORSDOF 2
ENDMDL
MODEL 10
REMARK VINA RESULT:      -7.3      2.760      3.782
REMARK  2 active torsions:
REMARK  status: ('A' for Active; 'I' for Inactive)
REMARK    1  A    between atoms: C_4  and  C_5 
REMARK    2  A    between atoms: C_10  and  C_11 
ROOT
HETATM    1  C   UNL     1      42.500 -13.477   3.613  1.00  0.00     0.224 C 
HETATM    2  N   UNL     1      42.529 -12.828   4.929  1.00  0.00    -0.359 N 
HETATM    3  C   UNL     1      42.570 -13.727   6.076  1.00  0.00     0.152 C 
HETATM    4  C   UNL     1      41.919 -11.577   5.033  1.00  0.00     0.047 A 
HETATM    5  C   UNL     1      41.784 -10.759   3.896  1.00  0.00     0.058 A 
HETATM    6  C   UNL     1      42.332 -11.245   2.613  1.00  0.00     0.255 C 
HETATM    7  O   UNL     1      42.348 -10.547   1.605  1.00  0.00    -0.268 OA
HETATM    8  N   UNL     1      42.843 -12.510   2.614  1.00  0.00    -0.331 N 
HETATM    9  C   UNL     1      41.445 -11.050   6.245  1.00  0.00     0.030 A 
HETATM   10  C   UNL     1      40.836  -9.789   6.311  1.00  0.00     0.002 A 
HETATM   11  C   UNL     1      40.698  -9.014   5.164  1.00  0.00     0.001 A 
HETATM   12  C   UNL     1      41.179  -9.495   3.952  1.00  0.00     0.019 A 
HETATM   13  H   UNL     1      43.130 -12.853   1.709  1.00  0.00     0.165 HD
ENDROOT
BRANCH   1  14
HETATM   14  C   UNL     1      41.233 -14.169   3.194  1.00  0.00     0.034 A 
HETATM   15  C   UNL     1      41.026 -15.564   2.991  1.00  0.00     0.122 A 
HETATM   16  N   UNL     1      39.763 -15.838   2.628  1.00  0.00    -0.172 NA
HETATM   17  N   UNL     1      39.175 -14.637   2.563  1.00  0.00    -0.288 N 
HETATM   18  H   UNL     1      38.202 -14.594   2.280  1.00  0.00     0.188 HD
HETATM   19  C   UNL     1      39.998 -13.611   2.905  1.00  0.00     0.123 A 
BRANCH  15  20
HETATM   20  C   UNL     1      42.046 -16.648   3.143  1.00  0.00     0.106 A 
HETATM   21  O   UNL     1      42.162 -17.737   2.322  1.00  0.00    -0.313 OA
HETATM   22  C   UNL     1      43.205 -18.485   2.776  1.00  0.00     0.050 A 
HETATM   23  C   UNL     1      43.517 -19.715   2.021  1.00  0.00     0.076 C 
HETATM   24  C   UNL     1      43.760 -17.897   3.891  1.00  0.00     0.035 A 
HETATM   25  C   UNL     1      43.014 -16.717   4.127  1.00  0.00     0.042 A 
ENDBRANCH  15  20
ENDBRANCH   1  14
TORSDOF 2
ENDMDL
