MODEL 1
REMARK VINA RESULT:      -9.0      0.000      0.000
REMARK  4 active torsions:
REMARK  status: ('A' for Active; 'I' for Inactive)
REMARK    1  A    between atoms: C_6  and  N_7 
REMARK       I    between atoms: N_7  and  C_8 
REMARK    2  A    between atoms: C_8  and  C_9 
REMARK    3  A    between atoms: C_10  and  C_11 
REMARK    4  A    between atoms: C_14  and  O_15 
ROOT
HETATM    1  C   UNL     1      42.526 -13.139   2.232  1.00  0.00     0.125 C 
HETATM    2  C   UNL     1      40.993 -13.357   2.099  1.00  0.00     0.160 C 
HETATM    3  N   UNL     1      40.217 -12.344   2.803  1.00  0.00    -0.231 N 
HETATM    4  C   UNL     1      40.749 -11.295   3.496  1.00  0.00     0.200 A 
HETATM    5  N   UNL     1      42.084 -11.132   3.585  1.00  0.00    -0.256 NA
HETATM    6  C   UNL     1      42.892 -12.356   3.516  1.00  0.00     0.074 C 
HETATM    7  C   UNL     1      44.368 -11.945   3.527  1.00  0.00     0.027 C 
HETATM    8  N   UNL     1      38.878 -12.393   2.942  1.00  0.00    -0.162 NA
HETATM    9  C   UNL     1      38.665 -11.287   3.665  1.00  0.00     0.258 A 
HETATM   10  N   UNL     1      39.785 -10.588   4.025  1.00  0.00    -0.210 NA
HETATM   11  H   UNL     1      42.364 -10.480   4.317  1.00  0.00     0.131 HD
ENDROOT
BRANCH   1  12
HETATM   12  C   UNL     1      43.197 -14.505   2.256  1.00  0.00     0.230 C 
HETATM   13  N   UNL     1      42.687 -15.362   3.216  1.00  0.00    -0.326 N 
HETATM   14  H   UNL     1      42.242 -14.931   4.019  1.00  0.00     0.169 HD
HETATM   15  O   UNL     1      44.143 -14.753   1.513  1.00  0.00    -0.273 OA
BRANCH  13  16
HETATM   16  C   UNL     1      43.084 -16.708   3.400  1.00  0.00     0.040 A 
HETATM   17  C   UNL     1      43.719 -17.210   4.550  1.00  0.00    -0.035 A 
HETATM   18  C   UNL     1      44.005 -18.589   4.621  1.00  0.00     0.015 A 
HETATM   19  C   UNL     1      44.171 -16.365   5.709  1.00  0.00     0.050 C 
HETATM   20  C   UNL     1      43.740 -19.451   3.552  1.00  0.00    -0.061 A 
HETATM   21  C   UNL     1      44.029 -20.918   3.663  1.00  0.00     0.048 C 
HETATM   22  C   UNL     1      43.165 -18.928   2.394  1.00  0.00     0.009 A 
HETATM   23  C   UNL     1      42.856 -17.568   2.313  1.00  0.00     0.030 A 
ENDBRANCH  13  16
ENDBRANCH   1  12
BRANCH   2  24
HETATM   24  C   UNL     1      40.573 -13.402   0.630  1.00  0.00    -0.032 A 
HETATM   25  C   UNL     1      39.848 -14.493   0.134  1.00  0.00     0.012 A 
HETATM   26  C   UNL     1      39.489 -14.546  -1.216  1.00  0.00     0.037 A 
HETATM   27  C   UNL     1      39.837 -13.515  -2.093  1.00  0.00     0.068 A 
HETATM   28  C   UNL     1      40.547 -12.420  -1.605  1.00  0.00     0.037 A 
HETATM   29  C   UNL     1      40.908 -12.361  -0.255  1.00  0.00     0.012 A 
BRANCH  27  30
HETATM   30  O   UNL     1      39.427 -13.696  -3.385  1.00  0.00    -0.356 OA
HETATM   31  C   UNL     1      38.354 -14.605  -3.598  1.00  0.00     0.210 C 
ENDBRANCH  27  30
ENDBRANCH   2  24
TORSDOF 4
ENDMDL
MODEL 2
REMARK VINA RESULT:      -8.7      1.339      1.389
REMARK  4 active torsions:
REMARK  status: ('A' for Active; 'I' for Inactive)
REMARK    1  A    between atoms: C_6  and  N_7 
REMARK       I    between atoms: N_7  and  C_8 
REMARK    2  A    between atoms: C_8  and  C_9 
REMARK    3  A    between atoms: C_10  and  C_11 
REMARK    4  A    between atoms: C_14  and  O_15 
ROOT
HETATM    1  C   UNL     1      41.849 -13.214   3.753  1.00  0.00     0.125 C 
HETATM    2  C   UNL     1      40.433 -12.911   3.191  1.00  0.00     0.160 C 
HETATM    3  N   UNL     1      39.942 -11.595   3.579  1.00  0.00    -0.231 N 
HETATM    4  C   UNL     1      40.635 -10.696   4.338  1.00  0.00     0.200 A 
HETATM    5  N   UNL     1      41.865 -10.989   4.804  1.00  0.00    -0.256 NA
HETATM    6  C   UNL     1      42.146 -12.409   5.042  1.00  0.00     0.074 C 
HETATM    7  C   UNL     1      43.615 -12.534   5.460  1.00  0.00     0.027 C 
HETATM    8  N   UNL     1      38.693 -11.158   3.324  1.00  0.00    -0.162 NA
HETATM    9  C   UNL     1      38.734  -9.947   3.890  1.00  0.00     0.258 A 
HETATM   10  N   UNL     1      39.906  -9.626   4.522  1.00  0.00    -0.210 NA
HETATM   11  H   UNL     1      42.175 -10.364   5.548  1.00  0.00     0.131 HD
ENDROOT
BRANCH   1  12
HETATM   12  C   UNL     1      41.932 -14.705   4.047  1.00  0.00     0.230 C 
HETATM   13  N   UNL     1      42.928 -15.359   3.344  1.00  0.00    -0.326 N 
HETATM   14  H   UNL     1      43.225 -14.932   2.472  1.00  0.00     0.169 HD
HETATM   15  O   UNL     1      41.125 -15.241   4.801  1.00  0.00    -0.273 OA
BRANCH  13  16
HETATM   16  C   UNL     1      43.262 -16.726   3.486  1.00  0.00     0.040 A 
HETATM   17  C   UNL     1      43.898 -17.287   4.608  1.00  0.00    -0.035 A 
HETATM   18  C   UNL     1      44.118 -18.680   4.639  1.00  0.00     0.015 A 
HETATM   19  C   UNL     1      44.417 -16.494   5.776  1.00  0.00     0.050 C 
HETATM   20  C   UNL     1      43.787 -19.501   3.557  1.00  0.00    -0.061 A 
HETATM   21  C   UNL     1      44.007 -20.983   3.625  1.00  0.00     0.048 C 
HETATM   22  C   UNL     1      43.212 -18.922   2.426  1.00  0.00     0.009 A 
HETATM   23  C   UNL     1      42.969 -17.547   2.385  1.00  0.00     0.030 A 
ENDBRANCH  13  16
ENDBRANCH   1  12
BRANCH   2  24
HETATM   24  C   UNL     1      40.411 -13.041   1.667  1.00  0.00    -0.032 A 
HETATM   25  C   UNL     1      39.871 -14.184   1.062  1.00  0.00     0.012 A 
HETATM   26  C   UNL     1      39.877 -14.315  -0.329  1.00  0.00     0.037 A 
HETATM   27  C   UNL     1      40.412 -13.312  -1.142  1.00  0.00     0.068 A 
HETATM   28  C   UNL     1      40.938 -12.167  -0.550  1.00  0.00     0.037 A 
HETATM   29  C   UNL     1      40.934 -12.030   0.842  1.00  0.00     0.012 A 
BRANCH  27  30
HETATM   30  O   UNL     1      40.357 -13.570  -2.484  1.00  0.00    -0.356 OA
HETATM   31  C   UNL     1      39.211 -14.266  -2.959  1.00  0.00     0.210 C 
ENDBRANCH  27  30
ENDBRANCH   2  24
TORSDOF 4
ENDMDL
MODEL 3
REMARK VINA RESULT:      -8.6      2.228      2.822
REMARK  4 active torsions:
REMARK  status: ('A' for Active; 'I' for Inactive)
REMARK    1  A    between atoms: C_6  and  N_7 
REMARK       I    between atoms: N_7  and  C_8 
REMARK    2  A    between atoms: C_8  and  C_9 
REMARK    3  A    between atoms: C_10  and  C_11 
REMARK    4  A    between atoms: C_14  and  O_15 
ROOT
HETATM    1  C   UNL     1      42.002 -13.079   4.952  1.00  0.00     0.125 C 
HETATM    2  C   UNL     1      40.580 -12.549   4.620  1.00  0.00     0.160 C 
HETATM    3  N   UNL     1      40.209 -11.389   5.420  1.00  0.00    -0.231 N 
HETATM    4  C   UNL     1      41.010 -10.797   6.354  1.00  0.00     0.200 A 
HETATM    5  N   UNL     1      42.242 -11.279   6.613  1.00  0.00    -0.256 NA
HETATM    6  C   UNL     1      42.433 -12.718   6.394  1.00  0.00     0.074 C 
HETATM    7  C   UNL     1      43.912 -13.037   6.639  1.00  0.00     0.027 C 
HETATM    8  N   UNL     1      38.982 -10.832   5.406  1.00  0.00    -0.162 NA
HETATM    9  C   UNL     1      39.145  -9.852   6.301  1.00  0.00     0.258 A 
HETATM   10  N   UNL     1      40.373  -9.797   6.905  1.00  0.00    -0.210 NA
HETATM   11  H   UNL     1      42.641 -10.925   7.482  1.00  0.00     0.131 HD
ENDROOT
BRANCH   1  12
HETATM   12  C   UNL     1      41.994 -14.592   4.783  1.00  0.00     0.230 C 
HETATM   13  N   UNL     1      43.009 -15.068   3.970  1.00  0.00    -0.326 N 
HETATM   14  H   UNL     1      43.388 -14.419   3.289  1.00  0.00     0.169 HD
HETATM   15  O   UNL     1      41.110 -15.276   5.290  1.00  0.00    -0.273 OA
BRANCH  13  16
HETATM   16  C   UNL     1      43.268 -16.434   3.708  1.00  0.00     0.040 A 
HETATM   17  C   UNL     1      43.945 -17.307   4.578  1.00  0.00    -0.035 A 
HETATM   18  C   UNL     1      44.082 -18.661   4.212  1.00  0.00     0.015 A 
HETATM   19  C   UNL     1      44.592 -16.886   5.869  1.00  0.00     0.050 C 
HETATM   20  C   UNL     1      43.627 -19.140   2.979  1.00  0.00    -0.061 A 
HETATM   21  C   UNL     1      43.761 -20.590   2.624  1.00  0.00     0.048 C 
HETATM   22  C   UNL     1      43.011 -18.249   2.099  1.00  0.00     0.009 A 
HETATM   23  C   UNL     1      42.849 -16.908   2.454  1.00  0.00     0.030 A 
ENDBRANCH  13  16
ENDBRANCH   1  12
BRANCH   2  24
HETATM   24  C   UNL     1      40.456 -12.212   3.133  1.00  0.00    -0.032 A 
HETATM   25  C   UNL     1      41.398 -11.380   2.516  1.00  0.00     0.012 A 
HETATM   26  C   UNL     1      41.269 -11.049   1.164  1.00  0.00     0.037 A 
HETATM   27  C   UNL     1      40.208 -11.544   0.402  1.00  0.00     0.068 A 
HETATM   28  C   UNL     1      39.273 -12.384   1.005  1.00  0.00     0.037 A 
HETATM   29  C   UNL     1      39.399 -12.719   2.357  1.00  0.00     0.012 A 
BRANCH  27  30
HETATM   30  O   UNL     1      40.199 -11.140  -0.904  1.00  0.00    -0.356 OA
HETATM   31  C   UNL     1      41.208 -11.679  -1.750  1.00  0.00     0.210 C 
ENDBRANCH  27  30
ENDBRANCH   2  24
TORSDOF 4
ENDMDL
MODEL 4
REMARK VINA RESULT:      -8.5      2.778      4.937
REMARK  4 active torsions:
REMARK  status: ('A' for Active; 'I' for Inactive)
REMARK    1  A    between atoms: C_6  and  N_7 
REMARK       I    between atoms: N_7  and  C_8 
REMARK    2  A    between atoms: C_8  and  C_9 
REMARK    3  A    between atoms: C_10  and  C_11 
REMARK    4  A    between atoms: C_14  and  O_15 
ROOT
HETATM    1  C   UNL     1      40.063 -13.328   0.920  1.00  0.00     0.125 C 
HETATM    2  C   UNL     1      40.834 -12.082   1.439  1.00  0.00     0.160 C 
HETATM    3  N   UNL     1      41.152 -11.135   0.379  1.00  0.00    -0.231 N 
HETATM    4  C   UNL     1      40.808 -11.287  -0.934  1.00  0.00     0.200 A 
HETATM    5  N   UNL     1      40.133 -12.377  -1.349  1.00  0.00    -0.256 NA
HETATM    6  C   UNL     1      40.350 -13.606  -0.576  1.00  0.00     0.074 C 
HETATM    7  C   UNL     1      39.420 -14.685  -1.139  1.00  0.00     0.027 C 
HETATM    8  N   UNL     1      41.925 -10.046   0.558  1.00  0.00    -0.162 NA
HETATM    9  C   UNL     1      41.934  -9.542  -0.681  1.00  0.00     0.258 A 
HETATM   10  N   UNL     1      41.262 -10.274  -1.624  1.00  0.00    -0.210 NA
HETATM   11  H   UNL     1      40.152 -12.503  -2.361  1.00  0.00     0.131 HD
ENDROOT
BRANCH   1  12
HETATM   12  C   UNL     1      40.486 -14.528   1.755  1.00  0.00     0.230 C 
HETATM   13  N   UNL     1      41.858 -14.705   1.825  1.00  0.00    -0.326 N 
HETATM   14  H   UNL     1      42.405 -14.317   1.064  1.00  0.00     0.169 HD
HETATM   15  O   UNL     1      39.648 -15.276   2.249  1.00  0.00    -0.273 OA
BRANCH  13  16
HETATM   16  C   UNL     1      42.513 -15.697   2.592  1.00  0.00     0.040 A 
HETATM   17  C   UNL     1      42.932 -15.538   3.924  1.00  0.00    -0.035 A 
HETATM   18  C   UNL     1      43.523 -16.634   4.586  1.00  0.00     0.015 A 
HETATM   19  C   UNL     1      42.846 -14.249   4.695  1.00  0.00     0.050 C 
HETATM   20  C   UNL     1      43.765 -17.846   3.931  1.00  0.00    -0.061 A 
HETATM   21  C   UNL     1      44.369 -19.006   4.665  1.00  0.00     0.048 C 
HETATM   22  C   UNL     1      43.398 -17.970   2.591  1.00  0.00     0.009 A 
HETATM   23  C   UNL     1      42.794 -16.900   1.925  1.00  0.00     0.030 A 
ENDBRANCH  13  16
ENDBRANCH   1  12
BRANCH   2  24
HETATM   24  C   UNL     1      40.048 -11.376   2.545  1.00  0.00    -0.032 A 
HETATM   25  C   UNL     1      38.908 -10.624   2.233  1.00  0.00     0.012 A 
HETATM   26  C   UNL     1      38.207  -9.955   3.240  1.00  0.00     0.037 A 
HETATM   27  C   UNL     1      38.621 -10.027   4.572  1.00  0.00     0.068 A 
HETATM   28  C   UNL     1      39.745 -10.784   4.894  1.00  0.00     0.037 A 
HETATM   29  C   UNL     1      40.450 -11.457   3.889  1.00  0.00     0.012 A 
BRANCH  27  30
HETATM   30  O   UNL     1      37.848  -9.324   5.454  1.00  0.00    -0.356 OA
HETATM   31  C   UNL     1      37.759  -7.919   5.252  1.00  0.00     0.210 C 
ENDBRANCH  27  30
ENDBRANCH   2  24
TORSDOF 4
ENDMDL
MODEL 5
REMARK VINA RESULT:      -8.4      2.691      6.756
REMARK  4 active torsions:
REMARK  status: ('A' for Active; 'I' for Inactive)
REMARK    1  A    between atoms: C_6  and  N_7 
REMARK       I    between atoms: N_7  and  C_8 
REMARK    2  A    between atoms: C_8  and  C_9 
REMARK    3  A    between atoms: C_10  and  C_11 
REMARK    4  A    between atoms: C_14  and  O_15 
ROOT
HETATM    1  C   UNL     1      40.965 -12.613   5.333  1.00  0.00     0.125 C 
HETATM    2  C   UNL     1      42.466 -13.000   5.224  1.00  0.00     0.160 C 
HETATM    3  N   UNL     1      43.326 -12.158   6.045  1.00  0.00    -0.231 N 
HETATM    4  C   UNL     1      42.889 -11.143   6.849  1.00  0.00     0.200 A 
HETATM    5  N   UNL     1      41.578 -10.839   6.925  1.00  0.00    -0.256 NA
HETATM    6  C   UNL     1      40.776 -11.129   5.730  1.00  0.00     0.074 C 
HETATM    7  C   UNL     1      39.313 -10.814   6.060  1.00  0.00     0.027 C 
HETATM    8  N   UNL     1      44.672 -12.214   6.019  1.00  0.00    -0.162 NA
HETATM    9  C   UNL     1      44.977 -11.255   6.900  1.00  0.00     0.258 A 
HETATM   10  N   UNL     1      43.912 -10.576   7.430  1.00  0.00    -0.210 NA
HETATM   11  H   UNL     1      41.398  -9.928   7.346  1.00  0.00     0.131 HD
ENDROOT
BRANCH   1  12
HETATM   12  C   UNL     1      40.311 -12.870   3.983  1.00  0.00     0.230 C 
HETATM   13  N   UNL     1      41.214 -13.028   2.946  1.00  0.00    -0.326 N 
HETATM   14  H   UNL     1      42.125 -12.596   3.066  1.00  0.00     0.169 HD
HETATM   15  O   UNL     1      39.089 -12.866   3.866  1.00  0.00    -0.273 OA
BRANCH  13  16
HETATM   16  C   UNL     1      40.873 -13.346   1.610  1.00  0.00     0.040 A 
HETATM   17  C   UNL     1      40.439 -14.609   1.169  1.00  0.00    -0.035 A 
HETATM   18  C   UNL     1      40.076 -14.769  -0.184  1.00  0.00     0.015 A 
HETATM   19  C   UNL     1      40.381 -15.838   2.035  1.00  0.00     0.050 C 
HETATM   20  C   UNL     1      40.205 -13.727  -1.108  1.00  0.00    -0.061 A 
HETATM   21  C   UNL     1      39.787 -13.915  -2.536  1.00  0.00     0.048 C 
HETATM   22  C   UNL     1      40.694 -12.497  -0.669  1.00  0.00     0.009 A 
HETATM   23  C   UNL     1      41.040 -12.314   0.672  1.00  0.00     0.030 A 
ENDBRANCH  13  16
ENDBRANCH   1  12
BRANCH   2  24
HETATM   24  C   UNL     1      42.679 -14.469   5.591  1.00  0.00    -0.032 A 
HETATM   25  C   UNL     1      43.186 -15.369   4.645  1.00  0.00     0.012 A 
HETATM   26  C   UNL     1      43.354 -16.717   4.972  1.00  0.00     0.037 A 
HETATM   27  C   UNL     1      43.028 -17.193   6.244  1.00  0.00     0.068 A 
HETATM   28  C   UNL     1      42.535 -16.303   7.196  1.00  0.00     0.037 A 
HETATM   29  C   UNL     1      42.367 -14.952   6.874  1.00  0.00     0.012 A 
BRANCH  27  30
HETATM   30  O   UNL     1      43.237 -18.532   6.429  1.00  0.00    -0.356 OA
HETATM   31  C   UNL     1      43.908 -19.227   5.386  1.00  0.00     0.210 C 
ENDBRANCH  27  30
ENDBRANCH   2  24
TORSDOF 4
ENDMDL
MODEL 6
REMARK VINA RESULT:      -7.9      2.256      3.101
REMARK  4 active torsions:
REMARK  status: ('A' for Active; 'I' for Inactive)
REMARK    1  A    between atoms: C_6  and  N_7 
REMARK       I    between atoms: N_7  and  C_8 
REMARK    2  A    between atoms: C_8  and  C_9 
REMARK    3  A    between atoms: C_10  and  C_11 
REMARK    4  A    between atoms: C_14  and  O_15 
ROOT
HETATM    1  C   UNL     1      42.327 -12.064   4.103  1.00  0.00     0.125 C 
HETATM    2  C   UNL     1      40.778 -12.144   4.192  1.00  0.00     0.160 C 
HETATM    3  N   UNL     1      40.245 -11.462   5.365  1.00  0.00    -0.231 N 
HETATM    4  C   UNL     1      40.997 -10.799   6.291  1.00  0.00     0.200 A 
HETATM    5  N   UNL     1      42.339 -10.743   6.179  1.00  0.00    -0.256 NA
HETATM    6  C   UNL     1      42.979 -11.872   5.493  1.00  0.00     0.074 C 
HETATM    7  C   UNL     1      44.476 -11.564   5.378  1.00  0.00     0.027 C 
HETATM    8  N   UNL     1      38.948 -11.504   5.728  1.00  0.00    -0.162 NA
HETATM    9  C   UNL     1      38.981 -10.769   6.845  1.00  0.00     0.258 A 
HETATM   10  N   UNL     1      40.218 -10.319   7.224  1.00  0.00    -0.210 NA
HETATM   11  H   UNL     1      42.805 -10.449   7.037  1.00  0.00     0.131 HD
ENDROOT
BRANCH   1  12
HETATM   12  C   UNL     1      42.831 -13.354   3.472  1.00  0.00     0.230 C 
HETATM   13  N   UNL     1      42.383 -14.499   4.108  1.00  0.00    -0.326 N 
HETATM   14  H   UNL     1      42.122 -14.405   5.084  1.00  0.00     0.169 HD
HETATM   15  O   UNL     1      43.613 -13.327   2.526  1.00  0.00    -0.273 OA
BRANCH  13  16
HETATM   16  C   UNL     1      42.646 -15.823   3.683  1.00  0.00     0.040 A 
HETATM   17  C   UNL     1      41.986 -16.474   2.625  1.00  0.00    -0.035 A 
HETATM   18  C   UNL     1      42.392 -17.778   2.272  1.00  0.00     0.015 A 
HETATM   19  C   UNL     1      40.826 -15.897   1.863  1.00  0.00     0.050 C 
HETATM   20  C   UNL     1      43.379 -18.461   2.989  1.00  0.00    -0.061 A 
HETATM   21  C   UNL     1      43.811 -19.836   2.576  1.00  0.00     0.048 C 
HETATM   22  C   UNL     1      43.983 -17.825   4.073  1.00  0.00     0.009 A 
HETATM   23  C   UNL     1      43.608 -16.527   4.426  1.00  0.00     0.030 A 
ENDBRANCH  13  16
ENDBRANCH   1  12
BRANCH   2  24
HETATM   24  C   UNL     1      40.127 -11.582   2.928  1.00  0.00    -0.032 A 
HETATM   25  C   UNL     1      40.286 -10.232   2.591  1.00  0.00     0.012 A 
HETATM   26  C   UNL     1      39.668  -9.712   1.450  1.00  0.00     0.037 A 
HETATM   27  C   UNL     1      38.889 -10.524   0.622  1.00  0.00     0.068 A 
HETATM   28  C   UNL     1      38.737 -11.871   0.942  1.00  0.00     0.037 A 
HETATM   29  C   UNL     1      39.354 -12.397   2.082  1.00  0.00     0.012 A 
BRANCH  27  30
HETATM   30  O   UNL     1      38.340  -9.888  -0.457  1.00  0.00    -0.356 OA
HETATM   31  C   UNL     1      38.323 -10.605  -1.685  1.00  0.00     0.210 C 
ENDBRANCH  27  30
ENDBRANCH   2  24
TORSDOF 4
ENDMDL
MODEL 7
REMARK VINA RESULT:      -7.9      2.716      6.945
REMARK  4 active torsions:
REMARK  status: ('A' for Active; 'I' for Inactive)
REMARK    1  A    between atoms: C_6  and  N_7 
REMARK       I    between atoms: N_7  and  C_8 
REMARK    2  A    between atoms: C_8  and  C_9 
REMARK    3  A    between atoms: C_10  and  C_11 
REMARK    4  A    between atoms: C_14  and  O_15 
ROOT
HETATM    1  C   UNL     1      41.771 -12.297   4.992  1.00  0.00     0.125 C 
HETATM    2  C   UNL     1      43.195 -12.753   5.416  1.00  0.00     0.160 C 
HETATM    3  N   UNL     1      43.733 -11.967   6.519  1.00  0.00    -0.231 N 
HETATM    4  C   UNL     1      43.075 -10.948   7.146  1.00  0.00     0.200 A 
HETATM    5  N   UNL     1      41.837 -10.583   6.756  1.00  0.00    -0.256 NA
HETATM    6  C   UNL     1      41.508 -10.813   5.345  1.00  0.00     0.074 C 
HETATM    7  C   UNL     1      40.038 -10.435   5.137  1.00  0.00     0.027 C 
HETATM    8  N   UNL     1      44.995 -12.087   6.976  1.00  0.00    -0.162 NA
HETATM    9  C   UNL     1      44.998 -11.159   7.940  1.00  0.00     0.258 A 
HETATM   10  N   UNL     1      43.841 -10.440   8.075  1.00  0.00    -0.210 NA
HETATM   11  H   UNL     1      41.552  -9.672   7.116  1.00  0.00     0.131 HD
ENDROOT
BRANCH   1  12
HETATM   12  C   UNL     1      41.639 -12.499   3.489  1.00  0.00     0.230 C 
HETATM   13  N   UNL     1      40.504 -13.200   3.118  1.00  0.00    -0.326 N 
HETATM   14  H   UNL     1      40.104 -13.819   3.815  1.00  0.00     0.169 HD
HETATM   15  O   UNL     1      42.517 -12.112   2.724  1.00  0.00    -0.273 OA
BRANCH  13  16
HETATM   16  C   UNL     1      40.107 -13.460   1.785  1.00  0.00     0.040 A 
HETATM   17  C   UNL     1      39.509 -12.522   0.925  1.00  0.00    -0.035 A 
HETATM   18  C   UNL     1      39.218 -12.904  -0.401  1.00  0.00     0.015 A 
HETATM   19  C   UNL     1      39.099 -11.134   1.335  1.00  0.00     0.050 C 
HETATM   20  C   UNL     1      39.444 -14.206  -0.858  1.00  0.00    -0.061 A 
HETATM   21  C   UNL     1      39.151 -14.580  -2.280  1.00  0.00     0.048 C 
HETATM   22  C   UNL     1      39.983 -15.143   0.024  1.00  0.00     0.009 A 
HETATM   23  C   UNL     1      40.295 -14.778   1.336  1.00  0.00     0.030 A 
ENDBRANCH  13  16
ENDBRANCH   1  12
BRANCH   2  24
HETATM   24  C   UNL     1      43.206 -14.237   5.785  1.00  0.00    -0.032 A 
HETATM   25  C   UNL     1      42.921 -14.642   7.096  1.00  0.00     0.012 A 
HETATM   26  C   UNL     1      42.959 -15.997   7.439  1.00  0.00     0.037 A 
HETATM   27  C   UNL     1      43.273 -16.970   6.487  1.00  0.00     0.068 A 
HETATM   28  C   UNL     1      43.545 -16.577   5.179  1.00  0.00     0.037 A 
HETATM   29  C   UNL     1      43.507 -15.223   4.829  1.00  0.00     0.012 A 
BRANCH  27  30
HETATM   30  O   UNL     1      43.279 -18.254   6.958  1.00  0.00    -0.356 OA
HETATM   31  C   UNL     1      43.573 -19.281   6.019  1.00  0.00     0.210 C 
ENDBRANCH  27  30
ENDBRANCH   2  24
TORSDOF 4
ENDMDL
MODEL 8
REMARK VINA RESULT:      -7.7      2.462      6.842
REMARK  4 active torsions:
REMARK  status: ('A' for Active; 'I' for Inactive)
REMARK    1  A    between atoms: C_6  and  N_7 
REMARK       I    between atoms: N_7  and  C_8 
REMARK    2  A    between atoms: C_8  and  C_9 
REMARK    3  A    between atoms: C_10  and  C_11 
REMARK    4  A    between atoms: C_14  and  O_15 
ROOT
HETATM    1  C   UNL     1      41.028 -12.186   4.097  1.00  0.00     0.125 C 
HETATM    2  C   UNL     1      42.554 -12.459   3.994  1.00  0.00     0.160 C 
HETATM    3  N   UNL     1      43.260 -12.188   5.240  1.00  0.00    -0.231 N 
HETATM    4  C   UNL     1      42.670 -11.760   6.394  1.00  0.00     0.200 A 
HETATM    5  N   UNL     1      41.341 -11.540   6.451  1.00  0.00    -0.256 NA
HETATM    6  C   UNL     1      40.697 -11.144   5.193  1.00  0.00     0.074 C 
HETATM    7  C   UNL     1      39.189 -11.050   5.447  1.00  0.00     0.027 C 
HETATM    8  N   UNL     1      44.602 -12.225   5.361  1.00  0.00    -0.162 NA
HETATM    9  C   UNL     1      44.742 -11.886   6.648  1.00  0.00     0.258 A 
HETATM   10  N   UNL     1      43.583 -11.593   7.315  1.00  0.00    -0.210 NA
HETATM   11  H   UNL     1      41.056 -10.995   7.264  1.00  0.00     0.131 HD
ENDROOT
BRANCH   1  12
HETATM   12  C   UNL     1      40.546 -11.680   2.745  1.00  0.00     0.230 C 
HETATM   13  N   UNL     1      39.637 -12.521   2.125  1.00  0.00    -0.326 N 
HETATM   14  H   UNL     1      39.669 -13.500   2.390  1.00  0.00     0.169 HD
HETATM   15  O   UNL     1      41.000 -10.646   2.263  1.00  0.00    -0.273 OA
BRANCH  13  16
HETATM   16  C   UNL     1      38.983 -12.252   0.900  1.00  0.00     0.040 A 
HETATM   17  C   UNL     1      39.267 -12.889  -0.321  1.00  0.00    -0.035 A 
HETATM   18  C   UNL     1      38.494 -12.562  -1.455  1.00  0.00     0.015 A 
HETATM   19  C   UNL     1      40.386 -13.873  -0.526  1.00  0.00     0.050 C 
HETATM   20  C   UNL     1      37.506 -11.574  -1.411  1.00  0.00    -0.061 A 
HETATM   21  C   UNL     1      36.680 -11.264  -2.623  1.00  0.00     0.048 C 
HETATM   22  C   UNL     1      37.276 -10.907  -0.208  1.00  0.00     0.009 A 
HETATM   23  C   UNL     1      38.019 -11.231   0.930  1.00  0.00     0.030 A 
ENDBRANCH  13  16
ENDBRANCH   1  12
BRANCH   2  24
HETATM   24  C   UNL     1      42.823 -13.897   3.549  1.00  0.00    -0.032 A 
HETATM   25  C   UNL     1      42.746 -14.949   4.471  1.00  0.00     0.012 A 
HETATM   26  C   UNL     1      43.020 -16.259   4.071  1.00  0.00     0.037 A 
HETATM   27  C   UNL     1      43.368 -16.548   2.749  1.00  0.00     0.068 A 
HETATM   28  C   UNL     1      43.434 -15.510   1.822  1.00  0.00     0.037 A 
HETATM   29  C   UNL     1      43.160 -14.196   2.217  1.00  0.00     0.012 A 
BRANCH  27  30
HETATM   30  O   UNL     1      43.614 -17.869   2.493  1.00  0.00    -0.356 OA
HETATM   31  C   UNL     1      43.984 -18.679   3.602  1.00  0.00     0.210 C 
ENDBRANCH  27  30
ENDBRANCH   2  24
TORSDOF 4
ENDMDL
MODEL 9
REMARK VINA RESULT:      -7.5     15.243     17.319
REMARK  4 active torsions:
REMARK  status: ('A' for Active; 'I' for Inactive)
REMARK    1  A    between atoms: C_6  and  N_7 
REMARK       I    between atoms: N_7  and  C_8 
REMARK    2  A    between atoms: C_8  and  C_9 
REMARK    3  A    between atoms: C_10  and  C_11 
REMARK    4  A    between atoms: C_14  and  O_15 
ROOT
HETATM    1  C   UNL     1      47.428 -30.640  -0.675  1.00  0.00     0.125 C 
HETATM    2  C   UNL     1      46.530 -29.372  -0.654  1.00  0.00     0.160 C 
HETATM    3  N   UNL     1      45.961 -29.063  -1.960  1.00  0.00    -0.231 N 
HETATM    4  C   UNL     1      46.161 -29.799  -3.093  1.00  0.00     0.200 A 
HETATM    5  N   UNL     1      46.941 -30.898  -3.073  1.00  0.00    -0.256 NA
HETATM    6  C   UNL     1      48.021 -30.908  -2.079  1.00  0.00     0.074 C 
HETATM    7  C   UNL     1      48.712 -32.274  -2.151  1.00  0.00     0.027 C 
HETATM    8  N   UNL     1      45.257 -27.944  -2.222  1.00  0.00    -0.162 NA
HETATM    9  C   UNL     1      44.994 -28.117  -3.522  1.00  0.00     0.258 A 
HETATM   10  N   UNL     1      45.531 -29.241  -4.092  1.00  0.00    -0.210 NA
HETATM   11  H   UNL     1      47.217 -31.214  -4.003  1.00  0.00     0.131 HD
ENDROOT
BRANCH   1  12
HETATM   12  C   UNL     1      48.554 -30.438   0.328  1.00  0.00     0.230 C 
HETATM   13  N   UNL     1      48.327 -31.041   1.553  1.00  0.00    -0.326 N 
HETATM   14  H   UNL     1      47.358 -31.202   1.807  1.00  0.00     0.169 HD
HETATM   15  O   UNL     1      49.526 -29.741   0.049  1.00  0.00    -0.273 OA
BRANCH  13  16
HETATM   16  C   UNL     1      49.242 -31.066   2.631  1.00  0.00     0.040 A 
HETATM   17  C   UNL     1      49.408 -30.033   3.571  1.00  0.00    -0.035 A 
HETATM   18  C   UNL     1      50.320 -30.217   4.631  1.00  0.00     0.015 A 
HETATM   19  C   UNL     1      48.714 -28.700   3.500  1.00  0.00     0.050 C 
HETATM   20  C   UNL     1      51.110 -31.367   4.730  1.00  0.00    -0.061 A 
HETATM   21  C   UNL     1      52.052 -31.552   5.882  1.00  0.00     0.048 C 
HETATM   22  C   UNL     1      50.978 -32.358   3.757  1.00  0.00     0.009 A 
HETATM   23  C   UNL     1      50.067 -32.201   2.710  1.00  0.00     0.030 A 
ENDBRANCH  13  16
ENDBRANCH   1  12
BRANCH   2  24
HETATM   24  C   UNL     1      45.409 -29.514   0.377  1.00  0.00    -0.032 A 
HETATM   25  C   UNL     1      44.222 -30.178   0.045  1.00  0.00     0.012 A 
HETATM   26  C   UNL     1      43.187 -30.282   0.978  1.00  0.00     0.037 A 
HETATM   27  C   UNL     1      43.316 -29.735   2.257  1.00  0.00     0.068 A 
HETATM   28  C   UNL     1      44.499 -29.084   2.601  1.00  0.00     0.037 A 
HETATM   29  C   UNL     1      45.538 -28.978   1.670  1.00  0.00     0.012 A 
BRANCH  27  30
HETATM   30  O   UNL     1      42.228 -29.905   3.069  1.00  0.00    -0.356 OA
HETATM   31  C   UNL     1      41.368 -30.997   2.769  1.00  0.00     0.210 C 
ENDBRANCH  27  30
ENDBRANCH   2  24
TORSDOF 4
ENDMDL
MODEL 10
REMARK VINA RESULT:      -7.5     15.358     17.248
REMARK  4 active torsions:
REMARK  status: ('A' for Active; 'I' for Inactive)
REMARK    1  A    between atoms: C_6  and  N_7 
REMARK       I    between atoms: N_7  and  C_8 
REMARK    2  A    between atoms: C_8  and  C_9 
REMARK    3  A    between atoms: C_10  and  C_11 
REMARK    4  A    between atoms: C_14  and  O_15 
ROOT
HETATM    1  C   UNL     1      46.195 -29.887   0.602  1.00  0.00     0.125 C 
HETATM    2  C   UNL     1      44.948 -30.712   0.179  1.00  0.00     0.160 C 
HETATM    3  N   UNL     1      43.780 -30.433   1.004  1.00  0.00    -0.231 N 
HETATM    4  C   UNL     1      43.748 -29.535   2.032  1.00  0.00     0.200 A 
HETATM    5  N   UNL     1      44.846 -28.830   2.369  1.00  0.00    -0.256 NA
HETATM    6  C   UNL     1      46.137 -29.472   2.093  1.00  0.00     0.074 C 
HETATM    7  C   UNL     1      47.243 -28.473   2.445  1.00  0.00     0.027 C 
HETATM    8  N   UNL     1      42.622 -31.115   0.914  1.00  0.00    -0.162 NA
HETATM    9  C   UNL     1      41.906 -30.512   1.871  1.00  0.00     0.258 A 
HETATM   10  N   UNL     1      42.560 -29.540   2.578  1.00  0.00    -0.210 NA
HETATM   11  H   UNL     1      44.779 -28.390   3.286  1.00  0.00     0.131 HD
ENDROOT
BRANCH   1  12
HETATM   12  C   UNL     1      47.432 -30.738   0.354  1.00  0.00     0.230 C 
HETATM   13  N   UNL     1      48.368 -30.137  -0.470  1.00  0.00    -0.326 N 
HETATM   14  H   UNL     1      48.021 -29.432  -1.112  1.00  0.00     0.169 HD
HETATM   15  O   UNL     1      47.516 -31.873   0.814  1.00  0.00    -0.273 OA
BRANCH  13  16
HETATM   16  C   UNL     1      49.631 -30.681  -0.800  1.00  0.00     0.040 A 
HETATM   17  C   UNL     1      50.699 -30.843   0.101  1.00  0.00    -0.035 A 
HETATM   18  C   UNL     1      51.885 -31.455  -0.353  1.00  0.00     0.015 A 
HETATM   19  C   UNL     1      50.691 -30.356   1.524  1.00  0.00     0.050 C 
HETATM   20  C   UNL     1      52.051 -31.838  -1.688  1.00  0.00    -0.061 A 
HETATM   21  C   UNL     1      53.312 -32.512  -2.140  1.00  0.00     0.048 C 
HETATM   22  C   UNL     1      51.005 -31.617  -2.585  1.00  0.00     0.009 A 
HETATM   23  C   UNL     1      49.816 -31.029  -2.149  1.00  0.00     0.030 A 
ENDBRANCH  13  16
ENDBRANCH   1  12
BRANCH   2  24
HETATM   24  C   UNL     1      44.610 -30.473  -1.293  1.00  0.00    -0.032 A 
HETATM   25  C   UNL     1      44.605 -31.540  -2.201  1.00  0.00     0.012 A 
HETATM   26  C   UNL     1      44.324 -31.317  -3.552  1.00  0.00     0.037 A 
HETATM   27  C   UNL     1      44.037 -30.033  -4.022  1.00  0.00     0.068 A 
HETATM   28  C   UNL     1      44.026 -28.968  -3.124  1.00  0.00     0.037 A 
HETATM   29  C   UNL     1      44.306 -29.186  -1.771  1.00  0.00     0.012 A 
BRANCH  27  30
HETATM   30  O   UNL     1      43.784 -29.955  -5.364  1.00  0.00    -0.356 OA
HETATM   31  C   UNL     1      43.963 -31.146  -6.121  1.00  0.00     0.210 C 
ENDBRANCH  27  30
ENDBRANCH   2  24
TORSDOF 4
ENDMDL
