MODEL 1
REMARK VINA RESULT:      -9.3      0.000      0.000
REMARK  9 active torsions:
REMARK  status: ('A' for Active; 'I' for Inactive)
REMARK    1  A    between atoms: C_2  and  C_3 
REMARK    2  A    between atoms: C_3  and  C_4 
REMARK    3  A    between atoms: C_4  and  C_5 
REMARK    4  A    between atoms: C_5  and  N_6 
REMARK    5  A    between atoms: C_9  and  C_10 
REMARK       I    between atoms: C_10  and  N_11 
REMARK    6  A    between atoms: N_11  and  N_12 
REMARK    7  A    between atoms: C_13  and  C_14 
REMARK    8  A    between atoms: C_24  and  O_25 
REMARK    9  A    between atoms: C_28  and  O_29 
ROOT
HETATM    1  C   UNL     1      43.187 -15.256   6.816  1.00  0.00     0.280 C 
HETATM    2  N   UNL     1      44.106 -14.254   6.532  1.00  0.00    -0.242 N 
HETATM    3  O   UNL     1      42.422 -15.290   7.770  1.00  0.00    -0.266 OA
HETATM    4  H   UNL     1      44.761 -14.376   5.764  1.00  0.00     0.192 HD
ENDROOT
BRANCH   1   5
HETATM    5  C   UNL     1      43.279 -16.378   5.855  1.00  0.00     0.135 A 
HETATM    6  C   UNL     1      43.230 -16.089   4.402  1.00  0.00     0.266 A 
HETATM    7  N   UNL     1      43.362 -17.163   3.521  1.00  0.00    -0.313 N 
HETATM    8  O   UNL     1      43.111 -14.925   4.021  1.00  0.00    -0.267 OA
HETATM    9  C   UNL     1      43.586 -18.498   3.989  1.00  0.00     0.050 A 
HETATM   10  C   UNL     1      43.618 -18.740   5.377  1.00  0.00     0.025 A 
HETATM   11  C   UNL     1      43.788 -19.582   3.116  1.00  0.00     0.031 A 
HETATM   12  C   UNL     1      43.433 -17.628   6.318  1.00  0.00     0.099 A 
HETATM   13  C   UNL     1      43.832 -20.049   5.851  1.00  0.00     0.016 A 
HETATM   14  C   UNL     1      44.020 -21.110   4.970  1.00  0.00     0.001 A 
HETATM   15  C   UNL     1      44.000 -20.874   3.603  1.00  0.00     0.002 A 
BRANCH   7  16
HETATM   16  C   UNL     1      43.247 -16.853   2.094  1.00  0.00     0.132 C 
BRANCH  16  17
HETATM   17  C   UNL     1      41.808 -16.622   1.612  1.00  0.00     0.020 C 
BRANCH  17  18
HETATM   18  C   UNL     1      41.504 -15.178   1.215  1.00  0.00     0.001 C 
BRANCH  18  19
HETATM   19  C   UNL     1      40.034 -15.021   0.818  1.00  0.00    -0.004 C 
HETATM   20  C   UNL     1      39.889 -14.456  -0.585  1.00  0.00     0.005 C 
ENDBRANCH  18  19
ENDBRANCH  17  18
ENDBRANCH  16  17
ENDBRANCH   7  16
BRANCH  12  21
HETATM   21  O   UNL     1      43.459 -17.968   7.660  1.00  0.00    -0.359 OA
HETATM   22  H   UNL     1      42.825 -18.690   7.838  1.00  0.00     0.218 HD
ENDBRANCH  12  21
ENDBRANCH   1   5
BRANCH   2  23
HETATM   23  N   UNL     1      44.131 -13.120   7.288  1.00  0.00    -0.176 NA
HETATM   24  C   UNL     1      43.617 -12.018   6.830  1.00  0.00     0.069 C 
HETATM   25  C   UNL     1      43.730 -10.807   7.734  1.00  0.00     0.073 C 
BRANCH  24  26
HETATM   26  C   UNL     1      42.914 -11.813   5.527  1.00  0.00     0.092 A 
HETATM   27  C   UNL     1      43.692 -11.394   4.324  1.00  0.00     0.261 A 
HETATM   28  O   UNL     1      44.908 -11.235   4.364  1.00  0.00    -0.267 OA
HETATM   29  N   UNL     1      43.000 -11.203   3.161  1.00  0.00    -0.322 N 
HETATM   30  C   UNL     1      41.620 -11.390   3.042  1.00  0.00     0.048 A 
HETATM   31  H   UNL     1      43.550 -10.928   2.357  1.00  0.00     0.169 HD
HETATM   32  C   UNL     1      40.876 -11.769   4.167  1.00  0.00     0.025 A 
HETATM   33  C   UNL     1      41.010 -11.208   1.799  1.00  0.00     0.030 A 
HETATM   34  C   UNL     1      39.498 -11.972   4.021  1.00  0.00     0.016 A 
HETATM   35  C   UNL     1      41.576 -11.950   5.452  1.00  0.00     0.096 A 
HETATM   36  C   UNL     1      38.883 -11.797   2.778  1.00  0.00     0.001 A 
HETATM   37  C   UNL     1      39.637 -11.414   1.670  1.00  0.00     0.002 A 
BRANCH  35  38
HETATM   38  O   UNL     1      40.764 -12.300   6.518  1.00  0.00    -0.359 OA
HETATM   39  H   UNL     1      39.968 -11.729   6.543  1.00  0.00     0.218 HD
ENDBRANCH  35  38
ENDBRANCH  24  26
ENDBRANCH   2  23
TORSDOF 9
ENDMDL
MODEL 2
REMARK VINA RESULT:      -8.4      2.635      6.631
REMARK  9 active torsions:
REMARK  status: ('A' for Active; 'I' for Inactive)
REMARK    1  A    between atoms: C_2  and  C_3 
REMARK    2  A    between atoms: C_3  and  C_4 
REMARK    3  A    between atoms: C_4  and  C_5 
REMARK    4  A    between atoms: C_5  and  N_6 
REMARK    5  A    between atoms: C_9  and  C_10 
REMARK       I    between atoms: C_10  and  N_11 
REMARK    6  A    between atoms: N_11  and  N_12 
REMARK    7  A    between atoms: C_13  and  C_14 
REMARK    8  A    between atoms: C_24  and  O_25 
REMARK    9  A    between atoms: C_28  and  O_29 
ROOT
HETATM    1  C   UNL     1      39.464 -10.636   2.496  1.00  0.00     0.280 C 
HETATM    2  N   UNL     1      39.071 -11.162   3.719  1.00  0.00    -0.242 N 
HETATM    3  O   UNL     1      39.690  -9.459   2.251  1.00  0.00    -0.266 OA
HETATM    4  H   UNL     1      38.816 -12.144   3.785  1.00  0.00     0.192 HD
ENDROOT
BRANCH   1   5
HETATM    5  C   UNL     1      39.506 -11.670   1.438  1.00  0.00     0.135 A 
HETATM    6  C   UNL     1      40.355 -12.869   1.635  1.00  0.00     0.266 A 
HETATM    7  N   UNL     1      40.341 -13.847   0.639  1.00  0.00    -0.313 N 
HETATM    8  O   UNL     1      41.011 -12.982   2.670  1.00  0.00    -0.267 OA
HETATM    9  C   UNL     1      39.502 -13.732  -0.517  1.00  0.00     0.050 A 
HETATM   10  C   UNL     1      38.714 -12.575  -0.679  1.00  0.00     0.025 A 
HETATM   11  C   UNL     1      39.425 -14.737  -1.497  1.00  0.00     0.031 A 
HETATM   12  C   UNL     1      38.754 -11.515   0.338  1.00  0.00     0.099 A 
HETATM   13  C   UNL     1      37.889 -12.447  -1.812  1.00  0.00     0.016 A 
HETATM   14  C   UNL     1      37.834 -13.449  -2.777  1.00  0.00     0.001 A 
HETATM   15  C   UNL     1      38.599 -14.594  -2.617  1.00  0.00     0.002 A 
BRANCH   7  16
HETATM   16  C   UNL     1      41.238 -14.988   0.833  1.00  0.00     0.132 C 
BRANCH  16  17
HETATM   17  C   UNL     1      40.655 -16.109   1.706  1.00  0.00     0.020 C 
BRANCH  17  18
HETATM   18  C   UNL     1      41.518 -16.478   2.912  1.00  0.00     0.001 C 
BRANCH  18  19
HETATM   19  C   UNL     1      42.963 -16.745   2.484  1.00  0.00    -0.004 C 
HETATM   20  C   UNL     1      43.449 -18.102   2.964  1.00  0.00     0.005 C 
ENDBRANCH  18  19
ENDBRANCH  17  18
ENDBRANCH  16  17
ENDBRANCH   7  16
BRANCH  12  21
HETATM   21  O   UNL     1      37.961 -10.409   0.081  1.00  0.00    -0.359 OA
HETATM   22  H   UNL     1      38.510  -9.668  -0.243  1.00  0.00     0.218 HD
ENDBRANCH  12  21
ENDBRANCH   1   5
BRANCH   2  23
HETATM   23  N   UNL     1      39.023 -10.360   4.820  1.00  0.00    -0.176 NA
HETATM   24  C   UNL     1      39.773 -10.616   5.850  1.00  0.00     0.069 C 
HETATM   25  C   UNL     1      39.615  -9.686   7.034  1.00  0.00     0.073 C 
BRANCH  24  26
HETATM   26  C   UNL     1      40.783 -11.709   5.992  1.00  0.00     0.092 A 
HETATM   27  C   UNL     1      42.239 -11.382   5.958  1.00  0.00     0.261 A 
HETATM   28  O   UNL     1      42.639 -10.228   5.842  1.00  0.00    -0.267 OA
HETATM   29  N   UNL     1      43.120 -12.420   6.075  1.00  0.00    -0.322 N 
HETATM   30  C   UNL     1      42.732 -13.752   6.235  1.00  0.00     0.048 A 
HETATM   31  H   UNL     1      44.102 -12.172   6.058  1.00  0.00     0.169 HD
HETATM   32  C   UNL     1      41.368 -14.075   6.253  1.00  0.00     0.025 A 
HETATM   33  C   UNL     1      43.710 -14.737   6.385  1.00  0.00     0.030 A 
HETATM   34  C   UNL     1      41.000 -15.414   6.436  1.00  0.00     0.016 A 
HETATM   35  C   UNL     1      40.380 -12.991   6.093  1.00  0.00     0.096 A 
HETATM   36  C   UNL     1      41.974 -16.402   6.593  1.00  0.00     0.001 A 
HETATM   37  C   UNL     1      43.327 -16.065   6.566  1.00  0.00     0.002 A 
BRANCH  35  38
HETATM   38  O   UNL     1      39.058 -13.399   6.097  1.00  0.00    -0.359 OA
HETATM   39  H   UNL     1      38.556 -12.926   6.794  1.00  0.00     0.218 HD
ENDBRANCH  35  38
ENDBRANCH  24  26
ENDBRANCH   2  23
TORSDOF 9
ENDMDL
MODEL 3
REMARK VINA RESULT:      -8.3      2.453      5.131
REMARK  9 active torsions:
REMARK  status: ('A' for Active; 'I' for Inactive)
REMARK    1  A    between atoms: C_2  and  C_3 
REMARK    2  A    between atoms: C_3  and  C_4 
REMARK    3  A    between atoms: C_4  and  C_5 
REMARK    4  A    between atoms: C_5  and  N_6 
REMARK    5  A    between atoms: C_9  and  C_10 
REMARK       I    between atoms: C_10  and  N_11 
REMARK    6  A    between atoms: N_11  and  N_12 
REMARK    7  A    between atoms: C_13  and  C_14 
REMARK    8  A    between atoms: C_24  and  O_25 
REMARK    9  A    between atoms: C_28  and  O_29 
ROOT
HETATM    1  C   UNL     1      41.285 -11.634   4.110  1.00  0.00     0.280 C 
HETATM    2  N   UNL     1      39.976 -11.509   3.664  1.00  0.00    -0.242 N 
HETATM    3  O   UNL     1      42.131 -10.750   4.136  1.00  0.00    -0.266 OA
HETATM    4  H   UNL     1      39.387 -12.335   3.596  1.00  0.00     0.192 HD
ENDROOT
BRANCH   1   5
HETATM    5  C   UNL     1      41.606 -13.027   4.494  1.00  0.00     0.135 A 
HETATM    6  C   UNL     1      41.484 -14.101   3.480  1.00  0.00     0.266 A 
HETATM    7  N   UNL     1      41.835 -15.397   3.861  1.00  0.00    -0.313 N 
HETATM    8  O   UNL     1      41.116 -13.818   2.341  1.00  0.00    -0.267 OA
HETATM    9  C   UNL     1      42.343 -15.686   5.169  1.00  0.00     0.050 A 
HETATM   10  C   UNL     1      42.437 -14.644   6.112  1.00  0.00     0.025 A 
HETATM   11  C   UNL     1      42.763 -16.973   5.549  1.00  0.00     0.031 A 
HETATM   12  C   UNL     1      42.027 -13.283   5.742  1.00  0.00     0.099 A 
HETATM   13  C   UNL     1      42.930 -14.915   7.403  1.00  0.00     0.016 A 
HETATM   14  C   UNL     1      43.332 -16.198   7.763  1.00  0.00     0.001 A 
HETATM   15  C   UNL     1      43.251 -17.225   6.834  1.00  0.00     0.002 A 
BRANCH   7  16
HETATM   16  C   UNL     1      41.643 -16.446   2.856  1.00  0.00     0.132 C 
BRANCH  16  17
HETATM   17  C   UNL     1      42.868 -16.697   1.964  1.00  0.00     0.020 C 
BRANCH  17  18
HETATM   18  C   UNL     1      43.674 -17.939   2.342  1.00  0.00     0.001 C 
BRANCH  18  19
HETATM   19  C   UNL     1      42.830 -19.205   2.182  1.00  0.00    -0.004 C 
HETATM   20  C   UNL     1      43.695 -20.432   1.950  1.00  0.00     0.005 C 
ENDBRANCH  18  19
ENDBRANCH  17  18
ENDBRANCH  16  17
ENDBRANCH   7  16
BRANCH  12  21
HETATM   21  O   UNL     1      42.137 -12.331   6.742  1.00  0.00    -0.359 OA
HETATM   22  H   UNL     1      42.227 -12.766   7.613  1.00  0.00     0.218 HD
ENDBRANCH  12  21
ENDBRANCH   1   5
BRANCH   2  23
HETATM   23  N   UNL     1      39.492 -10.284   3.313  1.00  0.00    -0.176 NA
HETATM   24  C   UNL     1      39.373  -9.961   2.060  1.00  0.00     0.069 C 
HETATM   25  C   UNL     1      38.861  -8.564   1.779  1.00  0.00     0.073 C 
BRANCH  24  26
HETATM   26  C   UNL     1      39.667 -10.815   0.868  1.00  0.00     0.092 A 
HETATM   27  C   UNL     1      41.044 -10.837   0.294  1.00  0.00     0.261 A 
HETATM   28  O   UNL     1      41.961 -10.189   0.789  1.00  0.00    -0.267 OA
HETATM   29  N   UNL     1      41.255 -11.620  -0.806  1.00  0.00    -0.322 N 
HETATM   30  C   UNL     1      40.262 -12.401  -1.404  1.00  0.00     0.048 A 
HETATM   31  H   UNL     1      42.199 -11.625  -1.173  1.00  0.00     0.169 HD
HETATM   32  C   UNL     1      38.961 -12.378  -0.883  1.00  0.00     0.025 A 
HETATM   33  C   UNL     1      40.587 -13.199  -2.502  1.00  0.00     0.030 A 
HETATM   34  C   UNL     1      37.986 -13.183  -1.484  1.00  0.00     0.016 A 
HETATM   35  C   UNL     1      38.678 -11.518   0.281  1.00  0.00     0.096 A 
HETATM   36  C   UNL     1      38.307 -13.989  -2.579  1.00  0.00     0.001 A 
HETATM   37  C   UNL     1      39.605 -13.995  -3.089  1.00  0.00     0.002 A 
BRANCH  35  38
HETATM   38  O   UNL     1      37.364 -11.534   0.716  1.00  0.00    -0.359 OA
HETATM   39  H   UNL     1      36.792 -11.987   0.062  1.00  0.00     0.218 HD
ENDBRANCH  35  38
ENDBRANCH  24  26
ENDBRANCH   2  23
TORSDOF 9
ENDMDL
MODEL 4
REMARK VINA RESULT:      -8.3      1.229      2.056
REMARK  9 active torsions:
REMARK  status: ('A' for Active; 'I' for Inactive)
REMARK    1  A    between atoms: C_2  and  C_3 
REMARK    2  A    between atoms: C_3  and  C_4 
REMARK    3  A    between atoms: C_4  and  C_5 
REMARK    4  A    between atoms: C_5  and  N_6 
REMARK    5  A    between atoms: C_9  and  C_10 
REMARK       I    between atoms: C_10  and  N_11 
REMARK    6  A    between atoms: N_11  and  N_12 
REMARK    7  A    between atoms: C_13  and  C_14 
REMARK    8  A    between atoms: C_24  and  O_25 
REMARK    9  A    between atoms: C_28  and  O_29 
ROOT
HETATM    1  C   UNL     1      43.081 -14.537   6.302  1.00  0.00     0.280 C 
HETATM    2  N   UNL     1      43.636 -13.372   5.786  1.00  0.00    -0.242 N 
HETATM    3  O   UNL     1      42.713 -14.716   7.455  1.00  0.00    -0.266 OA
HETATM    4  H   UNL     1      43.996 -13.366   4.836  1.00  0.00     0.192 HD
ENDROOT
BRANCH   1   5
HETATM    5  C   UNL     1      43.051 -15.625   5.299  1.00  0.00     0.135 A 
HETATM    6  C   UNL     1      42.548 -15.334   3.936  1.00  0.00     0.266 A 
HETATM    7  N   UNL     1      42.571 -16.370   3.000  1.00  0.00    -0.313 N 
HETATM    8  O   UNL     1      42.163 -14.198   3.662  1.00  0.00    -0.267 OA
HETATM    9  C   UNL     1      43.105 -17.661   3.319  1.00  0.00     0.050 A 
HETATM   10  C   UNL     1      43.566 -17.907   4.628  1.00  0.00     0.025 A 
HETATM   11  C   UNL     1      43.198 -18.695   2.371  1.00  0.00     0.031 A 
HETATM   12  C   UNL     1      43.504 -16.841   5.637  1.00  0.00     0.099 A 
HETATM   13  C   UNL     1      44.087 -19.173   4.956  1.00  0.00     0.016 A 
HETATM   14  C   UNL     1      44.162 -20.187   4.006  1.00  0.00     0.001 A 
HETATM   15  C   UNL     1      43.720 -19.946   2.713  1.00  0.00     0.002 A 
BRANCH   7  16
HETATM   16  C   UNL     1      42.010 -16.070   1.681  1.00  0.00     0.132 C 
BRANCH  16  17
HETATM   17  C   UNL     1      40.476 -16.077   1.630  1.00  0.00     0.020 C 
BRANCH  17  18
HETATM   18  C   UNL     1      39.854 -14.724   1.287  1.00  0.00     0.001 C 
BRANCH  18  19
HETATM   19  C   UNL     1      40.497 -14.133   0.030  1.00  0.00    -0.004 C 
HETATM   20  C   UNL     1      39.494 -13.998  -1.103  1.00  0.00     0.005 C 
ENDBRANCH  18  19
ENDBRANCH  17  18
ENDBRANCH  16  17
ENDBRANCH   7  16
BRANCH  12  21
HETATM   21  O   UNL     1      43.961 -17.185   6.899  1.00  0.00    -0.359 OA
HETATM   22  H   UNL     1      43.233 -17.562   7.431  1.00  0.00     0.218 HD
ENDBRANCH  12  21
ENDBRANCH   1   5
BRANCH   2  23
HETATM   23  N   UNL     1      43.700 -12.251   6.558  1.00  0.00    -0.176 NA
HETATM   24  C   UNL     1      42.967 -11.217   6.272  1.00  0.00     0.069 C 
HETATM   25  C   UNL     1      43.142 -10.009   7.169  1.00  0.00     0.073 C 
BRANCH  24  26
HETATM   26  C   UNL     1      41.961 -11.089   5.173  1.00  0.00     0.092 A 
HETATM   27  C   UNL     1      40.505 -11.187   5.486  1.00  0.00     0.261 A 
HETATM   28  O   UNL     1      40.101 -11.345   6.634  1.00  0.00    -0.267 OA
HETATM   29  N   UNL     1      39.628 -11.080   4.444  1.00  0.00    -0.322 N 
HETATM   30  C   UNL     1      40.021 -10.875   3.119  1.00  0.00     0.048 A 
HETATM   31  H   UNL     1      38.646 -11.141   4.682  1.00  0.00     0.169 HD
HETATM   32  C   UNL     1      41.386 -10.796   2.809  1.00  0.00     0.025 A 
HETATM   33  C   UNL     1      39.046 -10.740   2.129  1.00  0.00     0.030 A 
HETATM   34  C   UNL     1      41.757 -10.569   1.478  1.00  0.00     0.016 A 
HETATM   35  C   UNL     1      42.370 -10.942   3.897  1.00  0.00     0.096 A 
HETATM   36  C   UNL     1      40.786 -10.426   0.484  1.00  0.00     0.001 A 
HETATM   37  C   UNL     1      39.433 -10.514   0.808  1.00  0.00     0.002 A 
BRANCH  35  38
HETATM   38  O   UNL     1      43.695 -10.877   3.502  1.00  0.00    -0.359 OA
HETATM   39  H   UNL     1      43.812 -10.196   2.808  1.00  0.00     0.218 HD
ENDBRANCH  35  38
ENDBRANCH  24  26
ENDBRANCH   2  23
TORSDOF 9
ENDMDL
MODEL 5
REMARK VINA RESULT:      -8.2      2.458      5.224
REMARK  9 active torsions:
REMARK  status: ('A' for Active; 'I' for Inactive)
REMARK    1  A    between atoms: C_2  and  C_3 
REMARK    2  A    between atoms: C_3  and  C_4 
REMARK    3  A    between atoms: C_4  and  C_5 
REMARK    4  A    between atoms: C_5  and  N_6 
REMARK    5  A    between atoms: C_9  and  C_10 
REMARK       I    between atoms: C_10  and  N_11 
REMARK    6  A    between atoms: N_11  and  N_12 
REMARK    7  A    between atoms: C_13  and  C_14 
REMARK    8  A    between atoms: C_24  and  O_25 
REMARK    9  A    between atoms: C_28  and  O_29 
ROOT
HETATM    1  C   UNL     1      42.217 -11.484   3.973  1.00  0.00     0.280 C 
HETATM    2  N   UNL     1      40.903 -11.076   3.782  1.00  0.00    -0.242 N 
HETATM    3  O   UNL     1      43.222 -10.822   3.753  1.00  0.00    -0.266 OA
HETATM    4  H   UNL     1      40.146 -11.743   3.906  1.00  0.00     0.192 HD
ENDROOT
BRANCH   1   5
HETATM    5  C   UNL     1      42.297 -12.896   4.411  1.00  0.00     0.135 A 
HETATM    6  C   UNL     1      42.103 -13.973   3.412  1.00  0.00     0.266 A 
HETATM    7  N   UNL     1      42.228 -15.293   3.847  1.00  0.00    -0.313 N 
HETATM    8  O   UNL     1      41.876 -13.676   2.240  1.00  0.00    -0.267 OA
HETATM    9  C   UNL     1      42.578 -15.611   5.199  1.00  0.00     0.050 A 
HETATM   10  C   UNL     1      42.746 -14.563   6.127  1.00  0.00     0.025 A 
HETATM   11  C   UNL     1      42.773 -16.932   5.640  1.00  0.00     0.031 A 
HETATM   12  C   UNL     1      42.572 -13.169   5.696  1.00  0.00     0.099 A 
HETATM   13  C   UNL     1      43.086 -14.861   7.460  1.00  0.00     0.016 A 
HETATM   14  C   UNL     1      43.265 -16.176   7.879  1.00  0.00     0.001 A 
HETATM   15  C   UNL     1      43.111 -17.210   6.967  1.00  0.00     0.002 A 
BRANCH   7  16
HETATM   16  C   UNL     1      41.968 -16.335   2.851  1.00  0.00     0.132 C 
BRANCH  16  17
HETATM   17  C   UNL     1      43.212 -16.791   2.074  1.00  0.00     0.020 C 
BRANCH  17  18
HETATM   18  C   UNL     1      43.803 -18.114   2.558  1.00  0.00     0.001 C 
BRANCH  18  19
HETATM   19  C   UNL     1      42.882 -19.283   2.202  1.00  0.00    -0.004 C 
HETATM   20  C   UNL     1      43.672 -20.513   1.787  1.00  0.00     0.005 C 
ENDBRANCH  18  19
ENDBRANCH  17  18
ENDBRANCH  16  17
ENDBRANCH   7  16
BRANCH  12  21
HETATM   21  O   UNL     1      42.738 -12.212   6.683  1.00  0.00    -0.359 OA
HETATM   22  H   UNL     1      42.912 -12.641   7.543  1.00  0.00     0.218 HD
ENDBRANCH  12  21
ENDBRANCH   1   5
BRANCH   2  23
HETATM   23  N   UNL     1      40.637  -9.788   3.424  1.00  0.00    -0.176 NA
HETATM   24  C   UNL     1      40.172  -9.521   2.241  1.00  0.00     0.069 C 
HETATM   25  C   UNL     1      39.946  -8.056   1.931  1.00  0.00     0.073 C 
BRANCH  24  26
HETATM   26  C   UNL     1      39.817 -10.492   1.160  1.00  0.00     0.092 A 
HETATM   27  C   UNL     1      38.509 -11.207   1.207  1.00  0.00     0.261 A 
HETATM   28  O   UNL     1      37.692 -11.002   2.100  1.00  0.00    -0.267 OA
HETATM   29  N   UNL     1      38.241 -12.096   0.204  1.00  0.00    -0.322 N 
HETATM   30  C   UNL     1      39.115 -12.357  -0.854  1.00  0.00     0.048 A 
HETATM   31  H   UNL     1      37.343 -12.563   0.253  1.00  0.00     0.169 HD
HETATM   32  C   UNL     1      40.354 -11.703  -0.901  1.00  0.00     0.025 A 
HETATM   33  C   UNL     1      38.733 -13.256  -1.851  1.00  0.00     0.030 A 
HETATM   34  C   UNL     1      41.206 -11.963  -1.982  1.00  0.00     0.016 A 
HETATM   35  C   UNL     1      40.701 -10.762   0.179  1.00  0.00     0.096 A 
HETATM   36  C   UNL     1      40.826 -12.856  -2.987  1.00  0.00     0.001 A 
HETATM   37  C   UNL     1      39.593 -13.503  -2.920  1.00  0.00     0.002 A 
BRANCH  35  38
HETATM   38  O   UNL     1      41.952 -10.179   0.070  1.00  0.00    -0.359 OA
HETATM   39  H   UNL     1      42.249 -10.180  -0.864  1.00  0.00     0.218 HD
ENDBRANCH  35  38
ENDBRANCH  24  26
ENDBRANCH   2  23
TORSDOF 9
ENDMDL
MODEL 6
REMARK VINA RESULT:      -8.1      3.056      5.977
REMARK  9 active torsions:
REMARK  status: ('A' for Active; 'I' for Inactive)
REMARK    1  A    between atoms: C_2  and  C_3 
REMARK    2  A    between atoms: C_3  and  C_4 
REMARK    3  A    between atoms: C_4  and  C_5 
REMARK    4  A    between atoms: C_5  and  N_6 
REMARK    5  A    between atoms: C_9  and  C_10 
REMARK       I    between atoms: C_10  and  N_11 
REMARK    6  A    between atoms: N_11  and  N_12 
REMARK    7  A    between atoms: C_13  and  C_14 
REMARK    8  A    between atoms: C_24  and  O_25 
REMARK    9  A    between atoms: C_28  and  O_29 
ROOT
HETATM    1  C   UNL     1      44.626 -11.698   6.150  1.00  0.00     0.280 C 
HETATM    2  N   UNL     1      44.376 -11.596   7.512  1.00  0.00    -0.242 N 
HETATM    3  O   UNL     1      45.564 -11.196   5.544  1.00  0.00    -0.266 OA
HETATM    4  H   UNL     1      43.513 -11.973   7.894  1.00  0.00     0.192 HD
ENDROOT
BRANCH   1   5
HETATM    5  C   UNL     1      43.555 -12.438   5.446  1.00  0.00     0.135 A 
HETATM    6  C   UNL     1      43.150 -13.772   5.949  1.00  0.00     0.266 A 
HETATM    7  N   UNL     1      42.108 -14.426   5.290  1.00  0.00    -0.313 N 
HETATM    8  O   UNL     1      43.712 -14.242   6.937  1.00  0.00    -0.267 OA
HETATM    9  C   UNL     1      41.411 -13.820   4.194  1.00  0.00     0.050 A 
HETATM   10  C   UNL     1      41.828 -12.554   3.735  1.00  0.00     0.025 A 
HETATM   11  C   UNL     1      40.317 -14.435   3.561  1.00  0.00     0.031 A 
HETATM   12  C   UNL     1      42.954 -11.874   4.387  1.00  0.00     0.099 A 
HETATM   13  C   UNL     1      41.155 -11.949   2.656  1.00  0.00     0.016 A 
HETATM   14  C   UNL     1      40.080 -12.579   2.036  1.00  0.00     0.001 A 
HETATM   15  C   UNL     1      39.660 -13.820   2.492  1.00  0.00     0.002 A 
BRANCH   7  16
HETATM   16  C   UNL     1      41.774 -15.769   5.770  1.00  0.00     0.132 C 
BRANCH  16  17
HETATM   17  C   UNL     1      42.469 -16.905   5.007  1.00  0.00     0.020 C 
BRANCH  17  18
HETATM   18  C   UNL     1      43.508 -16.433   3.990  1.00  0.00     0.001 C 
BRANCH  18  19
HETATM   19  C   UNL     1      43.075 -16.786   2.566  1.00  0.00    -0.004 C 
HETATM   20  C   UNL     1      43.349 -15.649   1.597  1.00  0.00     0.005 C 
ENDBRANCH  18  19
ENDBRANCH  17  18
ENDBRANCH  16  17
ENDBRANCH   7  16
BRANCH  12  21
HETATM   21  O   UNL     1      43.302 -10.644   3.852  1.00  0.00    -0.359 OA
HETATM   22  H   UNL     1      43.647 -10.756   2.945  1.00  0.00     0.218 HD
ENDBRANCH  12  21
ENDBRANCH   1   5
BRANCH   2  23
HETATM   23  N   UNL     1      45.284 -10.987   8.326  1.00  0.00    -0.176 NA
HETATM   24  C   UNL     1      44.884 -10.194   9.274  1.00  0.00     0.069 C 
HETATM   25  C   UNL     1      45.975  -9.538  10.096  1.00  0.00     0.073 C 
BRANCH  24  26
HETATM   26  C   UNL     1      43.476  -9.869   9.657  1.00  0.00     0.092 A 
HETATM   27  C   UNL     1      42.932 -10.352  10.960  1.00  0.00     0.261 A 
HETATM   28  O   UNL     1      43.620 -10.993  11.749  1.00  0.00    -0.267 OA
HETATM   29  N   UNL     1      41.634 -10.042  11.255  1.00  0.00    -0.322 N 
HETATM   30  C   UNL     1      40.806  -9.296  10.413  1.00  0.00     0.048 A 
HETATM   31  H   UNL     1      41.291 -10.374  12.147  1.00  0.00     0.169 HD
HETATM   32  C   UNL     1      41.299  -8.849   9.180  1.00  0.00     0.025 A 
HETATM   33  C   UNL     1      39.504  -8.999  10.821  1.00  0.00     0.030 A 
HETATM   34  C   UNL     1      40.459  -8.084   8.361  1.00  0.00     0.016 A 
HETATM   35  C   UNL     1      42.684  -9.191   8.803  1.00  0.00     0.096 A 
HETATM   36  C   UNL     1      39.158  -7.778   8.767  1.00  0.00     0.001 A 
HETATM   37  C   UNL     1      38.681  -8.236   9.994  1.00  0.00     0.002 A 
BRANCH  35  38
HETATM   38  O   UNL     1      43.083  -8.733   7.560  1.00  0.00    -0.359 OA
HETATM   39  H   UNL     1      43.898  -8.194   7.639  1.00  0.00     0.218 HD
ENDBRANCH  35  38
ENDBRANCH  24  26
ENDBRANCH   2  23
TORSDOF 9
ENDMDL
MODEL 7
REMARK VINA RESULT:      -8.1      2.463      7.239
REMARK  9 active torsions:
REMARK  status: ('A' for Active; 'I' for Inactive)
REMARK    1  A    between atoms: C_2  and  C_3 
REMARK    2  A    between atoms: C_3  and  C_4 
REMARK    3  A    between atoms: C_4  and  C_5 
REMARK    4  A    between atoms: C_5  and  N_6 
REMARK    5  A    between atoms: C_9  and  C_10 
REMARK       I    between atoms: C_10  and  N_11 
REMARK    6  A    between atoms: N_11  and  N_12 
REMARK    7  A    between atoms: C_13  and  C_14 
REMARK    8  A    between atoms: C_24  and  O_25 
REMARK    9  A    between atoms: C_28  and  O_29 
ROOT
HETATM    1  C   UNL     1      40.069 -10.392   5.351  1.00  0.00     0.280 C 
HETATM    2  N   UNL     1      40.264 -10.628   3.997  1.00  0.00    -0.242 N 
HETATM    3  O   UNL     1      39.010 -10.104   5.892  1.00  0.00    -0.266 OA
HETATM    4  H   UNL     1      41.207 -10.765   3.641  1.00  0.00     0.192 HD
ENDROOT
BRANCH   1   5
HETATM    5  C   UNL     1      41.340 -10.441   6.108  1.00  0.00     0.135 A 
HETATM    6  C   UNL     1      42.189 -11.651   6.014  1.00  0.00     0.266 A 
HETATM    7  N   UNL     1      43.402 -11.650   6.705  1.00  0.00    -0.313 N 
HETATM    8  O   UNL     1      41.824 -12.593   5.312  1.00  0.00    -0.267 OA
HETATM    9  C   UNL     1      43.845 -10.506   7.447  1.00  0.00     0.050 A 
HETATM   10  C   UNL     1      43.008  -9.375   7.525  1.00  0.00     0.025 A 
HETATM   11  C   UNL     1      45.092 -10.462   8.095  1.00  0.00     0.031 A 
HETATM   12  C   UNL     1      41.708  -9.379   6.841  1.00  0.00     0.099 A 
HETATM   13  C   UNL     1      43.429  -8.247   8.254  1.00  0.00     0.016 A 
HETATM   14  C   UNL     1      44.663  -8.226   8.897  1.00  0.00     0.001 A 
HETATM   15  C   UNL     1      45.495  -9.333   8.813  1.00  0.00     0.002 A 
BRANCH   7  16
HETATM   16  C   UNL     1      44.189 -12.883   6.643  1.00  0.00     0.132 C 
BRANCH  16  17
HETATM   17  C   UNL     1      43.511 -14.099   7.290  1.00  0.00     0.020 C 
BRANCH  17  18
HETATM   18  C   UNL     1      43.664 -15.397   6.498  1.00  0.00     0.001 C 
BRANCH  18  19
HETATM   19  C   UNL     1      42.786 -16.502   7.092  1.00  0.00    -0.004 C 
HETATM   20  C   UNL     1      43.333 -17.884   6.775  1.00  0.00     0.005 C 
ENDBRANCH  18  19
ENDBRANCH  17  18
ENDBRANCH  16  17
ENDBRANCH   7  16
BRANCH  12  21
HETATM   21  O   UNL     1      40.949  -8.230   6.993  1.00  0.00    -0.359 OA
HETATM   22  H   UNL     1      40.561  -7.966   6.136  1.00  0.00     0.218 HD
ENDBRANCH  12  21
ENDBRANCH   1   5
BRANCH   2  23
HETATM   23  N   UNL     1      39.195 -10.669   3.153  1.00  0.00    -0.176 NA
HETATM   24  C   UNL     1      39.112 -11.594   2.245  1.00  0.00     0.069 C 
HETATM   25  C   UNL     1      37.903 -11.527   1.335  1.00  0.00     0.073 C 
BRANCH  24  26
HETATM   26  C   UNL     1      40.061 -12.725   2.007  1.00  0.00     0.092 A 
HETATM   27  C   UNL     1      40.862 -12.768   0.748  1.00  0.00     0.261 A 
HETATM   28  O   UNL     1      40.784 -11.882  -0.097  1.00  0.00    -0.267 OA
HETATM   29  N   UNL     1      41.702 -13.831   0.572  1.00  0.00    -0.322 N 
HETATM   30  C   UNL     1      41.856 -14.860   1.505  1.00  0.00     0.048 A 
HETATM   31  H   UNL     1      42.240 -13.834  -0.285  1.00  0.00     0.169 HD
HETATM   32  C   UNL     1      41.099 -14.839   2.685  1.00  0.00     0.025 A 
HETATM   33  C   UNL     1      42.770 -15.884   1.251  1.00  0.00     0.030 A 
HETATM   34  C   UNL     1      41.284 -15.868   3.617  1.00  0.00     0.016 A 
HETATM   35  C   UNL     1      40.152 -13.729   2.901  1.00  0.00     0.096 A 
HETATM   36  C   UNL     1      42.203 -16.892   3.370  1.00  0.00     0.001 A 
HETATM   37  C   UNL     1      42.942 -16.901   2.189  1.00  0.00     0.002 A 
BRANCH  35  38
HETATM   38  O   UNL     1      39.427 -13.798   4.078  1.00  0.00    -0.359 OA
HETATM   39  H   UNL     1      40.021 -13.980   4.836  1.00  0.00     0.218 HD
ENDBRANCH  35  38
ENDBRANCH  24  26
ENDBRANCH   2  23
TORSDOF 9
ENDMDL
MODEL 8
REMARK VINA RESULT:      -8.1      2.202      3.418
REMARK  9 active torsions:
REMARK  status: ('A' for Active; 'I' for Inactive)
REMARK    1  A    between atoms: C_2  and  C_3 
REMARK    2  A    between atoms: C_3  and  C_4 
REMARK    3  A    between atoms: C_4  and  C_5 
REMARK    4  A    between atoms: C_5  and  N_6 
REMARK    5  A    between atoms: C_9  and  C_10 
REMARK       I    between atoms: C_10  and  N_11 
REMARK    6  A    between atoms: N_11  and  N_12 
REMARK    7  A    between atoms: C_13  and  C_14 
REMARK    8  A    between atoms: C_24  and  O_25 
REMARK    9  A    between atoms: C_28  and  O_29 
ROOT
HETATM    1  C   UNL     1      42.964 -12.039   5.924  1.00  0.00     0.280 C 
HETATM    2  N   UNL     1      41.677 -11.708   6.328  1.00  0.00    -0.242 N 
HETATM    3  O   UNL     1      43.933 -11.293   5.905  1.00  0.00    -0.266 OA
HETATM    4  H   UNL     1      40.924 -12.382   6.211  1.00  0.00     0.192 HD
ENDROOT
BRANCH   1   5
HETATM    5  C   UNL     1      43.042 -13.426   5.414  1.00  0.00     0.135 A 
HETATM    6  C   UNL     1      43.073 -13.655   3.950  1.00  0.00     0.266 A 
HETATM    7  N   UNL     1      43.190 -14.971   3.500  1.00  0.00    -0.313 N 
HETATM    8  O   UNL     1      43.029 -12.692   3.186  1.00  0.00    -0.267 OA
HETATM    9  C   UNL     1      43.325 -16.069   4.411  1.00  0.00     0.050 A 
HETATM   10  C   UNL     1      43.282 -15.818   5.797  1.00  0.00     0.025 A 
HETATM   11  C   UNL     1      43.511 -17.393   3.976  1.00  0.00     0.031 A 
HETATM   12  C   UNL     1      43.112 -14.443   6.286  1.00  0.00     0.099 A 
HETATM   13  C   UNL     1      43.409 -16.888   6.703  1.00  0.00     0.016 A 
HETATM   14  C   UNL     1      43.583 -18.193   6.253  1.00  0.00     0.001 A 
HETATM   15  C   UNL     1      43.636 -18.444   4.889  1.00  0.00     0.002 A 
BRANCH   7  16
HETATM   16  C   UNL     1      43.154 -15.170   2.049  1.00  0.00     0.132 C 
BRANCH  16  17
HETATM   17  C   UNL     1      41.743 -15.348   1.471  1.00  0.00     0.020 C 
BRANCH  17  18
HETATM   18  C   UNL     1      41.239 -14.150   0.667  1.00  0.00     0.001 C 
BRANCH  18  19
HETATM   19  C   UNL     1      39.813 -13.779   1.081  1.00  0.00    -0.004 C 
HETATM   20  C   UNL     1      39.664 -13.723   2.592  1.00  0.00     0.005 C 
ENDBRANCH  18  19
ENDBRANCH  17  18
ENDBRANCH  16  17
ENDBRANCH   7  16
BRANCH  12  21
HETATM   21  O   UNL     1      43.061 -14.300   7.663  1.00  0.00    -0.359 OA
HETATM   22  H   UNL     1      43.838 -13.797   7.979  1.00  0.00     0.218 HD
ENDBRANCH  12  21
ENDBRANCH   1   5
BRANCH   2  23
HETATM   23  N   UNL     1      41.429 -10.483   6.871  1.00  0.00    -0.176 NA
HETATM   24  C   UNL     1      40.738  -9.602   6.211  1.00  0.00     0.069 C 
HETATM   25  C   UNL     1      40.553  -8.260   6.889  1.00  0.00     0.073 C 
BRANCH  24  26
HETATM   26  C   UNL     1      40.092  -9.768   4.873  1.00  0.00     0.092 A 
HETATM   27  C   UNL     1      38.608  -9.884   4.777  1.00  0.00     0.261 A 
HETATM   28  O   UNL     1      37.889  -9.823   5.769  1.00  0.00    -0.267 OA
HETATM   29  N   UNL     1      38.068 -10.051   3.532  1.00  0.00    -0.322 N 
HETATM   30  C   UNL     1      38.827 -10.105   2.360  1.00  0.00     0.048 A 
HETATM   31  H   UNL     1      37.059 -10.119   3.491  1.00  0.00     0.169 HD
HETATM   32  C   UNL     1      40.224 -10.011   2.438  1.00  0.00     0.025 A 
HETATM   33  C   UNL     1      38.180 -10.238   1.131  1.00  0.00     0.030 A 
HETATM   34  C   UNL     1      40.964 -10.045   1.250  1.00  0.00     0.016 A 
HETATM   35  C   UNL     1      40.852  -9.867   3.765  1.00  0.00     0.096 A 
HETATM   36  C   UNL     1      40.320 -10.172   0.016  1.00  0.00     0.001 A 
HETATM   37  C   UNL     1      38.931 -10.271  -0.043  1.00  0.00     0.002 A 
BRANCH  35  38
HETATM   38  O   UNL     1      42.234  -9.807   3.755  1.00  0.00    -0.359 OA
HETATM   39  H   UNL     1      42.540  -8.910   4.001  1.00  0.00     0.218 HD
ENDBRANCH  35  38
ENDBRANCH  24  26
ENDBRANCH   2  23
TORSDOF 9
ENDMDL
MODEL 9
REMARK VINA RESULT:      -7.9     15.451     18.208
REMARK  9 active torsions:
REMARK  status: ('A' for Active; 'I' for Inactive)
REMARK    1  A    between atoms: C_2  and  C_3 
REMARK    2  A    between atoms: C_3  and  C_4 
REMARK    3  A    between atoms: C_4  and  C_5 
REMARK    4  A    between atoms: C_5  and  N_6 
REMARK    5  A    between atoms: C_9  and  C_10 
REMARK       I    between atoms: C_10  and  N_11 
REMARK    6  A    between atoms: N_11  and  N_12 
REMARK    7  A    between atoms: C_13  and  C_14 
REMARK    8  A    between atoms: C_24  and  O_25 
REMARK    9  A    between atoms: C_28  and  O_29 
ROOT
HETATM    1  C   UNL     1      47.726 -28.801   2.318  1.00  0.00     0.280 C 
HETATM    2  N   UNL     1      48.122 -30.009   2.877  1.00  0.00    -0.242 N 
HETATM    3  O   UNL     1      48.053 -27.684   2.697  1.00  0.00    -0.266 OA
HETATM    4  H   UNL     1      47.712 -30.876   2.540  1.00  0.00     0.192 HD
ENDROOT
BRANCH   1   5
HETATM    5  C   UNL     1      46.757 -28.994   1.216  1.00  0.00     0.135 A 
HETATM    6  C   UNL     1      45.405 -29.514   1.527  1.00  0.00     0.266 A 
HETATM    7  N   UNL     1      44.500 -29.645   0.473  1.00  0.00    -0.313 N 
HETATM    8  O   UNL     1      45.113 -29.779   2.693  1.00  0.00    -0.267 OA
HETATM    9  C   UNL     1      44.837 -29.248  -0.862  1.00  0.00     0.050 A 
HETATM   10  C   UNL     1      46.135 -28.766  -1.127  1.00  0.00     0.025 A 
HETATM   11  C   UNL     1      43.917 -29.311  -1.924  1.00  0.00     0.031 A 
HETATM   12  C   UNL     1      47.114 -28.667  -0.036  1.00  0.00     0.099 A 
HETATM   13  C   UNL     1      46.480 -28.378  -2.435  1.00  0.00     0.016 A 
HETATM   14  C   UNL     1      45.558 -28.456  -3.474  1.00  0.00     0.001 A 
HETATM   15  C   UNL     1      44.276 -28.920  -3.217  1.00  0.00     0.002 A 
BRANCH   7  16
HETATM   16  C   UNL     1      43.194 -30.221   0.802  1.00  0.00     0.132 C 
BRANCH  16  17
HETATM   17  C   UNL     1      43.129 -31.750   0.682  1.00  0.00     0.020 C 
BRANCH  17  18
HETATM   18  C   UNL     1      41.862 -32.371   1.267  1.00  0.00     0.001 C 
BRANCH  18  19
HETATM   19  C   UNL     1      40.930 -31.289   1.817  1.00  0.00    -0.004 C 
HETATM   20  C   UNL     1      40.614 -31.514   3.286  1.00  0.00     0.005 C 
ENDBRANCH  18  19
ENDBRANCH  17  18
ENDBRANCH  16  17
ENDBRANCH   7  16
BRANCH  12  21
HETATM   21  O   UNL     1      48.367 -28.202  -0.398  1.00  0.00    -0.359 OA
HETATM   22  H   UNL     1      48.608 -28.535  -1.284  1.00  0.00     0.218 HD
ENDBRANCH  12  21
ENDBRANCH   1   5
BRANCH   2  23
HETATM   23  N   UNL     1      49.050 -30.024   3.875  1.00  0.00    -0.176 NA
HETATM   24  C   UNL     1      50.136 -30.726   3.748  1.00  0.00     0.069 C 
HETATM   25  C   UNL     1      51.083 -30.704   4.930  1.00  0.00     0.073 C 
BRANCH  24  26
HETATM   26  C   UNL     1      50.565 -31.535   2.566  1.00  0.00     0.092 A 
HETATM   27  C   UNL     1      50.722 -33.013   2.699  1.00  0.00     0.261 A 
HETATM   28  O   UNL     1      50.483 -33.596   3.751  1.00  0.00    -0.267 OA
HETATM   29  N   UNL     1      51.133 -33.704   1.593  1.00  0.00    -0.322 N 
HETATM   30  C   UNL     1      51.398 -33.105   0.359  1.00  0.00     0.048 A 
HETATM   31  H   UNL     1      51.224 -34.706   1.705  1.00  0.00     0.169 HD
HETATM   32  C   UNL     1      51.268 -31.716   0.226  1.00  0.00     0.025 A 
HETATM   33  C   UNL     1      51.775 -33.903  -0.722  1.00  0.00     0.030 A 
HETATM   34  C   UNL     1      51.518 -31.138  -1.025  1.00  0.00     0.016 A 
HETATM   35  C   UNL     1      50.863 -30.924   1.403  1.00  0.00     0.096 A 
HETATM   36  C   UNL     1      51.889 -31.932  -2.113  1.00  0.00     0.001 A 
HETATM   37  C   UNL     1      52.020 -33.312  -1.961  1.00  0.00     0.002 A 
BRANCH  35  38
HETATM   38  O   UNL     1      50.784 -29.559   1.192  1.00  0.00    -0.359 OA
HETATM   39  H   UNL     1      50.089 -29.354   0.532  1.00  0.00     0.218 HD
ENDBRANCH  35  38
ENDBRANCH  24  26
ENDBRANCH   2  23
TORSDOF 9
ENDMDL
MODEL 10
REMARK VINA RESULT:      -7.8      2.521      5.495
REMARK  9 active torsions:
REMARK  status: ('A' for Active; 'I' for Inactive)
REMARK    1  A    between atoms: C_2  and  C_3 
REMARK    2  A    between atoms: C_3  and  C_4 
REMARK    3  A    between atoms: C_4  and  C_5 
REMARK    4  A    between atoms: C_5  and  N_6 
REMARK    5  A    between atoms: C_9  and  C_10 
REMARK       I    between atoms: C_10  and  N_11 
REMARK    6  A    between atoms: N_11  and  N_12 
REMARK    7  A    between atoms: C_13  and  C_14 
REMARK    8  A    between atoms: C_24  and  O_25 
REMARK    9  A    between atoms: C_28  and  O_29 
ROOT
HETATM    1  C   UNL     1      39.922 -12.464   3.666  1.00  0.00     0.280 C 
HETATM    2  N   UNL     1      40.696 -11.344   3.391  1.00  0.00    -0.242 N 
HETATM    3  O   UNL     1      38.705 -12.492   3.794  1.00  0.00    -0.266 OA
HETATM    4  H   UNL     1      41.710 -11.419   3.402  1.00  0.00     0.192 HD
ENDROOT
BRANCH   1   5
HETATM    5  C   UNL     1      40.753 -13.669   3.883  1.00  0.00     0.135 A 
HETATM    6  C   UNL     1      40.873 -14.226   5.251  1.00  0.00     0.266 A 
HETATM    7  N   UNL     1      41.629 -15.388   5.417  1.00  0.00    -0.313 N 
HETATM    8  O   UNL     1      40.283 -13.677   6.181  1.00  0.00    -0.267 OA
HETATM    9  C   UNL     1      42.235 -16.056   4.304  1.00  0.00     0.050 A 
HETATM   10  C   UNL     1      42.111 -15.495   3.017  1.00  0.00     0.025 A 
HETATM   11  C   UNL     1      42.944 -17.262   4.442  1.00  0.00     0.031 A 
HETATM   12  C   UNL     1      41.358 -14.247   2.833  1.00  0.00     0.099 A 
HETATM   13  C   UNL     1      42.706 -16.139   1.916  1.00  0.00     0.016 A 
HETATM   14  C   UNL     1      43.412 -17.328   2.074  1.00  0.00     0.001 A 
HETATM   15  C   UNL     1      43.528 -17.890   3.337  1.00  0.00     0.002 A 
BRANCH   7  16
HETATM   16  C   UNL     1      41.780 -15.877   6.789  1.00  0.00     0.132 C 
BRANCH  16  17
HETATM   17  C   UNL     1      42.931 -15.227   7.569  1.00  0.00     0.020 C 
BRANCH  17  18
HETATM   18  C   UNL     1      43.916 -14.447   6.699  1.00  0.00     0.001 C 
BRANCH  18  19
HETATM   19  C   UNL     1      43.795 -12.943   6.958  1.00  0.00    -0.004 C 
HETATM   20  C   UNL     1      43.849 -12.145   5.667  1.00  0.00     0.005 C 
ENDBRANCH  18  19
ENDBRANCH  17  18
ENDBRANCH  16  17
ENDBRANCH   7  16
BRANCH  12  21
HETATM   21  O   UNL     1      41.308 -13.763   1.537  1.00  0.00    -0.359 OA
HETATM   22  H   UNL     1      40.832 -12.910   1.513  1.00  0.00     0.218 HD
ENDBRANCH  12  21
ENDBRANCH   1   5
BRANCH   2  23
HETATM   23  N   UNL     1      40.093 -10.153   3.117  1.00  0.00    -0.176 NA
HETATM   24  C   UNL     1      39.799  -9.835   1.892  1.00  0.00     0.069 C 
HETATM   25  C   UNL     1      39.166  -8.473   1.692  1.00  0.00     0.073 C 
BRANCH  24  26
HETATM   26  C   UNL     1      39.996 -10.664   0.663  1.00  0.00     0.092 A 
HETATM   27  C   UNL     1      41.235 -10.497  -0.151  1.00  0.00     0.261 A 
HETATM   28  O   UNL     1      42.120  -9.711   0.172  1.00  0.00    -0.267 OA
HETATM   29  N   UNL     1      41.359 -11.267  -1.274  1.00  0.00    -0.322 N 
HETATM   30  C   UNL     1      40.402 -12.197  -1.685  1.00  0.00     0.048 A 
HETATM   31  H   UNL     1      42.212 -11.142  -1.806  1.00  0.00     0.169 HD
HETATM   32  C   UNL     1      39.227 -12.353  -0.937  1.00  0.00     0.025 A 
HETATM   33  C   UNL     1      40.639 -12.964  -2.827  1.00  0.00     0.030 A 
HETATM   34  C   UNL     1      38.290 -13.306  -1.354  1.00  0.00     0.016 A 
HETATM   35  C   UNL     1      39.033 -11.517   0.262  1.00  0.00     0.096 A 
HETATM   36  C   UNL     1      38.525 -14.081  -2.493  1.00  0.00     0.001 A 
HETATM   37  C   UNL     1      39.696 -13.909  -3.229  1.00  0.00     0.002 A 
BRANCH  35  38
HETATM   38  O   UNL     1      37.836 -11.715   0.928  1.00  0.00    -0.359 OA
HETATM   39  H   UNL     1      37.271 -12.346   0.435  1.00  0.00     0.218 HD
ENDBRANCH  35  38
ENDBRANCH  24  26
ENDBRANCH   2  23
TORSDOF 9
ENDMDL
