MODEL 1
REMARK VINA RESULT:      -9.0      0.000      0.000
REMARK  5 active torsions:
REMARK  status: ('A' for Active; 'I' for Inactive)
REMARK    1  A    between atoms: C_7  and  C_8 
REMARK    2  A    between atoms: N_9  and  C_10 
REMARK    3  A    between atoms: C_10  and  C_11 
REMARK       I    between atoms: C_11  and  N_12 
REMARK    4  A    between atoms: N_12  and  C_13 
REMARK    5  A    between atoms: C_13  and  C_14 
ROOT
HETATM    1  C   UNL     1      42.402 -14.184   5.294  1.00  0.00     0.158 C 
HETATM    2  N   UNL     1      41.467 -15.106   5.926  1.00  0.00    -0.326 N 
HETATM    3  C   UNL     1      40.716 -15.760   4.948  1.00  0.00     0.255 C 
HETATM    4  O   UNL     1      40.003 -16.736   5.084  1.00  0.00    -0.267 OA
HETATM    5  C   UNL     1      40.963 -15.090   3.668  1.00  0.00     0.040 A 
HETATM    6  C   UNL     1      41.954 -14.132   3.867  1.00  0.00    -0.015 A 
HETATM    7  C   UNL     1      40.397 -15.338   2.432  1.00  0.00     0.017 A 
HETATM    8  C   UNL     1      40.852 -14.578   1.354  1.00  0.00     0.001 A 
HETATM    9  C   UNL     1      41.855 -13.608   1.536  1.00  0.00     0.001 A 
HETATM   10  C   UNL     1      42.417 -13.382   2.796  1.00  0.00     0.011 A 
ENDROOT
BRANCH   1  11
HETATM   11  C   UNL     1      42.326 -12.804   5.870  1.00  0.00     0.004 A 
HETATM   12  C   UNL     1      41.174 -12.021   5.946  1.00  0.00     0.017 A 
HETATM   13  C   UNL     1      39.780 -12.317   5.495  1.00  0.00     0.069 C 
HETATM   14  N   UNL     1      41.512 -10.821   6.536  1.00  0.00    -0.354 N 
HETATM   15  C   UNL     1      40.579  -9.738   6.776  1.00  0.00     0.156 C 
HETATM   16  C   UNL     1      42.852 -10.802   6.859  1.00  0.00     0.045 A 
HETATM   17  C   UNL     1      43.389 -12.028   6.455  1.00  0.00     0.001 A 
HETATM   18  C   UNL     1      43.642  -9.811   7.471  1.00  0.00     0.030 A 
HETATM   19  C   UNL     1      44.764 -12.263   6.683  1.00  0.00     0.014 A 
HETATM   20  C   UNL     1      45.555 -11.284   7.292  1.00  0.00     0.001 A 
HETATM   21  C   UNL     1      44.998 -10.073   7.679  1.00  0.00     0.002 A 
ENDBRANCH   1  11
BRANCH   2  22
HETATM   22  C   UNL     1      41.900 -15.853   7.099  1.00  0.00     0.229 C 
BRANCH  22  23
HETATM   23  C   UNL     1      43.052 -16.839   6.891  1.00  0.00     0.235 C 
HETATM   24  N   UNL     1      42.856 -17.791   5.914  1.00  0.00    -0.357 N 
HETATM   25  H   UNL     1      42.061 -17.679   5.296  1.00  0.00     0.162 HD
HETATM   26  O   UNL     1      44.017 -16.863   7.655  1.00  0.00    -0.272 OA
BRANCH  24  27
HETATM   27  C   UNL     1      43.908 -18.733   5.567  1.00  0.00     0.154 C 
BRANCH  27  28
HETATM   28  C   UNL     1      44.319 -18.659   4.086  1.00  0.00     0.139 C 
HETATM   29  O   UNL     1      43.977 -19.900   3.425  1.00  0.00    -0.384 OA
HETATM   30  C   UNL     1      43.370 -19.575   2.171  1.00  0.00     0.168 C 
HETATM   31  C   UNL     1      42.652 -18.270   2.407  1.00  0.00     0.029 C 
HETATM   32  C   UNL     1      43.607 -17.542   3.320  1.00  0.00     0.035 C 
ENDBRANCH  27  28
ENDBRANCH  24  27
ENDBRANCH  22  23
ENDBRANCH   2  22
TORSDOF 5
ENDMDL
MODEL 2
REMARK VINA RESULT:      -8.8      0.525      2.335
REMARK  5 active torsions:
REMARK  status: ('A' for Active; 'I' for Inactive)
REMARK    1  A    between atoms: C_7  and  C_8 
REMARK    2  A    between atoms: N_9  and  C_10 
REMARK    3  A    between atoms: C_10  and  C_11 
REMARK       I    between atoms: C_11  and  N_12 
REMARK    4  A    between atoms: N_12  and  C_13 
REMARK    5  A    between atoms: C_13  and  C_14 
ROOT
HETATM    1  C   UNL     1      42.351 -14.137   5.322  1.00  0.00     0.158 C 
HETATM    2  N   UNL     1      41.431 -15.064   5.966  1.00  0.00    -0.326 N 
HETATM    3  C   UNL     1      40.689 -15.742   4.997  1.00  0.00     0.255 C 
HETATM    4  O   UNL     1      39.990 -16.727   5.145  1.00  0.00    -0.267 OA
HETATM    5  C   UNL     1      40.925 -15.084   3.708  1.00  0.00     0.040 A 
HETATM    6  C   UNL     1      41.903 -14.109   3.895  1.00  0.00    -0.015 A 
HETATM    7  C   UNL     1      40.362 -15.356   2.476  1.00  0.00     0.017 A 
HETATM    8  C   UNL     1      40.806 -14.603   1.388  1.00  0.00     0.001 A 
HETATM    9  C   UNL     1      41.794 -13.616   1.557  1.00  0.00     0.001 A 
HETATM   10  C   UNL     1      42.354 -13.367   2.814  1.00  0.00     0.011 A 
ENDROOT
BRANCH   1  11
HETATM   11  C   UNL     1      42.256 -12.751   5.880  1.00  0.00     0.004 A 
HETATM   12  C   UNL     1      43.308 -12.034   6.451  1.00  0.00     0.017 A 
HETATM   13  C   UNL     1      44.735 -12.425   6.660  1.00  0.00     0.069 C 
HETATM   14  N   UNL     1      42.822 -10.805   6.845  1.00  0.00    -0.354 N 
HETATM   15  C   UNL     1      43.618  -9.782   7.493  1.00  0.00     0.156 C 
HETATM   16  C   UNL     1      41.483 -10.694   6.538  1.00  0.00     0.045 A 
HETATM   17  C   UNL     1      41.099 -11.895   5.934  1.00  0.00     0.001 A 
HETATM   18  C   UNL     1      40.572  -9.640   6.740  1.00  0.00     0.030 A 
HETATM   19  C   UNL     1      39.756 -12.032   5.513  1.00  0.00     0.014 A 
HETATM   20  C   UNL     1      38.846 -10.990   5.710  1.00  0.00     0.001 A 
HETATM   21  C   UNL     1      39.251  -9.809   6.317  1.00  0.00     0.002 A 
ENDBRANCH   1  11
BRANCH   2  22
HETATM   22  C   UNL     1      41.875 -15.791   7.148  1.00  0.00     0.229 C 
BRANCH  22  23
HETATM   23  C   UNL     1      43.027 -16.778   6.947  1.00  0.00     0.235 C 
HETATM   24  N   UNL     1      42.867 -17.684   5.922  1.00  0.00    -0.357 N 
HETATM   25  H   UNL     1      42.100 -17.538   5.276  1.00  0.00     0.162 HD
HETATM   26  O   UNL     1      43.958 -16.845   7.751  1.00  0.00    -0.272 OA
BRANCH  24  27
HETATM   27  C   UNL     1      43.925 -18.621   5.580  1.00  0.00     0.154 C 
BRANCH  27  28
HETATM   28  C   UNL     1      44.325 -18.563   4.095  1.00  0.00     0.139 C 
HETATM   29  O   UNL     1      43.986 -19.814   3.452  1.00  0.00    -0.384 OA
HETATM   30  C   UNL     1      43.368 -19.509   2.198  1.00  0.00     0.168 C 
HETATM   31  C   UNL     1      42.643 -18.205   2.424  1.00  0.00     0.029 C 
HETATM   32  C   UNL     1      43.600 -17.460   3.321  1.00  0.00     0.035 C 
ENDBRANCH  27  28
ENDBRANCH  24  27
ENDBRANCH  22  23
ENDBRANCH   2  22
TORSDOF 5
ENDMDL
MODEL 3
REMARK VINA RESULT:      -8.5      2.715      6.732
REMARK  5 active torsions:
REMARK  status: ('A' for Active; 'I' for Inactive)
REMARK    1  A    between atoms: C_7  and  C_8 
REMARK    2  A    between atoms: N_9  and  C_10 
REMARK    3  A    between atoms: C_10  and  C_11 
REMARK       I    between atoms: C_11  and  N_12 
REMARK    4  A    between atoms: N_12  and  C_13 
REMARK    5  A    between atoms: C_13  and  C_14 
ROOT
HETATM    1  C   UNL     1      41.317 -14.322   3.858  1.00  0.00     0.158 C 
HETATM    2  N   UNL     1      42.150 -13.158   3.583  1.00  0.00    -0.326 N 
HETATM    3  C   UNL     1      41.939 -12.726   2.273  1.00  0.00     0.255 C 
HETATM    4  O   UNL     1      42.290 -11.676   1.768  1.00  0.00    -0.267 OA
HETATM    5  C   UNL     1      41.156 -13.754   1.580  1.00  0.00     0.040 A 
HETATM    6  C   UNL     1      40.796 -14.723   2.514  1.00  0.00    -0.015 A 
HETATM    7  C   UNL     1      40.759 -13.801   0.258  1.00  0.00     0.017 A 
HETATM    8  C   UNL     1      39.967 -14.882  -0.135  1.00  0.00     0.001 A 
HETATM    9  C   UNL     1      39.592 -15.869   0.794  1.00  0.00     0.001 A 
HETATM   10  C   UNL     1      40.000 -15.792   2.130  1.00  0.00     0.011 A 
ENDROOT
BRANCH   1  11
HETATM   11  C   UNL     1      42.096 -15.464   4.430  1.00  0.00     0.004 A 
HETATM   12  C   UNL     1      42.310 -15.698   5.789  1.00  0.00     0.017 A 
HETATM   13  C   UNL     1      41.858 -14.919   6.980  1.00  0.00     0.069 C 
HETATM   14  N   UNL     1      43.071 -16.843   5.909  1.00  0.00    -0.354 N 
HETATM   15  C   UNL     1      43.511 -17.401   7.173  1.00  0.00     0.156 C 
HETATM   16  C   UNL     1      43.351 -17.370   4.667  1.00  0.00     0.045 A 
HETATM   17  C   UNL     1      42.755 -16.531   3.721  1.00  0.00     0.001 A 
HETATM   18  C   UNL     1      44.080 -18.513   4.290  1.00  0.00     0.030 A 
HETATM   19  C   UNL     1      42.892 -16.862   2.353  1.00  0.00     0.014 A 
HETATM   20  C   UNL     1      43.614 -17.997   1.972  1.00  0.00     0.001 A 
HETATM   21  C   UNL     1      44.200 -18.811   2.931  1.00  0.00     0.002 A 
ENDBRANCH   1  11
BRANCH   2  22
HETATM   22  C   UNL     1      42.340 -12.164   4.631  1.00  0.00     0.229 C 
BRANCH  22  23
HETATM   23  C   UNL     1      43.786 -11.777   4.948  1.00  0.00     0.235 C 
HETATM   24  N   UNL     1      44.146 -11.842   6.275  1.00  0.00    -0.357 N 
HETATM   25  H   UNL     1      43.505 -12.291   6.919  1.00  0.00     0.162 HD
HETATM   26  O   UNL     1      44.521 -11.295   4.085  1.00  0.00    -0.272 OA
BRANCH  24  27
HETATM   27  C   UNL     1      45.513 -11.575   6.693  1.00  0.00     0.154 C 
BRANCH  27  28
HETATM   28  C   UNL     1      45.599 -10.816   8.029  1.00  0.00     0.139 C 
HETATM   29  O   UNL     1      46.146  -9.496   7.803  1.00  0.00    -0.384 OA
HETATM   30  C   UNL     1      45.357  -8.562   8.544  1.00  0.00     0.168 C 
HETATM   31  C   UNL     1      43.965  -9.141   8.552  1.00  0.00     0.029 C 
HETATM   32  C   UNL     1      44.236 -10.619   8.695  1.00  0.00     0.035 C 
ENDBRANCH  27  28
ENDBRANCH  24  27
ENDBRANCH  22  23
ENDBRANCH   2  22
TORSDOF 5
ENDMDL
MODEL 4
REMARK VINA RESULT:      -8.4      2.989      5.184
REMARK  5 active torsions:
REMARK  status: ('A' for Active; 'I' for Inactive)
REMARK    1  A    between atoms: C_7  and  C_8 
REMARK    2  A    between atoms: N_9  and  C_10 
REMARK    3  A    between atoms: C_10  and  C_11 
REMARK       I    between atoms: C_11  and  N_12 
REMARK    4  A    between atoms: N_12  and  C_13 
REMARK    5  A    between atoms: C_13  and  C_14 
ROOT
HETATM    1  C   UNL     1      41.521 -13.290   4.470  1.00  0.00     0.158 C 
HETATM    2  N   UNL     1      42.335 -13.167   3.268  1.00  0.00    -0.326 N 
HETATM    3  C   UNL     1      43.013 -14.365   3.033  1.00  0.00     0.255 C 
HETATM    4  O   UNL     1      43.605 -14.703   2.025  1.00  0.00    -0.267 OA
HETATM    5  C   UNL     1      42.858 -15.210   4.221  1.00  0.00     0.040 A 
HETATM    6  C   UNL     1      41.984 -14.568   5.095  1.00  0.00    -0.015 A 
HETATM    7  C   UNL     1      43.402 -16.453   4.482  1.00  0.00     0.017 A 
HETATM    8  C   UNL     1      43.048 -17.068   5.684  1.00  0.00     0.001 A 
HETATM    9  C   UNL     1      42.165 -16.436   6.578  1.00  0.00     0.001 A 
HETATM   10  C   UNL     1      41.621 -15.181   6.285  1.00  0.00     0.011 A 
ENDROOT
BRANCH   1  11
HETATM   11  C   UNL     1      41.753 -12.172   5.437  1.00  0.00     0.004 A 
HETATM   12  C   UNL     1      40.775 -11.302   5.919  1.00  0.00     0.017 A 
HETATM   13  C   UNL     1      39.313 -11.239   5.617  1.00  0.00     0.069 C 
HETATM   14  N   UNL     1      41.381 -10.415   6.784  1.00  0.00    -0.354 N 
HETATM   15  C   UNL     1      40.688  -9.347   7.477  1.00  0.00     0.156 C 
HETATM   16  C   UNL     1      42.728 -10.688   6.891  1.00  0.00     0.045 A 
HETATM   17  C   UNL     1      42.992 -11.781   6.061  1.00  0.00     0.001 A 
HETATM   18  C   UNL     1      43.741 -10.067   7.645  1.00  0.00     0.030 A 
HETATM   19  C   UNL     1      44.318 -12.268   5.997  1.00  0.00     0.014 A 
HETATM   20  C   UNL     1      45.329 -11.657   6.745  1.00  0.00     0.001 A 
HETATM   21  C   UNL     1      45.041 -10.569   7.558  1.00  0.00     0.002 A 
ENDBRANCH   1  11
BRANCH   2  22
HETATM   22  C   UNL     1      41.807 -12.423   2.132  1.00  0.00     0.229 C 
BRANCH  22  23
HETATM   23  C   UNL     1      40.633 -13.061   1.387  1.00  0.00     0.235 C 
HETATM   24  N   UNL     1      40.965 -13.828   0.292  1.00  0.00    -0.357 N 
HETATM   25  H   UNL     1      41.942 -14.057   0.153  1.00  0.00     0.162 HD
HETATM   26  O   UNL     1      39.468 -12.774   1.666  1.00  0.00    -0.272 OA
BRANCH  24  27
HETATM   27  C   UNL     1      39.945 -14.552  -0.450  1.00  0.00     0.154 C 
BRANCH  27  28
HETATM   28  C   UNL     1      39.733 -14.005  -1.873  1.00  0.00     0.139 C 
HETATM   29  O   UNL     1      39.183 -15.044  -2.715  1.00  0.00    -0.384 OA
HETATM   30  C   UNL     1      38.122 -14.470  -3.484  1.00  0.00     0.168 C 
HETATM   31  C   UNL     1      37.529 -13.401  -2.599  1.00  0.00     0.029 C 
HETATM   32  C   UNL     1      38.753 -12.831  -1.925  1.00  0.00     0.035 C 
ENDBRANCH  27  28
ENDBRANCH  24  27
ENDBRANCH  22  23
ENDBRANCH   2  22
TORSDOF 5
ENDMDL
MODEL 5
REMARK VINA RESULT:      -8.3      2.737      6.844
REMARK  5 active torsions:
REMARK  status: ('A' for Active; 'I' for Inactive)
REMARK    1  A    between atoms: C_7  and  C_8 
REMARK    2  A    between atoms: N_9  and  C_10 
REMARK    3  A    between atoms: C_10  and  C_11 
REMARK       I    between atoms: C_11  and  N_12 
REMARK    4  A    between atoms: N_12  and  C_13 
REMARK    5  A    between atoms: C_13  and  C_14 
ROOT
HETATM    1  C   UNL     1      42.452 -13.500   5.301  1.00  0.00     0.158 C 
HETATM    2  N   UNL     1      43.583 -12.667   4.914  1.00  0.00    -0.326 N 
HETATM    3  C   UNL     1      43.186 -11.759   3.931  1.00  0.00     0.255 C 
HETATM    4  O   UNL     1      43.790 -10.783   3.528  1.00  0.00    -0.267 OA
HETATM    5  C   UNL     1      41.851 -12.152   3.468  1.00  0.00     0.040 A 
HETATM    6  C   UNL     1      41.411 -13.205   4.267  1.00  0.00    -0.015 A 
HETATM    7  C   UNL     1      41.079 -11.597   2.466  1.00  0.00     0.017 A 
HETATM    8  C   UNL     1      39.809 -12.137   2.262  1.00  0.00     0.001 A 
HETATM    9  C   UNL     1      39.346 -13.199   3.060  1.00  0.00     0.001 A 
HETATM   10  C   UNL     1      40.145 -13.737   4.075  1.00  0.00     0.011 A 
ENDROOT
BRANCH   1  11
HETATM   11  C   UNL     1      42.771 -14.961   5.255  1.00  0.00     0.004 A 
HETATM   12  C   UNL     1      42.900 -15.797   6.365  1.00  0.00     0.017 A 
HETATM   13  C   UNL     1      42.772 -15.487   7.821  1.00  0.00     0.069 C 
HETATM   14  N   UNL     1      43.197 -17.065   5.911  1.00  0.00    -0.354 N 
HETATM   15  C   UNL     1      43.419 -18.210   6.773  1.00  0.00     0.156 C 
HETATM   16  C   UNL     1      43.256 -17.084   4.534  1.00  0.00     0.045 A 
HETATM   17  C   UNL     1      42.994 -15.784   4.094  1.00  0.00     0.001 A 
HETATM   18  C   UNL     1      43.519 -18.134   3.634  1.00  0.00     0.030 A 
HETATM   19  C   UNL     1      42.988 -15.538   2.702  1.00  0.00     0.014 A 
HETATM   20  C   UNL     1      43.247 -16.576   1.802  1.00  0.00     0.001 A 
HETATM   21  C   UNL     1      43.510 -17.857   2.265  1.00  0.00     0.002 A 
ENDBRANCH   1  11
BRANCH   2  22
HETATM   22  C   UNL     1      44.519 -12.229   5.941  1.00  0.00     0.229 C 
BRANCH  22  23
HETATM   23  C   UNL     1      43.926 -11.442   7.112  1.00  0.00     0.235 C 
HETATM   24  N   UNL     1      43.193 -10.326   6.773  1.00  0.00    -0.357 N 
HETATM   25  H   UNL     1      42.955 -10.194   5.797  1.00  0.00     0.162 HD
HETATM   26  O   UNL     1      44.219 -11.713   8.277  1.00  0.00    -0.272 OA
BRANCH  24  27
HETATM   27  C   UNL     1      42.512  -9.542   7.790  1.00  0.00     0.154 C 
BRANCH  27  28
HETATM   28  C   UNL     1      40.979  -9.596   7.668  1.00  0.00     0.139 C 
HETATM   29  O   UNL     1      40.471  -8.279   7.350  1.00  0.00    -0.384 OA
HETATM   30  C   UNL     1      39.494  -8.424   6.316  1.00  0.00     0.168 C 
HETATM   31  C   UNL     1      39.959  -9.603   5.498  1.00  0.00     0.029 C 
HETATM   32  C   UNL     1      40.498 -10.532   6.558  1.00  0.00     0.035 C 
ENDBRANCH  27  28
ENDBRANCH  24  27
ENDBRANCH  22  23
ENDBRANCH   2  22
TORSDOF 5
ENDMDL
MODEL 6
REMARK VINA RESULT:      -8.1      3.025      6.423
REMARK  5 active torsions:
REMARK  status: ('A' for Active; 'I' for Inactive)
REMARK    1  A    between atoms: C_7  and  C_8 
REMARK    2  A    between atoms: N_9  and  C_10 
REMARK    3  A    between atoms: C_10  and  C_11 
REMARK       I    between atoms: C_11  and  N_12 
REMARK    4  A    between atoms: N_12  and  C_13 
REMARK    5  A    between atoms: C_13  and  C_14 
ROOT
HETATM    1  C   UNL     1      41.860 -13.275   3.931  1.00  0.00     0.158 C 
HETATM    2  N   UNL     1      40.462 -13.174   4.327  1.00  0.00    -0.326 N 
HETATM    3  C   UNL     1      40.307 -12.139   5.250  1.00  0.00     0.255 C 
HETATM    4  O   UNL     1      39.272 -11.628   5.633  1.00  0.00    -0.267 OA
HETATM    5  C   UNL     1      41.644 -11.709   5.673  1.00  0.00     0.040 A 
HETATM    6  C   UNL     1      42.581 -12.397   4.905  1.00  0.00    -0.015 A 
HETATM    7  C   UNL     1      41.996 -10.762   6.616  1.00  0.00     0.017 A 
HETATM    8  C   UNL     1      43.357 -10.507   6.790  1.00  0.00     0.001 A 
HETATM    9  C   UNL     1      44.317 -11.190   6.022  1.00  0.00     0.001 A 
HETATM   10  C   UNL     1      43.933 -12.138   5.067  1.00  0.00     0.011 A 
ENDROOT
BRANCH   1  11
HETATM   11  C   UNL     1      42.395 -14.668   4.057  1.00  0.00     0.004 A 
HETATM   12  C   UNL     1      42.725 -15.508   2.993  1.00  0.00     0.017 A 
HETATM   13  C   UNL     1      42.636 -15.272   1.520  1.00  0.00     0.069 C 
HETATM   14  N   UNL     1      43.179 -16.701   3.516  1.00  0.00    -0.354 N 
HETATM   15  C   UNL     1      43.605 -17.833   2.718  1.00  0.00     0.156 C 
HETATM   16  C   UNL     1      43.165 -16.660   4.894  1.00  0.00     0.045 A 
HETATM   17  C   UNL     1      42.680 -15.402   5.263  1.00  0.00     0.001 A 
HETATM   18  C   UNL     1      43.536 -17.623   5.851  1.00  0.00     0.030 A 
HETATM   19  C   UNL     1      42.574 -15.104   6.641  1.00  0.00     0.014 A 
HETATM   20  C   UNL     1      42.942 -16.055   7.597  1.00  0.00     0.001 A 
HETATM   21  C   UNL     1      43.416 -17.299   7.205  1.00  0.00     0.002 A 
ENDBRANCH   1  11
BRANCH   2  22
HETATM   22  C   UNL     1      39.428 -13.383   3.322  1.00  0.00     0.229 C 
BRANCH  22  23
HETATM   23  C   UNL     1      39.576 -12.593   2.020  1.00  0.00     0.235 C 
HETATM   24  N   UNL     1      39.478 -13.329   0.860  1.00  0.00    -0.357 N 
HETATM   25  H   UNL     1      39.154 -14.287   0.932  1.00  0.00     0.162 HD
HETATM   26  O   UNL     1      39.913 -11.409   2.026  1.00  0.00    -0.272 OA
BRANCH  24  27
HETATM   27  C   UNL     1      39.521 -12.682  -0.442  1.00  0.00     0.154 C 
BRANCH  27  28
HETATM   28  C   UNL     1      39.892 -13.647  -1.582  1.00  0.00     0.139 C 
HETATM   29  O   UNL     1      39.276 -14.935  -1.347  1.00  0.00    -0.384 OA
HETATM   30  C   UNL     1      38.712 -15.383  -2.582  1.00  0.00     0.168 C 
HETATM   31  C   UNL     1      38.291 -14.126  -3.302  1.00  0.00     0.029 C 
HETATM   32  C   UNL     1      39.406 -13.172  -2.953  1.00  0.00     0.035 C 
ENDBRANCH  27  28
ENDBRANCH  24  27
ENDBRANCH  22  23
ENDBRANCH   2  22
TORSDOF 5
ENDMDL
MODEL 7
REMARK VINA RESULT:      -8.1      2.905      6.640
REMARK  5 active torsions:
REMARK  status: ('A' for Active; 'I' for Inactive)
REMARK    1  A    between atoms: C_7  and  C_8 
REMARK    2  A    between atoms: N_9  and  C_10 
REMARK    3  A    between atoms: C_10  and  C_11 
REMARK       I    between atoms: C_11  and  N_12 
REMARK    4  A    between atoms: N_12  and  C_13 
REMARK    5  A    between atoms: C_13  and  C_14 
ROOT
HETATM    1  C   UNL     1      42.552 -12.997   4.723  1.00  0.00     0.158 C 
HETATM    2  N   UNL     1      41.209 -12.653   5.170  1.00  0.00    -0.326 N 
HETATM    3  C   UNL     1      41.270 -11.594   6.077  1.00  0.00     0.255 C 
HETATM    4  O   UNL     1      40.352 -10.910   6.488  1.00  0.00    -0.267 OA
HETATM    5  C   UNL     1      42.676 -11.393   6.440  1.00  0.00     0.040 A 
HETATM    6  C   UNL     1      43.450 -12.241   5.651  1.00  0.00    -0.015 A 
HETATM    7  C   UNL     1      43.222 -10.508   7.350  1.00  0.00     0.017 A 
HETATM    8  C   UNL     1      44.613 -10.487   7.468  1.00  0.00     0.001 A 
HETATM    9  C   UNL     1      45.411 -11.334   6.678  1.00  0.00     0.001 A 
HETATM   10  C   UNL     1      44.832 -12.215   5.757  1.00  0.00     0.011 A 
ENDROOT
BRANCH   1  11
HETATM   11  C   UNL     1      42.846 -14.458   4.857  1.00  0.00     0.004 A 
HETATM   12  C   UNL     1      42.987 -15.148   6.061  1.00  0.00     0.017 A 
HETATM   13  C   UNL     1      42.898 -14.653   7.468  1.00  0.00     0.069 C 
HETATM   14  N   UNL     1      43.253 -16.470   5.766  1.00  0.00    -0.354 N 
HETATM   15  C   UNL     1      43.476 -17.499   6.763  1.00  0.00     0.156 C 
HETATM   16  C   UNL     1      43.280 -16.665   4.402  1.00  0.00     0.045 A 
HETATM   17  C   UNL     1      43.029 -15.426   3.805  1.00  0.00     0.001 A 
HETATM   18  C   UNL     1      43.505 -17.825   3.638  1.00  0.00     0.030 A 
HETATM   19  C   UNL     1      42.995 -15.359   2.394  1.00  0.00     0.014 A 
HETATM   20  C   UNL     1      43.216 -16.508   1.628  1.00  0.00     0.001 A 
HETATM   21  C   UNL     1      43.469 -17.725   2.246  1.00  0.00     0.002 A 
ENDBRANCH   1  11
BRANCH   2  22
HETATM   22  C   UNL     1      40.115 -12.695   4.209  1.00  0.00     0.229 C 
BRANCH  22  23
HETATM   23  C   UNL     1      40.417 -12.156   2.809  1.00  0.00     0.235 C 
HETATM   24  N   UNL     1      40.530 -13.103   1.815  1.00  0.00    -0.357 N 
HETATM   25  H   UNL     1      40.246 -14.052   2.029  1.00  0.00     0.162 HD
HETATM   26  O   UNL     1      40.690 -10.969   2.627  1.00  0.00    -0.272 OA
BRANCH  24  27
HETATM   27  C   UNL     1      40.736 -12.712   0.429  1.00  0.00     0.154 C 
BRANCH  27  28
HETATM   28  C   UNL     1      39.520 -13.005  -0.467  1.00  0.00     0.139 C 
HETATM   29  O   UNL     1      39.474 -12.049  -1.552  1.00  0.00    -0.384 OA
HETATM   30  C   UNL     1      39.194 -12.766  -2.757  1.00  0.00     0.168 C 
HETATM   31  C   UNL     1      39.832 -14.119  -2.567  1.00  0.00     0.029 C 
HETATM   32  C   UNL     1      39.567 -14.394  -1.107  1.00  0.00     0.035 C 
ENDBRANCH  27  28
ENDBRANCH  24  27
ENDBRANCH  22  23
ENDBRANCH   2  22
TORSDOF 5
ENDMDL
MODEL 8
REMARK VINA RESULT:      -7.9     15.763     18.976
REMARK  5 active torsions:
REMARK  status: ('A' for Active; 'I' for Inactive)
REMARK    1  A    between atoms: C_7  and  C_8 
REMARK    2  A    between atoms: N_9  and  C_10 
REMARK    3  A    between atoms: C_10  and  C_11 
REMARK       I    between atoms: C_11  and  N_12 
REMARK    4  A    between atoms: N_12  and  C_13 
REMARK    5  A    between atoms: C_13  and  C_14 
ROOT
HETATM    1  C   UNL     1      49.154 -29.556  -0.166  1.00  0.00     0.158 C 
HETATM    2  N   UNL     1      47.878 -28.875   0.010  1.00  0.00    -0.326 N 
HETATM    3  C   UNL     1      47.627 -28.686   1.370  1.00  0.00     0.255 C 
HETATM    4  O   UNL     1      46.781 -27.977   1.881  1.00  0.00    -0.267 OA
HETATM    5  C   UNL     1      48.611 -29.470   2.122  1.00  0.00     0.040 A 
HETATM    6  C   UNL     1      49.517 -30.011   1.213  1.00  0.00    -0.015 A 
HETATM    7  C   UNL     1      48.722 -29.647   3.488  1.00  0.00     0.017 A 
HETATM    8  C   UNL     1      49.795 -30.411   3.950  1.00  0.00     0.001 A 
HETATM    9  C   UNL     1      50.721 -30.963   3.046  1.00  0.00     0.001 A 
HETATM   10  C   UNL     1      50.591 -30.761   1.668  1.00  0.00     0.011 A 
ENDROOT
BRANCH   1  11
HETATM   11  C   UNL     1      49.048 -30.756  -1.054  1.00  0.00     0.004 A 
HETATM   12  C   UNL     1      50.037 -31.205  -1.929  1.00  0.00     0.017 A 
HETATM   13  C   UNL     1      51.393 -30.645  -2.215  1.00  0.00     0.069 C 
HETATM   14  N   UNL     1      49.563 -32.333  -2.566  1.00  0.00    -0.354 N 
HETATM   15  C   UNL     1      50.304 -33.080  -3.563  1.00  0.00     0.156 C 
HETATM   16  C   UNL     1      48.294 -32.640  -2.124  1.00  0.00     0.045 A 
HETATM   17  C   UNL     1      47.944 -31.673  -1.177  1.00  0.00     0.001 A 
HETATM   18  C   UNL     1      47.420 -33.686  -2.475  1.00  0.00     0.030 A 
HETATM   19  C   UNL     1      46.676 -31.770  -0.560  1.00  0.00     0.014 A 
HETATM   20  C   UNL     1      45.803 -32.807  -0.903  1.00  0.00     0.001 A 
HETATM   21  C   UNL     1      46.173 -33.752  -1.849  1.00  0.00     0.002 A 
ENDBRANCH   1  11
BRANCH   2  22
HETATM   22  C   UNL     1      47.505 -27.825  -0.928  1.00  0.00     0.229 C 
BRANCH  22  23
HETATM   23  C   UNL     1      46.159 -27.992  -1.638  1.00  0.00     0.235 C 
HETATM   24  N   UNL     1      46.218 -28.127  -3.007  1.00  0.00    -0.357 N 
HETATM   25  H   UNL     1      47.126 -28.275  -3.431  1.00  0.00     0.162 HD
HETATM   26  O   UNL     1      45.096 -27.859  -1.030  1.00  0.00    -0.272 OA
BRANCH  24  27
HETATM   27  C   UNL     1      45.015 -28.373  -3.787  1.00  0.00     0.154 C 
BRANCH  27  28
HETATM   28  C   UNL     1      44.650 -29.865  -3.877  1.00  0.00     0.139 C 
HETATM   29  O   UNL     1      43.697 -30.067  -4.947  1.00  0.00    -0.384 OA
HETATM   30  C   UNL     1      44.111 -31.217  -5.690  1.00  0.00     0.168 C 
HETATM   31  C   UNL     1      45.616 -31.224  -5.600  1.00  0.00     0.029 C 
HETATM   32  C   UNL     1      45.852 -30.760  -4.183  1.00  0.00     0.035 C 
ENDBRANCH  27  28
ENDBRANCH  24  27
ENDBRANCH  22  23
ENDBRANCH   2  22
TORSDOF 5
ENDMDL
MODEL 9
REMARK VINA RESULT:      -7.8      3.091      6.795
REMARK  5 active torsions:
REMARK  status: ('A' for Active; 'I' for Inactive)
REMARK    1  A    between atoms: C_7  and  C_8 
REMARK    2  A    between atoms: N_9  and  C_10 
REMARK    3  A    between atoms: C_10  and  C_11 
REMARK       I    between atoms: C_11  and  N_12 
REMARK    4  A    between atoms: N_12  and  C_13 
REMARK    5  A    between atoms: C_13  and  C_14 
ROOT
HETATM    1  C   UNL     1      41.969 -13.950   3.303  1.00  0.00     0.158 C 
HETATM    2  N   UNL     1      40.519 -13.950   3.443  1.00  0.00    -0.326 N 
HETATM    3  C   UNL     1      40.110 -12.796   4.114  1.00  0.00     0.255 C 
HETATM    4  O   UNL     1      38.982 -12.355   4.221  1.00  0.00    -0.267 OA
HETATM    5  C   UNL     1      41.306 -12.143   4.656  1.00  0.00     0.040 A 
HETATM    6  C   UNL     1      42.423 -12.836   4.194  1.00  0.00    -0.015 A 
HETATM    7  C   UNL     1      41.399 -11.012   5.445  1.00  0.00     0.017 A 
HETATM    8  C   UNL     1      42.678 -10.570   5.783  1.00  0.00     0.001 A 
HETATM    9  C   UNL     1      43.817 -11.256   5.324  1.00  0.00     0.001 A 
HETATM   10  C   UNL     1      43.696 -12.394   4.519  1.00  0.00     0.011 A 
ENDROOT
BRANCH   1  11
HETATM   11  C   UNL     1      42.592 -15.226   3.777  1.00  0.00     0.004 A 
HETATM   12  C   UNL     1      43.140 -16.212   2.956  1.00  0.00     0.017 A 
HETATM   13  C   UNL     1      43.245 -16.274   1.467  1.00  0.00     0.069 C 
HETATM   14  N   UNL     1      43.610 -17.226   3.765  1.00  0.00    -0.354 N 
HETATM   15  C   UNL     1      44.239 -18.437   3.274  1.00  0.00     0.156 C 
HETATM   16  C   UNL     1      43.395 -16.925   5.092  1.00  0.00     0.045 A 
HETATM   17  C   UNL     1      42.760 -15.680   5.133  1.00  0.00     0.001 A 
HETATM   18  C   UNL     1      43.702 -17.640   6.265  1.00  0.00     0.030 A 
HETATM   19  C   UNL     1      42.434 -15.138   6.397  1.00  0.00     0.014 A 
HETATM   20  C   UNL     1      42.737 -15.842   7.566  1.00  0.00     0.001 A 
HETATM   21  C   UNL     1      43.363 -17.078   7.498  1.00  0.00     0.002 A 
ENDBRANCH   1  11
BRANCH   2  22
HETATM   22  C   UNL     1      39.705 -14.451   2.344  1.00  0.00     0.229 C 
BRANCH  22  23
HETATM   23  C   UNL     1      40.016 -13.887   0.955  1.00  0.00     0.235 C 
HETATM   24  N   UNL     1      39.674 -12.569   0.754  1.00  0.00    -0.357 N 
HETATM   25  H   UNL     1      39.405 -12.020   1.562  1.00  0.00     0.162 HD
HETATM   26  O   UNL     1      40.404 -14.618   0.043  1.00  0.00    -0.272 OA
BRANCH  24  27
HETATM   27  C   UNL     1      39.991 -11.896  -0.496  1.00  0.00     0.154 C 
BRANCH  27  28
HETATM   28  C   UNL     1      40.665 -10.528  -0.290  1.00  0.00     0.139 C 
HETATM   29  O   UNL     1      39.653  -9.520  -0.058  1.00  0.00    -0.384 OA
HETATM   30  C   UNL     1      40.089  -8.705   1.034  1.00  0.00     0.168 C 
HETATM   31  C   UNL     1      40.883  -9.630   1.922  1.00  0.00     0.029 C 
HETATM   32  C   UNL     1      41.603 -10.496   0.917  1.00  0.00     0.035 C 
ENDBRANCH  27  28
ENDBRANCH  24  27
ENDBRANCH  22  23
ENDBRANCH   2  22
TORSDOF 5
ENDMDL
MODEL 10
REMARK VINA RESULT:      -7.8     15.681     18.880
REMARK  5 active torsions:
REMARK  status: ('A' for Active; 'I' for Inactive)
REMARK    1  A    between atoms: C_7  and  C_8 
REMARK    2  A    between atoms: N_9  and  C_10 
REMARK    3  A    between atoms: C_10  and  C_11 
REMARK       I    between atoms: C_11  and  N_12 
REMARK    4  A    between atoms: N_12  and  C_13 
REMARK    5  A    between atoms: C_13  and  C_14 
ROOT
HETATM    1  C   UNL     1      49.133 -29.494  -0.011  1.00  0.00     0.158 C 
HETATM    2  N   UNL     1      47.848 -28.820   0.109  1.00  0.00    -0.326 N 
HETATM    3  C   UNL     1      47.548 -28.611   1.457  1.00  0.00     0.255 C 
HETATM    4  O   UNL     1      46.680 -27.901   1.928  1.00  0.00    -0.267 OA
HETATM    5  C   UNL     1      48.511 -29.377   2.255  1.00  0.00     0.040 A 
HETATM    6  C   UNL     1      49.451 -29.925   1.386  1.00  0.00    -0.015 A 
HETATM    7  C   UNL     1      48.575 -29.533   3.626  1.00  0.00     0.017 A 
HETATM    8  C   UNL     1      49.636 -30.282   4.137  1.00  0.00     0.001 A 
HETATM    9  C   UNL     1      50.597 -30.841   3.275  1.00  0.00     0.001 A 
HETATM   10  C   UNL     1      50.513 -30.661   1.891  1.00  0.00     0.011 A 
ENDROOT
BRANCH   1  11
HETATM   11  C   UNL     1      49.067 -30.708  -0.883  1.00  0.00     0.004 A 
HETATM   12  C   UNL     1      47.973 -31.568  -0.991  1.00  0.00     0.017 A 
HETATM   13  C   UNL     1      46.647 -31.526  -0.304  1.00  0.00     0.069 C 
HETATM   14  N   UNL     1      48.300 -32.562  -1.890  1.00  0.00    -0.354 N 
HETATM   15  C   UNL     1      47.418 -33.653  -2.255  1.00  0.00     0.156 C 
HETATM   16  C   UNL     1      49.573 -32.370  -2.381  1.00  0.00     0.045 A 
HETATM   17  C   UNL     1      50.079 -31.219  -1.771  1.00  0.00     0.001 A 
HETATM   18  C   UNL     1      50.328 -33.111  -3.310  1.00  0.00     0.030 A 
HETATM   19  C   UNL     1      51.384 -30.798  -2.116  1.00  0.00     0.014 A 
HETATM   20  C   UNL     1      52.139 -31.529  -3.039  1.00  0.00     0.001 A 
HETATM   21  C   UNL     1      51.615 -32.671  -3.627  1.00  0.00     0.002 A 
ENDBRANCH   1  11
BRANCH   2  22
HETATM   22  C   UNL     1      47.501 -27.786  -0.857  1.00  0.00     0.229 C 
BRANCH  22  23
HETATM   23  C   UNL     1      46.162 -27.951  -1.580  1.00  0.00     0.235 C 
HETATM   24  N   UNL     1      46.233 -28.088  -2.948  1.00  0.00    -0.357 N 
HETATM   25  H   UNL     1      47.146 -28.239  -3.362  1.00  0.00     0.162 HD
HETATM   26  O   UNL     1      45.094 -27.815  -0.982  1.00  0.00    -0.272 OA
BRANCH  24  27
HETATM   27  C   UNL     1      45.037 -28.333  -3.738  1.00  0.00     0.154 C 
BRANCH  27  28
HETATM   28  C   UNL     1      44.670 -29.824  -3.830  1.00  0.00     0.139 C 
HETATM   29  O   UNL     1      43.800 -30.040  -4.966  1.00  0.00    -0.384 OA
HETATM   30  C   UNL     1      44.261 -31.205  -5.656  1.00  0.00     0.168 C 
HETATM   31  C   UNL     1      45.755 -31.219  -5.451  1.00  0.00     0.029 C 
HETATM   32  C   UNL     1      45.885 -30.731  -4.029  1.00  0.00     0.035 C 
ENDBRANCH  27  28
ENDBRANCH  24  27
ENDBRANCH  22  23
ENDBRANCH   2  22
TORSDOF 5
ENDMDL
