MODEL 1
REMARK VINA RESULT:      -9.6      0.000      0.000
REMARK  4 active torsions:
REMARK  status: ('A' for Active; 'I' for Inactive)
REMARK    1  A    between atoms: N_7  and  C_8 
REMARK    2  A    between atoms: C_14  and  C_15 
REMARK    3  A    between atoms: C_15  and  N_16 
REMARK       I    between atoms: N_16  and  C_17 
REMARK       I    between atoms: C_17  and  N_18 
REMARK    4  A    between atoms: N_18  and  C_19 
ROOT
HETATM    1  C   UNL     1      40.270 -15.865   3.591  1.00  0.00     0.186 C 
ENDROOT
BRANCH   1   2
HETATM    2  C   UNL     1      41.624 -16.005   4.281  1.00  0.00     0.084 C 
HETATM    3  C   UNL     1      42.121 -14.859   5.072  1.00  0.00     0.008 A 
HETATM    4  C   UNL     1      41.445 -13.633   5.154  1.00  0.00     0.014 A 
HETATM    5  C   UNL     1      43.318 -15.031   5.756  1.00  0.00     0.046 A 
HETATM    6  C   UNL     1      41.967 -12.597   5.933  1.00  0.00     0.001 A 
HETATM    7  C   UNL     1      43.161 -12.777   6.628  1.00  0.00     0.001 A 
HETATM    8  C   UNL     1      43.839 -13.992   6.540  1.00  0.00     0.018 A 
HETATM    9  C   UNL     1      44.045 -16.306   5.638  1.00  0.00     0.275 C 
HETATM   10  O   UNL     1      45.069 -16.471   6.297  1.00  0.00    -0.266 OA
HETATM   11  N   UNL     1      43.518 -17.247   4.752  1.00  0.00    -0.229 N 
HETATM   12  N   UNL     1      42.295 -17.110   4.132  1.00  0.00    -0.171 NA
BRANCH  11  13
HETATM   13  C   UNL     1      44.186 -18.542   4.623  1.00  0.00     0.114 C 
HETATM   14  C   UNL     1      43.721 -19.550   5.676  1.00  0.00     0.027 C 
HETATM   15  C   UNL     1      44.141 -20.881   5.076  1.00  0.00     0.002 C 
HETATM   16  C   UNL     1      43.786 -20.734   3.604  1.00  0.00     0.002 C 
HETATM   17  C   UNL     1      43.990 -19.253   3.275  1.00  0.00     0.027 C 
ENDBRANCH  11  13
ENDBRANCH   1   2
BRANCH   1  18
HETATM   18  N   UNL     1      40.384 -15.729   2.156  1.00  0.00    -0.337 N 
HETATM   19  C   UNL     1      40.144 -14.506   1.588  1.00  0.00     0.317 C 
HETATM   20  N   UNL     1      40.385 -14.520   0.241  1.00  0.00    -0.334 N 
HETATM   21  O   UNL     1      39.751 -13.542   2.230  1.00  0.00    -0.247 OA
HETATM   22  H   UNL     1      40.283 -15.437  -0.169  1.00  0.00     0.165 HD
HETATM   23  H   UNL     1      41.052 -16.339   1.702  1.00  0.00     0.164 HD
BRANCH  20  24
HETATM   24  C   UNL     1      40.108 -13.380  -0.646  1.00  0.00     0.035 C 
HETATM   25  C   UNL     1      41.117 -12.220  -0.442  1.00  0.00     0.035 C 
HETATM   26  C   UNL     1      40.820 -11.064  -1.416  1.00  0.00    -0.012 C 
HETATM   27  C   UNL     1      39.388 -10.556  -1.174  1.00  0.00     0.009 C 
HETATM   28  C   UNL     1      40.942 -11.572  -2.859  1.00  0.00     0.009 C 
HETATM   29  C   UNL     1      38.376 -11.689  -1.414  1.00  0.00    -0.012 C 
HETATM   30  C   UNL     1      38.670 -12.844  -0.440  1.00  0.00     0.035 C 
HETATM   31  C   UNL     1      38.515 -12.197  -2.858  1.00  0.00     0.009 C 
HETATM   32  C   UNL     1      39.942 -12.714  -3.099  1.00  0.00    -0.012 C 
HETATM   33  C   UNL     1      40.238 -13.860  -2.117  1.00  0.00     0.035 C 
ENDBRANCH  20  24
ENDBRANCH   1  18
TORSDOF 4
ENDMDL
MODEL 2
REMARK VINA RESULT:      -9.4      3.508      8.807
REMARK  4 active torsions:
REMARK  status: ('A' for Active; 'I' for Inactive)
REMARK    1  A    between atoms: N_7  and  C_8 
REMARK    2  A    between atoms: C_14  and  C_15 
REMARK    3  A    between atoms: C_15  and  N_16 
REMARK       I    between atoms: N_16  and  C_17 
REMARK       I    between atoms: C_17  and  N_18 
REMARK    4  A    between atoms: N_18  and  C_19 
ROOT
HETATM    1  C   UNL     1      43.162 -14.518   5.880  1.00  0.00     0.186 C 
ENDROOT
BRANCH   1   2
HETATM    2  C   UNL     1      42.424 -14.923   4.608  1.00  0.00     0.084 C 
HETATM    3  C   UNL     1      42.780 -16.215   3.982  1.00  0.00     0.008 A 
HETATM    4  C   UNL     1      43.807 -17.042   4.460  1.00  0.00     0.014 A 
HETATM    5  C   UNL     1      42.045 -16.605   2.869  1.00  0.00     0.046 A 
HETATM    6  C   UNL     1      44.079 -18.258   3.827  1.00  0.00     0.001 A 
HETATM    7  C   UNL     1      43.332 -18.651   2.719  1.00  0.00     0.001 A 
HETATM    8  C   UNL     1      42.316 -17.827   2.237  1.00  0.00     0.018 A 
HETATM    9  C   UNL     1      40.992 -15.718   2.347  1.00  0.00     0.275 C 
HETATM   10  O   UNL     1      40.307 -16.101   1.401  1.00  0.00    -0.266 OA
HETATM   11  N   UNL     1      40.860 -14.473   2.964  1.00  0.00    -0.229 N 
HETATM   12  N   UNL     1      41.533 -14.115   4.112  1.00  0.00    -0.171 NA
BRANCH  11  13
HETATM   13  C   UNL     1      39.807 -13.569   2.502  1.00  0.00     0.114 C 
HETATM   14  C   UNL     1      39.430 -12.522   3.552  1.00  0.00     0.027 C 
HETATM   15  C   UNL     1      38.732 -11.455   2.728  1.00  0.00     0.002 C 
HETATM   16  C   UNL     1      39.592 -11.354   1.477  1.00  0.00     0.002 C 
HETATM   17  C   UNL     1      40.139 -12.763   1.236  1.00  0.00     0.027 C 
ENDBRANCH  11  13
ENDBRANCH   1   2
BRANCH   1  18
HETATM   18  N   UNL     1      42.626 -13.316   6.480  1.00  0.00    -0.337 N 
HETATM   19  C   UNL     1      43.481 -12.466   7.132  1.00  0.00     0.317 C 
HETATM   20  N   UNL     1      42.838 -11.335   7.558  1.00  0.00    -0.334 N 
HETATM   21  O   UNL     1      44.664 -12.720   7.306  1.00  0.00    -0.247 OA
HETATM   22  H   UNL     1      41.850 -11.476   7.711  1.00  0.00     0.165 HD
HETATM   23  H   UNL     1      41.813 -12.916   6.028  1.00  0.00     0.164 HD
BRANCH  20  24
HETATM   24  C   UNL     1      43.479 -10.298   8.380  1.00  0.00     0.035 C 
HETATM   25  C   UNL     1      44.731  -9.695   7.692  1.00  0.00     0.035 C 
HETATM   26  C   UNL     1      45.349  -8.586   8.565  1.00  0.00    -0.012 C 
HETATM   27  C   UNL     1      45.740  -9.176   9.930  1.00  0.00     0.009 C 
HETATM   28  C   UNL     1      44.316  -7.468   8.771  1.00  0.00     0.009 C 
HETATM   29  C   UNL     1      44.497  -9.741  10.639  1.00  0.00    -0.012 C 
HETATM   30  C   UNL     1      43.880 -10.851   9.770  1.00  0.00     0.035 C 
HETATM   31  C   UNL     1      43.467  -8.616  10.830  1.00  0.00     0.009 C 
HETATM   32  C   UNL     1      43.067  -8.031   9.466  1.00  0.00    -0.012 C 
HETATM   33  C   UNL     1      42.462  -9.145   8.596  1.00  0.00     0.035 C 
ENDBRANCH  20  24
ENDBRANCH   1  18
TORSDOF 4
ENDMDL
MODEL 3
REMARK VINA RESULT:      -9.2      1.562      4.288
REMARK  4 active torsions:
REMARK  status: ('A' for Active; 'I' for Inactive)
REMARK    1  A    between atoms: N_7  and  C_8 
REMARK    2  A    between atoms: C_14  and  C_15 
REMARK    3  A    between atoms: C_15  and  N_16 
REMARK       I    between atoms: N_16  and  C_17 
REMARK       I    between atoms: C_17  and  N_18 
REMARK    4  A    between atoms: N_18  and  C_19 
ROOT
HETATM    1  C   UNL     1      40.362 -15.955   1.823  1.00  0.00     0.186 C 
ENDROOT
BRANCH   1   2
HETATM    2  C   UNL     1      41.253 -15.842   3.056  1.00  0.00     0.084 C 
HETATM    3  C   UNL     1      42.311 -16.858   3.243  1.00  0.00     0.008 A 
HETATM    4  C   UNL     1      42.483 -17.953   2.384  1.00  0.00     0.014 A 
HETATM    5  C   UNL     1      43.162 -16.696   4.329  1.00  0.00     0.046 A 
HETATM    6  C   UNL     1      43.515 -18.867   2.612  1.00  0.00     0.001 A 
HETATM    7  C   UNL     1      44.374 -18.695   3.696  1.00  0.00     0.001 A 
HETATM    8  C   UNL     1      44.199 -17.611   4.555  1.00  0.00     0.018 A 
HETATM    9  C   UNL     1      42.957 -15.566   5.250  1.00  0.00     0.275 C 
HETATM   10  O   UNL     1      43.753 -15.396   6.171  1.00  0.00    -0.266 OA
HETATM   11  N   UNL     1      41.837 -14.765   5.019  1.00  0.00    -0.229 N 
HETATM   12  N   UNL     1      41.037 -14.877   3.902  1.00  0.00    -0.171 NA
BRANCH  11  13
HETATM   13  C   UNL     1      41.607 -13.611   5.887  1.00  0.00     0.114 C 
HETATM   14  C   UNL     1      42.291 -12.343   5.372  1.00  0.00     0.027 C 
HETATM   15  C   UNL     1      41.548 -11.239   6.104  1.00  0.00     0.002 C 
HETATM   16  C   UNL     1      40.096 -11.689   6.043  1.00  0.00     0.002 C 
HETATM   17  C   UNL     1      40.134 -13.219   6.085  1.00  0.00     0.027 C 
ENDBRANCH  11  13
ENDBRANCH   1   2
BRANCH   1  18
HETATM   18  N   UNL     1      40.859 -15.190   0.701  1.00  0.00    -0.337 N 
HETATM   19  C   UNL     1      40.357 -13.933   0.486  1.00  0.00     0.317 C 
HETATM   20  N   UNL     1      40.994 -13.307  -0.551  1.00  0.00    -0.334 N 
HETATM   21  O   UNL     1      39.444 -13.461   1.148  1.00  0.00    -0.247 OA
HETATM   22  H   UNL     1      41.387 -13.952  -1.221  1.00  0.00     0.165 HD
HETATM   23  H   UNL     1      41.816 -15.371   0.425  1.00  0.00     0.164 HD
BRANCH  20  24
HETATM   24  C   UNL     1      40.593 -11.994  -1.077  1.00  0.00     0.035 C 
HETATM   25  C   UNL     1      41.009 -10.833  -0.136  1.00  0.00     0.035 C 
HETATM   26  C   UNL     1      40.609  -9.474  -0.740  1.00  0.00    -0.012 C 
HETATM   27  C   UNL     1      39.086  -9.446  -0.957  1.00  0.00     0.009 C 
HETATM   28  C   UNL     1      41.318  -9.289  -2.089  1.00  0.00     0.009 C 
HETATM   29  C   UNL     1      38.668 -10.569  -1.921  1.00  0.00    -0.012 C 
HETATM   30  C   UNL     1      39.064 -11.928  -1.318  1.00  0.00     0.035 C 
HETATM   31  C   UNL     1      39.391 -10.380  -3.265  1.00  0.00     0.009 C 
HETATM   32  C   UNL     1      40.913 -10.416  -3.052  1.00  0.00    -0.012 C 
HETATM   33  C   UNL     1      41.305 -11.771  -2.438  1.00  0.00     0.035 C 
ENDBRANCH  20  24
ENDBRANCH   1  18
TORSDOF 4
ENDMDL
MODEL 4
REMARK VINA RESULT:      -9.2      1.594      4.502
REMARK  4 active torsions:
REMARK  status: ('A' for Active; 'I' for Inactive)
REMARK    1  A    between atoms: N_7  and  C_8 
REMARK    2  A    between atoms: C_14  and  C_15 
REMARK    3  A    between atoms: C_15  and  N_16 
REMARK       I    between atoms: N_16  and  C_17 
REMARK       I    between atoms: C_17  and  N_18 
REMARK    4  A    between atoms: N_18  and  C_19 
ROOT
HETATM    1  C   UNL     1      40.488 -16.012   1.807  1.00  0.00     0.186 C 
ENDROOT
BRANCH   1   2
HETATM    2  C   UNL     1      41.331 -15.904   3.075  1.00  0.00     0.084 C 
HETATM    3  C   UNL     1      42.375 -16.927   3.301  1.00  0.00     0.008 A 
HETATM    4  C   UNL     1      42.575 -18.022   2.449  1.00  0.00     0.014 A 
HETATM    5  C   UNL     1      43.184 -16.769   4.420  1.00  0.00     0.046 A 
HETATM    6  C   UNL     1      43.592 -18.942   2.717  1.00  0.00     0.001 A 
HETATM    7  C   UNL     1      44.409 -18.775   3.832  1.00  0.00     0.001 A 
HETATM    8  C   UNL     1      44.207 -17.691   4.686  1.00  0.00     0.018 A 
HETATM    9  C   UNL     1      42.949 -15.639   5.333  1.00  0.00     0.275 C 
HETATM   10  O   UNL     1      43.710 -15.474   6.285  1.00  0.00    -0.266 OA
HETATM   11  N   UNL     1      41.844 -14.833   5.060  1.00  0.00    -0.229 N 
HETATM   12  N   UNL     1      41.087 -14.939   3.913  1.00  0.00    -0.171 NA
BRANCH  11  13
HETATM   13  C   UNL     1      41.586 -13.678   5.919  1.00  0.00     0.114 C 
HETATM   14  C   UNL     1      42.189 -12.386   5.365  1.00  0.00     0.027 C 
HETATM   15  C   UNL     1      41.418 -11.308   6.106  1.00  0.00     0.002 C 
HETATM   16  C   UNL     1      39.988 -11.829   6.100  1.00  0.00     0.002 C 
HETATM   17  C   UNL     1      40.103 -13.354   6.161  1.00  0.00     0.027 C 
ENDBRANCH  11  13
ENDBRANCH   1   2
BRANCH   1  18
HETATM   18  N   UNL     1      39.630 -14.865   1.605  1.00  0.00    -0.337 N 
HETATM   19  C   UNL     1      39.853 -14.059   0.520  1.00  0.00     0.317 C 
HETATM   20  N   UNL     1      38.903 -13.079   0.418  1.00  0.00    -0.334 N 
HETATM   21  O   UNL     1      40.799 -14.213  -0.239  1.00  0.00    -0.247 OA
HETATM   22  H   UNL     1      38.483 -12.841   1.305  1.00  0.00     0.165 HD
HETATM   23  H   UNL     1      38.680 -14.953   1.943  1.00  0.00     0.164 HD
BRANCH  20  24
HETATM   24  C   UNL     1      38.949 -12.004  -0.584  1.00  0.00     0.035 C 
HETATM   25  C   UNL     1      38.922 -12.552  -2.035  1.00  0.00     0.035 C 
HETATM   26  C   UNL     1      38.930 -11.396  -3.052  1.00  0.00    -0.012 C 
HETATM   27  C   UNL     1      40.195 -10.546  -2.842  1.00  0.00     0.009 C 
HETATM   28  C   UNL     1      37.687 -10.521  -2.836  1.00  0.00     0.009 C 
HETATM   29  C   UNL     1      40.210  -9.964  -1.418  1.00  0.00    -0.012 C 
HETATM   30  C   UNL     1      40.205 -11.117  -0.399  1.00  0.00     0.035 C 
HETATM   31  C   UNL     1      38.957  -9.098  -1.210  1.00  0.00     0.009 C 
HETATM   32  C   UNL     1      37.692  -9.947  -1.411  1.00  0.00    -0.012 C 
HETATM   33  C   UNL     1      37.695 -11.107  -0.400  1.00  0.00     0.035 C 
ENDBRANCH  20  24
ENDBRANCH   1  18
TORSDOF 4
ENDMDL
MODEL 5
REMARK VINA RESULT:      -9.1      3.740      8.189
REMARK  4 active torsions:
REMARK  status: ('A' for Active; 'I' for Inactive)
REMARK    1  A    between atoms: N_7  and  C_8 
REMARK    2  A    between atoms: C_14  and  C_15 
REMARK    3  A    between atoms: C_15  and  N_16 
REMARK       I    between atoms: N_16  and  C_17 
REMARK       I    between atoms: C_17  and  N_18 
REMARK    4  A    between atoms: N_18  and  C_19 
ROOT
HETATM    1  C   UNL     1      40.732 -11.670   4.259  1.00  0.00     0.186 C 
ENDROOT
BRANCH   1   2
HETATM    2  C   UNL     1      40.926 -13.143   3.909  1.00  0.00     0.084 C 
HETATM    3  C   UNL     1      40.547 -13.588   2.551  1.00  0.00     0.008 A 
HETATM    4  C   UNL     1      39.953 -12.742   1.604  1.00  0.00     0.014 A 
HETATM    5  C   UNL     1      40.803 -14.914   2.224  1.00  0.00     0.046 A 
HETATM    6  C   UNL     1      39.634 -13.227   0.333  1.00  0.00     0.001 A 
HETATM    7  C   UNL     1      39.904 -14.554   0.004  1.00  0.00     0.001 A 
HETATM    8  C   UNL     1      40.486 -15.400   0.948  1.00  0.00     0.018 A 
HETATM    9  C   UNL     1      41.393 -15.810   3.232  1.00  0.00     0.275 C 
HETATM   10  O   UNL     1      41.673 -16.964   2.913  1.00  0.00    -0.266 OA
HETATM   11  N   UNL     1      41.575 -15.280   4.510  1.00  0.00    -0.229 N 
HETATM   12  N   UNL     1      41.394 -13.949   4.817  1.00  0.00    -0.171 NA
BRANCH  11  13
HETATM   13  C   UNL     1      42.187 -16.121   5.539  1.00  0.00     0.114 C 
HETATM   14  C   UNL     1      43.714 -16.020   5.549  1.00  0.00     0.027 C 
HETATM   15  C   UNL     1      44.077 -16.544   6.927  1.00  0.00     0.002 C 
HETATM   16  C   UNL     1      43.026 -15.919   7.832  1.00  0.00     0.002 C 
HETATM   17  C   UNL     1      41.757 -15.814   6.982  1.00  0.00     0.027 C 
ENDBRANCH  11  13
ENDBRANCH   1   2
BRANCH   1  18
HETATM   18  N   UNL     1      40.774 -11.422   5.683  1.00  0.00    -0.337 N 
HETATM   19  C   UNL     1      41.776 -10.634   6.186  1.00  0.00     0.317 C 
HETATM   20  N   UNL     1      41.622 -10.419   7.529  1.00  0.00    -0.334 N 
HETATM   21  O   UNL     1      42.689 -10.201   5.497  1.00  0.00    -0.247 OA
HETATM   22  H   UNL     1      41.106 -11.154   7.990  1.00  0.00     0.165 HD
HETATM   23  H   UNL     1      39.883 -11.417   6.163  1.00  0.00     0.164 HD
BRANCH  20  24
HETATM   24  C   UNL     1      42.604  -9.701   8.354  1.00  0.00     0.035 C 
HETATM   25  C   UNL     1      42.886  -8.272   7.822  1.00  0.00     0.035 C 
HETATM   26  C   UNL     1      43.887  -7.539   8.736  1.00  0.00    -0.012 C 
HETATM   27  C   UNL     1      45.199  -8.340   8.792  1.00  0.00     0.009 C 
HETATM   28  C   UNL     1      43.297  -7.429  10.149  1.00  0.00     0.009 C 
HETATM   29  C   UNL     1      44.937  -9.747   9.358  1.00  0.00    -0.012 C 
HETATM   30  C   UNL     1      43.939 -10.481   8.445  1.00  0.00     0.035 C 
HETATM   31  C   UNL     1      44.337  -9.623  10.768  1.00  0.00     0.009 C 
HETATM   32  C   UNL     1      43.021  -8.831  10.713  1.00  0.00    -0.012 C 
HETATM   33  C   UNL     1      42.030  -9.561   9.790  1.00  0.00     0.035 C 
ENDBRANCH  20  24
ENDBRANCH   1  18
TORSDOF 4
ENDMDL
MODEL 6
REMARK VINA RESULT:      -8.8      4.978      9.439
REMARK  4 active torsions:
REMARK  status: ('A' for Active; 'I' for Inactive)
REMARK    1  A    between atoms: N_7  and  C_8 
REMARK    2  A    between atoms: C_14  and  C_15 
REMARK    3  A    between atoms: C_15  and  N_16 
REMARK       I    between atoms: N_16  and  C_17 
REMARK       I    between atoms: C_17  and  N_18 
REMARK    4  A    between atoms: N_18  and  C_19 
ROOT
HETATM    1  C   UNL     1      44.159 -11.381   6.553  1.00  0.00     0.186 C 
ENDROOT
BRANCH   1   2
HETATM    2  C   UNL     1      43.130 -12.254   5.842  1.00  0.00     0.084 C 
HETATM    3  C   UNL     1      42.171 -11.592   4.931  1.00  0.00     0.008 A 
HETATM    4  C   UNL     1      42.118 -10.203   4.751  1.00  0.00     0.014 A 
HETATM    5  C   UNL     1      41.292 -12.411   4.233  1.00  0.00     0.046 A 
HETATM    6  C   UNL     1      41.194  -9.647   3.862  1.00  0.00     0.001 A 
HETATM    7  C   UNL     1      40.322 -10.471   3.153  1.00  0.00     0.001 A 
HETATM    8  C   UNL     1      40.368 -11.852   3.338  1.00  0.00     0.018 A 
HETATM    9  C   UNL     1      41.326 -13.866   4.450  1.00  0.00     0.275 C 
HETATM   10  O   UNL     1      40.587 -14.586   3.781  1.00  0.00    -0.266 OA
HETATM   11  N   UNL     1      42.196 -14.331   5.437  1.00  0.00    -0.229 N 
HETATM   12  N   UNL     1      43.120 -13.534   6.077  1.00  0.00    -0.171 NA
BRANCH  11  13
HETATM   13  C   UNL     1      42.289 -15.772   5.670  1.00  0.00     0.114 C 
HETATM   14  C   UNL     1      43.471 -16.410   4.938  1.00  0.00     0.027 C 
HETATM   15  C   UNL     1      43.658 -17.722   5.679  1.00  0.00     0.002 C 
HETATM   16  C   UNL     1      43.476 -17.333   7.138  1.00  0.00     0.002 C 
HETATM   17  C   UNL     1      42.455 -16.193   7.139  1.00  0.00     0.027 C 
ENDBRANCH  11  13
ENDBRANCH   1   2
BRANCH   1  18
HETATM   18  N   UNL     1      44.042 -11.437   7.994  1.00  0.00    -0.337 N 
HETATM   19  C   UNL     1      43.376 -10.430   8.641  1.00  0.00     0.317 C 
HETATM   20  N   UNL     1      43.270 -10.678   9.983  1.00  0.00    -0.334 N 
HETATM   21  O   UNL     1      42.952  -9.438   8.066  1.00  0.00    -0.247 OA
HETATM   22  H   UNL     1      44.004 -11.277  10.334  1.00  0.00     0.165 HD
HETATM   23  H   UNL     1      44.015 -12.362   8.403  1.00  0.00     0.164 HD
BRANCH  20  24
HETATM   24  C   UNL     1      42.702  -9.721  10.944  1.00  0.00     0.035 C 
HETATM   25  C   UNL     1      41.194  -9.460  10.691  1.00  0.00     0.035 C 
HETATM   26  C   UNL     1      40.628  -8.485  11.740  1.00  0.00    -0.012 C 
HETATM   27  C   UNL     1      41.403  -7.159  11.669  1.00  0.00     0.009 C 
HETATM   28  C   UNL     1      40.791  -9.096  13.140  1.00  0.00     0.009 C 
HETATM   29  C   UNL     1      42.894  -7.401  11.959  1.00  0.00    -0.012 C 
HETATM   30  C   UNL     1      43.463  -8.372  10.910  1.00  0.00     0.035 C 
HETATM   31  C   UNL     1      43.045  -8.021  13.358  1.00  0.00     0.009 C 
HETATM   32  C   UNL     1      42.278  -9.352  13.429  1.00  0.00    -0.012 C 
HETATM   33  C   UNL     1      42.841 -10.316  12.371  1.00  0.00     0.035 C 
ENDBRANCH  20  24
ENDBRANCH   1  18
TORSDOF 4
ENDMDL
MODEL 7
REMARK VINA RESULT:      -8.8      1.978      2.788
REMARK  4 active torsions:
REMARK  status: ('A' for Active; 'I' for Inactive)
REMARK    1  A    between atoms: N_7  and  C_8 
REMARK    2  A    between atoms: C_14  and  C_15 
REMARK    3  A    between atoms: C_15  and  N_16 
REMARK       I    between atoms: N_16  and  C_17 
REMARK       I    between atoms: C_17  and  N_18 
REMARK    4  A    between atoms: N_18  and  C_19 
ROOT
HETATM    1  C   UNL     1      39.449 -12.713   4.599  1.00  0.00     0.186 C 
ENDROOT
BRANCH   1   2
HETATM    2  C   UNL     1      40.834 -12.789   5.235  1.00  0.00     0.084 C 
HETATM    3  C   UNL     1      41.391 -11.557   5.832  1.00  0.00     0.008 A 
HETATM    4  C   UNL     1      40.741 -10.316   5.776  1.00  0.00     0.014 A 
HETATM    5  C   UNL     1      42.618 -11.662   6.475  1.00  0.00     0.046 A 
HETATM    6  C   UNL     1      41.319  -9.194   6.377  1.00  0.00     0.001 A 
HETATM    7  C   UNL     1      42.544  -9.305   7.031  1.00  0.00     0.001 A 
HETATM    8  C   UNL     1      43.196 -10.537   7.080  1.00  0.00     0.018 A 
HETATM    9  C   UNL     1      43.316 -12.958   6.502  1.00  0.00     0.275 C 
HETATM   10  O   UNL     1      44.370 -13.054   7.126  1.00  0.00    -0.266 OA
HETATM   11  N   UNL     1      42.728 -13.999   5.782  1.00  0.00    -0.229 N 
HETATM   12  N   UNL     1      41.477 -13.920   5.209  1.00  0.00    -0.171 NA
BRANCH  11  13
HETATM   13  C   UNL     1      43.366 -15.315   5.803  1.00  0.00     0.114 C 
HETATM   14  C   UNL     1      42.597 -16.327   6.655  1.00  0.00     0.027 C 
HETATM   15  C   UNL     1      43.127 -17.660   6.154  1.00  0.00     0.002 C 
HETATM   16  C   UNL     1      43.198 -17.468   4.646  1.00  0.00     0.002 C 
HETATM   17  C   UNL     1      43.530 -15.990   4.432  1.00  0.00     0.027 C 
ENDBRANCH  11  13
ENDBRANCH   1   2
BRANCH   1  18
HETATM   18  N   UNL     1      39.350 -13.483   3.379  1.00  0.00    -0.337 N 
HETATM   19  C   UNL     1      39.514 -12.841   2.179  1.00  0.00     0.317 C 
HETATM   20  N   UNL     1      39.486 -13.720   1.130  1.00  0.00    -0.334 N 
HETATM   21  O   UNL     1      39.653 -11.630   2.088  1.00  0.00    -0.247 OA
HETATM   22  H   UNL     1      38.960 -14.558   1.330  1.00  0.00     0.165 HD
HETATM   23  H   UNL     1      39.631 -14.453   3.439  1.00  0.00     0.164 HD
BRANCH  20  24
HETATM   24  C   UNL     1      39.528 -13.304  -0.279  1.00  0.00     0.035 C 
HETATM   25  C   UNL     1      40.844 -12.564  -0.634  1.00  0.00     0.035 C 
HETATM   26  C   UNL     1      40.867 -12.181  -2.126  1.00  0.00    -0.012 C 
HETATM   27  C   UNL     1      39.663 -11.275  -2.434  1.00  0.00     0.009 C 
HETATM   28  C   UNL     1      40.776 -13.455  -2.978  1.00  0.00     0.009 C 
HETATM   29  C   UNL     1      38.350 -12.015  -2.124  1.00  0.00    -0.012 C 
HETATM   30  C   UNL     1      38.324 -12.396  -0.633  1.00  0.00     0.035 C 
HETATM   31  C   UNL     1      38.275 -13.293  -2.975  1.00  0.00     0.009 C 
HETATM   32  C   UNL     1      39.472 -14.205  -2.662  1.00  0.00    -0.012 C 
HETATM   33  C   UNL     1      39.450 -14.574  -1.169  1.00  0.00     0.035 C 
ENDBRANCH  20  24
ENDBRANCH   1  18
TORSDOF 4
ENDMDL
MODEL 8
REMARK VINA RESULT:      -8.6      5.282      8.270
REMARK  4 active torsions:
REMARK  status: ('A' for Active; 'I' for Inactive)
REMARK    1  A    between atoms: N_7  and  C_8 
REMARK    2  A    between atoms: C_14  and  C_15 
REMARK    3  A    between atoms: C_15  and  N_16 
REMARK       I    between atoms: N_16  and  C_17 
REMARK       I    between atoms: C_17  and  N_18 
REMARK    4  A    between atoms: N_18  and  C_19 
ROOT
HETATM    1  C   UNL     1      39.823  -9.605   7.524  1.00  0.00     0.186 C 
ENDROOT
BRANCH   1   2
HETATM    2  C   UNL     1      40.802  -9.202   8.623  1.00  0.00     0.084 C 
HETATM    3  C   UNL     1      40.277  -8.431   9.770  1.00  0.00     0.008 A 
HETATM    4  C   UNL     1      38.947  -7.994   9.857  1.00  0.00     0.014 A 
HETATM    5  C   UNL     1      41.165  -8.140  10.798  1.00  0.00     0.046 A 
HETATM    6  C   UNL     1      38.516  -7.281  10.979  1.00  0.00     0.001 A 
HETATM    7  C   UNL     1      39.406  -7.002  12.014  1.00  0.00     0.001 A 
HETATM    8  C   UNL     1      40.730  -7.428  11.926  1.00  0.00     0.018 A 
HETATM    9  C   UNL     1      42.569  -8.569  10.689  1.00  0.00     0.275 C 
HETATM   10  O   UNL     1      43.330  -8.361  11.631  1.00  0.00    -0.266 OA
HETATM   11  N   UNL     1      42.947  -9.173   9.489  1.00  0.00    -0.229 N 
HETATM   12  N   UNL     1      42.055  -9.530   8.501  1.00  0.00    -0.171 NA
BRANCH  11  13
HETATM   13  C   UNL     1      44.323  -9.645   9.343  1.00  0.00     0.114 C 
HETATM   14  C   UNL     1      44.453 -10.768   8.311  1.00  0.00     0.027 C 
HETATM   15  C   UNL     1      45.935 -10.751   7.980  1.00  0.00     0.002 C 
HETATM   16  C   UNL     1      46.262  -9.268   7.892  1.00  0.00     0.002 C 
HETATM   17  C   UNL     1      45.342  -8.580   8.904  1.00  0.00     0.027 C 
ENDBRANCH  11  13
ENDBRANCH   1   2
BRANCH   1  18
HETATM   18  N   UNL     1      39.741 -11.038   7.344  1.00  0.00    -0.337 N 
HETATM   19  C   UNL     1      40.433 -11.613   6.311  1.00  0.00     0.317 C 
HETATM   20  N   UNL     1      40.330 -12.978   6.334  1.00  0.00    -0.334 N 
HETATM   21  O   UNL     1      41.048 -10.961   5.480  1.00  0.00    -0.247 OA
HETATM   22  H   UNL     1      39.489 -13.303   6.788  1.00  0.00     0.165 HD
HETATM   23  H   UNL     1      39.600 -11.586   8.183  1.00  0.00     0.164 HD
BRANCH  20  24
HETATM   24  C   UNL     1      40.879 -13.852   5.287  1.00  0.00     0.035 C 
HETATM   25  C   UNL     1      42.419 -13.718   5.158  1.00  0.00     0.035 C 
HETATM   26  C   UNL     1      42.960 -14.677   4.081  1.00  0.00    -0.012 C 
HETATM   27  C   UNL     1      42.296 -14.349   2.733  1.00  0.00     0.009 C 
HETATM   28  C   UNL     1      42.625 -16.123   4.475  1.00  0.00     0.009 C 
HETATM   29  C   UNL     1      40.771 -14.519   2.839  1.00  0.00    -0.012 C 
HETATM   30  C   UNL     1      40.228 -13.559   3.912  1.00  0.00     0.035 C 
HETATM   31  C   UNL     1      40.448 -15.967   3.244  1.00  0.00     0.009 C 
HETATM   32  C   UNL     1      41.103 -16.294   4.595  1.00  0.00    -0.012 C 
HETATM   33  C   UNL     1      40.567 -15.325   5.664  1.00  0.00     0.035 C 
ENDBRANCH  20  24
ENDBRANCH   1  18
TORSDOF 4
ENDMDL
MODEL 9
REMARK VINA RESULT:      -8.5      4.586      7.904
REMARK  4 active torsions:
REMARK  status: ('A' for Active; 'I' for Inactive)
REMARK    1  A    between atoms: N_7  and  C_8 
REMARK    2  A    between atoms: C_14  and  C_15 
REMARK    3  A    between atoms: C_15  and  N_16 
REMARK       I    between atoms: N_16  and  C_17 
REMARK       I    between atoms: C_17  and  N_18 
REMARK    4  A    between atoms: N_18  and  C_19 
ROOT
HETATM    1  C   UNL     1      43.994 -10.791   6.936  1.00  0.00     0.186 C 
ENDROOT
BRANCH   1   2
HETATM    2  C   UNL     1      42.884 -10.120   7.741  1.00  0.00     0.084 C 
HETATM    3  C   UNL     1      43.201  -9.665   9.111  1.00  0.00     0.008 A 
HETATM    4  C   UNL     1      44.442  -9.886   9.726  1.00  0.00     0.014 A 
HETATM    5  C   UNL     1      42.203  -8.987   9.801  1.00  0.00     0.046 A 
HETATM    6  C   UNL     1      44.676  -9.414  11.020  1.00  0.00     0.001 A 
HETATM    7  C   UNL     1      43.678  -8.724  11.704  1.00  0.00     0.001 A 
HETATM    8  C   UNL     1      42.440  -8.511  11.098  1.00  0.00     0.018 A 
HETATM    9  C   UNL     1      40.889  -8.788   9.167  1.00  0.00     0.275 C 
HETATM   10  O   UNL     1      40.035  -8.133   9.761  1.00  0.00    -0.266 OA
HETATM   11  N   UNL     1      40.697  -9.388   7.922  1.00  0.00    -0.229 N 
HETATM   12  N   UNL     1      41.706  -9.994   7.204  1.00  0.00    -0.171 NA
BRANCH  11  13
HETATM   13  C   UNL     1      39.420  -9.193   7.237  1.00  0.00     0.114 C 
HETATM   14  C   UNL     1      39.467  -8.050   6.221  1.00  0.00     0.027 C 
HETATM   15  C   UNL     1      38.271  -8.341   5.332  1.00  0.00     0.002 C 
HETATM   16  C   UNL     1      38.326  -9.850   5.146  1.00  0.00     0.002 C 
HETATM   17  C   UNL     1      38.903 -10.407   6.449  1.00  0.00     0.027 C 
ENDBRANCH  11  13
ENDBRANCH   1   2
BRANCH   1  18
HETATM   18  N   UNL     1      43.718 -12.182   6.654  1.00  0.00    -0.337 N 
HETATM   19  C   UNL     1      43.361 -12.538   5.380  1.00  0.00     0.317 C 
HETATM   20  N   UNL     1      43.228 -13.895   5.255  1.00  0.00    -0.334 N 
HETATM   21  O   UNL     1      43.177 -11.721   4.489  1.00  0.00    -0.247 OA
HETATM   22  H   UNL     1      42.999 -14.352   6.125  1.00  0.00     0.165 HD
HETATM   23  H   UNL     1      44.225 -12.859   7.210  1.00  0.00     0.164 HD
BRANCH  20  24
HETATM   24  C   UNL     1      42.748 -14.555   4.032  1.00  0.00     0.035 C 
HETATM   25  C   UNL     1      43.339 -13.915   2.748  1.00  0.00     0.035 C 
HETATM   26  C   UNL     1      42.845 -14.659   1.493  1.00  0.00    -0.012 C 
HETATM   27  C   UNL     1      41.309 -14.599   1.443  1.00  0.00     0.009 C 
HETATM   28  C   UNL     1      43.295 -16.125   1.562  1.00  0.00     0.009 C 
HETATM   29  C   UNL     1      40.711 -15.268   2.693  1.00  0.00    -0.012 C 
HETATM   30  C   UNL     1      41.201 -14.525   3.948  1.00  0.00     0.035 C 
HETATM   31  C   UNL     1      41.177 -16.732   2.756  1.00  0.00     0.009 C 
HETATM   32  C   UNL     1      42.711 -16.794   2.816  1.00  0.00    -0.012 C 
HETATM   33  C   UNL     1      43.199 -16.040   4.065  1.00  0.00     0.035 C 
ENDBRANCH  20  24
ENDBRANCH   1  18
TORSDOF 4
ENDMDL
MODEL 10
REMARK VINA RESULT:      -8.4      5.080      8.293
REMARK  4 active torsions:
REMARK  status: ('A' for Active; 'I' for Inactive)
REMARK    1  A    between atoms: N_7  and  C_8 
REMARK    2  A    between atoms: C_14  and  C_15 
REMARK    3  A    between atoms: C_15  and  N_16 
REMARK       I    between atoms: N_16  and  C_17 
REMARK       I    between atoms: C_17  and  N_18 
REMARK    4  A    between atoms: N_18  and  C_19 
ROOT
HETATM    1  C   UNL     1      41.243  -9.910   6.862  1.00  0.00     0.186 C 
ENDROOT
BRANCH   1   2
HETATM    2  C   UNL     1      41.993  -9.672   8.170  1.00  0.00     0.084 C 
HETATM    3  C   UNL     1      43.449  -9.924   8.189  1.00  0.00     0.008 A 
HETATM    4  C   UNL     1      44.154 -10.437   7.091  1.00  0.00     0.014 A 
HETATM    5  C   UNL     1      44.128  -9.628   9.364  1.00  0.00     0.046 A 
HETATM    6  C   UNL     1      45.535 -10.637   7.175  1.00  0.00     0.001 A 
HETATM    7  C   UNL     1      46.215 -10.327   8.351  1.00  0.00     0.001 A 
HETATM    8  C   UNL     1      45.515  -9.825   9.447  1.00  0.00     0.018 A 
HETATM    9  C   UNL     1      43.381  -9.123  10.528  1.00  0.00     0.275 C 
HETATM   10  O   UNL     1      44.000  -8.806  11.541  1.00  0.00    -0.266 OA
HETATM   11  N   UNL     1      41.993  -9.062  10.401  1.00  0.00    -0.229 N 
HETATM   12  N   UNL     1      41.325  -9.281   9.216  1.00  0.00    -0.171 NA
BRANCH  11  13
HETATM   13  C   UNL     1      41.208  -8.537  11.518  1.00  0.00     0.114 C 
HETATM   14  C   UNL     1      39.903  -7.880  11.062  1.00  0.00     0.027 C 
HETATM   15  C   UNL     1      39.072  -7.864  12.332  1.00  0.00     0.002 C 
HETATM   16  C   UNL     1      39.344  -9.228  12.951  1.00  0.00     0.002 C 
HETATM   17  C   UNL     1      40.785  -9.575  12.571  1.00  0.00     0.027 C 
ENDBRANCH  11  13
ENDBRANCH   1   2
BRANCH   1  18
HETATM   18  N   UNL     1      40.924 -11.304   6.645  1.00  0.00    -0.337 N 
HETATM   19  C   UNL     1      41.333 -11.901   5.481  1.00  0.00     0.317 C 
HETATM   20  N   UNL     1      41.038 -13.237   5.470  1.00  0.00    -0.334 N 
HETATM   21  O   UNL     1      41.879 -11.286   4.576  1.00  0.00    -0.247 OA
HETATM   22  H   UNL     1      40.252 -13.474   6.058  1.00  0.00     0.165 HD
HETATM   23  H   UNL     1      40.856 -11.881   7.474  1.00  0.00     0.164 HD
BRANCH  20  24
HETATM   24  C   UNL     1      41.261 -14.109   4.307  1.00  0.00     0.035 C 
HETATM   25  C   UNL     1      40.485 -13.626   3.054  1.00  0.00     0.035 C 
HETATM   26  C   UNL     1      40.776 -14.539   1.849  1.00  0.00    -0.012 C 
HETATM   27  C   UNL     1      40.361 -15.979   2.194  1.00  0.00     0.009 C 
HETATM   28  C   UNL     1      42.280 -14.505   1.537  1.00  0.00     0.009 C 
HETATM   29  C   UNL     1      41.155 -16.483   3.411  1.00  0.00    -0.012 C 
HETATM   30  C   UNL     1      40.863 -15.573   4.617  1.00  0.00     0.035 C 
HETATM   31  C   UNL     1      42.658 -16.434   3.092  1.00  0.00     0.009 C 
HETATM   32  C   UNL     1      43.078 -14.994   2.755  1.00  0.00    -0.012 C 
HETATM   33  C   UNL     1      42.774 -14.085   3.958  1.00  0.00     0.035 C 
ENDBRANCH  20  24
ENDBRANCH   1  18
TORSDOF 4
ENDMDL
