MODEL 1
REMARK VINA RESULT:      -9.5      0.000      0.000
REMARK  10 active torsions:
REMARK  status: ('A' for Active; 'I' for Inactive)
REMARK    1  A    between atoms: C_2  and  C_5 
REMARK    2  A    between atoms: C_5  and  C_6 
REMARK    3  A    between atoms: C_6  and  N_7 
REMARK    4  A    between atoms: N_7  and  C_10 
REMARK    5  A    between atoms: C_16  and  N_17 
REMARK       I    between atoms: N_17  and  C_18 
REMARK    6  A    between atoms: C_18  and  C_20 
REMARK    7  A    between atoms: C_24  and  C_25 
REMARK    8  A    between atoms: C_25  and  O_26 
REMARK    9  A    between atoms: O_26  and  C_27 
REMARK       I    between atoms: C_27  and  N_29 
REMARK   10  A    between atoms: N_29  and  C_30 
ROOT
HETATM    1  C   UNL     1      43.519 -16.247   4.835  1.00  0.00     0.036 A 
HETATM    2  C   UNL     1      42.804 -16.304   3.636  1.00  0.00     0.031 A 
HETATM    3  C   UNL     1      42.849 -17.454   2.839  1.00  0.00     0.025 A 
HETATM    4  C   UNL     1      43.604 -18.560   3.237  1.00  0.00     0.044 A 
HETATM    5  C   UNL     1      44.315 -18.511   4.437  1.00  0.00     0.025 A 
HETATM    6  C   UNL     1      44.274 -17.358   5.230  1.00  0.00     0.031 A 
HETATM    7  C   UNL     1      43.649 -19.732   2.413  1.00  0.00     0.099 C 
HETATM    8  N   UNL     1      43.684 -20.669   1.730  1.00  0.00    -0.191 NA
ENDROOT
BRANCH   1   9
HETATM    9  N   UNL     1      43.537 -15.123   5.678  1.00  0.00    -0.303 N 
HETATM   10  C   UNL     1      42.984 -14.983   6.918  1.00  0.00     0.365 C 
HETATM   11  O   UNL     1      42.381 -15.821   7.572  1.00  0.00    -0.238 OA
HETATM   12  H   UNL     1      44.043 -14.305   5.364  1.00  0.00     0.171 HD
BRANCH  10  13
HETATM   13  O   UNL     1      43.215 -13.710   7.339  1.00  0.00    -0.299 OA
BRANCH  13  14
HETATM   14  C   UNL     1      43.947 -12.878   6.430  1.00  0.00     0.219 C 
BRANCH  14  15
HETATM   15  C   UNL     1      44.571 -11.697   7.136  1.00  0.00    -0.033 A 
HETATM   16  C   UNL     1      45.894 -11.322   6.877  1.00  0.00     0.009 A 
HETATM   17  C   UNL     1      46.455 -10.213   7.514  1.00  0.00     0.002 A 
HETATM   18  C   UNL     1      45.697  -9.455   8.411  1.00  0.00     0.017 A 
HETATM   19  C   UNL     1      44.367  -9.813   8.665  1.00  0.00     0.033 A 
HETATM   20  C   UNL     1      43.816 -10.939   8.041  1.00  0.00     0.026 A 
BRANCH  19  21
HETATM   21  C   UNL     1      43.507  -9.056   9.604  1.00  0.00     0.257 C 
HETATM   22  N   UNL     1      43.622  -9.362  10.992  1.00  0.00    -0.303 N 
HETATM   23  H   UNL     1      44.257 -10.072  11.315  1.00  0.00     0.171 HD
HETATM   24  O   UNL     1      42.705  -8.225   9.223  1.00  0.00    -0.267 OA
BRANCH  22  25
HETATM   25  C   UNL     1      42.940  -8.724  11.937  1.00  0.00     0.152 A 
HETATM   26  N   UNL     1      42.919  -7.375  11.991  1.00  0.00    -0.339 N 
HETATM   27  C   UNL     1      42.207  -6.878  13.061  1.00  0.00     0.024 A 
HETATM   28  H   UNL     1      43.412  -6.818  11.297  1.00  0.00     0.168 HD
HETATM   29  C   UNL     1      42.161  -5.423  13.348  1.00  0.00     0.060 C 
HETATM   30  C   UNL     1      41.622  -7.844  13.834  1.00  0.00     0.011 A 
HETATM   31  C   UNL     1      41.113  -5.111  14.440  1.00  0.00     0.039 C 
HETATM   32  C   UNL     1      41.022  -6.152  15.586  1.00  0.00     0.191 C 
HETATM   33  C   UNL     1      40.759  -7.583  15.031  1.00  0.00     0.081 C 
HETATM   34  S   UNL     1      41.972  -9.395  13.231  1.00  0.00    -0.056 SA
BRANCH  32  35
HETATM   35  N   UNL     1      42.288  -6.180  16.432  1.00  0.00    -0.070 N 
HETATM   36  H   UNL     1      42.620  -5.230  16.649  1.00  0.00     0.277 HD
HETATM   37  H   UNL     1      43.033  -6.595  15.846  1.00  0.00     0.277 HD
BRANCH  35  38
HETATM   38  C   UNL     1      42.228  -7.000  17.703  1.00  0.00     0.241 C 
BRANCH  38  39
HETATM   39  C   UNL     1      41.186  -6.407  18.633  1.00  0.00     0.144 C 
BRANCH  39  40
HETATM   40  C   UNL     1      40.330  -7.525  19.180  1.00  0.00     0.389 C 
HETATM   41  F   UNL     1      41.055  -8.656  19.277  1.00  0.00    -0.171 F 
HETATM   42  F   UNL     1      39.300  -7.755  18.342  1.00  0.00    -0.171 F 
HETATM   43  F   UNL     1      39.843  -7.208  20.389  1.00  0.00    -0.171 F 
ENDBRANCH  39  40
ENDBRANCH  38  39
ENDBRANCH  35  38
ENDBRANCH  32  35
ENDBRANCH  22  25
ENDBRANCH  19  21
ENDBRANCH  14  15
ENDBRANCH  13  14
ENDBRANCH  10  13
ENDBRANCH   1   9
TORSDOF 10
ENDMDL
MODEL 2
REMARK VINA RESULT:      -9.2      4.743      7.554
REMARK  10 active torsions:
REMARK  status: ('A' for Active; 'I' for Inactive)
REMARK    1  A    between atoms: C_2  and  C_5 
REMARK    2  A    between atoms: C_5  and  C_6 
REMARK    3  A    between atoms: C_6  and  N_7 
REMARK    4  A    between atoms: N_7  and  C_10 
REMARK    5  A    between atoms: C_16  and  N_17 
REMARK       I    between atoms: N_17  and  C_18 
REMARK    6  A    between atoms: C_18  and  C_20 
REMARK    7  A    between atoms: C_24  and  C_25 
REMARK    8  A    between atoms: C_25  and  O_26 
REMARK    9  A    between atoms: O_26  and  C_27 
REMARK       I    between atoms: C_27  and  N_29 
REMARK   10  A    between atoms: N_29  and  C_30 
ROOT
HETATM    1  C   UNL     1      39.857 -13.864  -0.656  1.00  0.00     0.036 A 
HETATM    2  C   UNL     1      39.221 -14.399  -1.778  1.00  0.00     0.031 A 
HETATM    3  C   UNL     1      38.225 -13.672  -2.442  1.00  0.00     0.025 A 
HETATM    4  C   UNL     1      37.861 -12.400  -1.992  1.00  0.00     0.044 A 
HETATM    5  C   UNL     1      38.498 -11.859  -0.874  1.00  0.00     0.025 A 
HETATM    6  C   UNL     1      39.488 -12.589  -0.208  1.00  0.00     0.031 A 
HETATM    7  C   UNL     1      36.837 -11.664  -2.672  1.00  0.00     0.099 C 
HETATM    8  N   UNL     1      35.998 -11.086  -3.228  1.00  0.00    -0.191 NA
ENDROOT
BRANCH   1   9
HETATM    9  N   UNL     1      40.851 -14.539   0.071  1.00  0.00    -0.303 N 
HETATM   10  C   UNL     1      40.716 -15.283   1.207  1.00  0.00     0.365 C 
HETATM   11  O   UNL     1      39.689 -15.546   1.816  1.00  0.00    -0.238 OA
HETATM   12  H   UNL     1      41.797 -14.512  -0.286  1.00  0.00     0.171 HD
BRANCH  10  13
HETATM   13  O   UNL     1      41.953 -15.710   1.580  1.00  0.00    -0.299 OA
BRANCH  13  14
HETATM   14  C   UNL     1      42.018 -17.042   2.105  1.00  0.00     0.219 C 
BRANCH  14  15
HETATM   15  C   UNL     1      42.798 -17.093   3.398  1.00  0.00    -0.033 A 
HETATM   16  C   UNL     1      43.551 -18.223   3.739  1.00  0.00     0.009 A 
HETATM   17  C   UNL     1      44.290 -18.252   4.923  1.00  0.00     0.002 A 
HETATM   18  C   UNL     1      44.298 -17.146   5.778  1.00  0.00     0.017 A 
HETATM   19  C   UNL     1      43.562 -16.005   5.438  1.00  0.00     0.033 A 
HETATM   20  C   UNL     1      42.803 -15.989   4.261  1.00  0.00     0.026 A 
BRANCH  19  21
HETATM   21  C   UNL     1      43.524 -14.799   6.297  1.00  0.00     0.257 C 
HETATM   22  N   UNL     1      43.639 -13.531   5.655  1.00  0.00    -0.303 N 
HETATM   23  H   UNL     1      43.753 -13.463   4.658  1.00  0.00     0.171 HD
HETATM   24  O   UNL     1      43.429 -14.867   7.507  1.00  0.00    -0.267 OA
BRANCH  22  25
HETATM   25  C   UNL     1      43.574 -12.376   6.308  1.00  0.00     0.152 A 
HETATM   26  N   UNL     1      44.618 -11.929   7.039  1.00  0.00    -0.339 N 
HETATM   27  C   UNL     1      44.365 -10.742   7.692  1.00  0.00     0.024 A 
HETATM   28  H   UNL     1      45.485 -12.461   7.090  1.00  0.00     0.168 HD
HETATM   29  C   UNL     1      45.353 -10.151   8.628  1.00  0.00     0.060 C 
HETATM   30  C   UNL     1      43.124 -10.224   7.438  1.00  0.00     0.011 A 
HETATM   31  C   UNL     1      44.937  -8.719   9.034  1.00  0.00     0.039 C 
HETATM   32  C   UNL     1      43.415  -8.508   9.244  1.00  0.00     0.191 C 
HETATM   33  C   UNL     1      42.606  -8.927   7.981  1.00  0.00     0.081 C 
HETATM   34  S   UNL     1      42.252 -11.232   6.382  1.00  0.00    -0.056 SA
BRANCH  32  35
HETATM   35  N   UNL     1      42.891  -9.287  10.443  1.00  0.00    -0.070 N 
HETATM   36  H   UNL     1      42.918 -10.303  10.275  1.00  0.00     0.277 HD
HETATM   37  H   UNL     1      41.886  -9.059  10.534  1.00  0.00     0.277 HD
BRANCH  35  38
HETATM   38  C   UNL     1      43.531  -8.974  11.778  1.00  0.00     0.241 C 
BRANCH  38  39
HETATM   39  C   UNL     1      43.009  -7.642  12.285  1.00  0.00     0.144 C 
BRANCH  39  40
HETATM   40  C   UNL     1      42.656  -7.783  13.747  1.00  0.00     0.389 C 
HETATM   41  F   UNL     1      41.478  -7.181  13.997  1.00  0.00    -0.171 F 
HETATM   42  F   UNL     1      43.603  -7.186  14.498  1.00  0.00    -0.171 F 
HETATM   43  F   UNL     1      42.575  -9.075  14.097  1.00  0.00    -0.171 F 
ENDBRANCH  39  40
ENDBRANCH  38  39
ENDBRANCH  35  38
ENDBRANCH  32  35
ENDBRANCH  22  25
ENDBRANCH  19  21
ENDBRANCH  14  15
ENDBRANCH  13  14
ENDBRANCH  10  13
ENDBRANCH   1   9
TORSDOF 10
ENDMDL
MODEL 3
REMARK VINA RESULT:      -8.8      5.605     13.384
REMARK  10 active torsions:
REMARK  status: ('A' for Active; 'I' for Inactive)
REMARK    1  A    between atoms: C_2  and  C_5 
REMARK    2  A    between atoms: C_5  and  C_6 
REMARK    3  A    between atoms: C_6  and  N_7 
REMARK    4  A    between atoms: N_7  and  C_10 
REMARK    5  A    between atoms: C_16  and  N_17 
REMARK       I    between atoms: N_17  and  C_18 
REMARK    6  A    between atoms: C_18  and  C_20 
REMARK    7  A    between atoms: C_24  and  C_25 
REMARK    8  A    between atoms: C_25  and  O_26 
REMARK    9  A    between atoms: O_26  and  C_27 
REMARK       I    between atoms: C_27  and  N_29 
REMARK   10  A    between atoms: N_29  and  C_30 
ROOT
HETATM    1  C   UNL     1      41.394  -7.820  14.234  1.00  0.00     0.036 A 
HETATM    2  C   UNL     1      41.717  -8.140  15.555  1.00  0.00     0.031 A 
HETATM    3  C   UNL     1      41.294  -7.318  16.607  1.00  0.00     0.025 A 
HETATM    4  C   UNL     1      40.539  -6.172  16.347  1.00  0.00     0.044 A 
HETATM    5  C   UNL     1      40.208  -5.851  15.029  1.00  0.00     0.025 A 
HETATM    6  C   UNL     1      40.636  -6.670  13.979  1.00  0.00     0.031 A 
HETATM    7  C   UNL     1      40.115  -5.332  17.428  1.00  0.00     0.099 C 
HETATM    8  N   UNL     1      39.788  -4.657  18.314  1.00  0.00    -0.191 NA
ENDROOT
BRANCH   1   9
HETATM    9  N   UNL     1      41.795  -8.585  13.127  1.00  0.00    -0.303 N 
HETATM   10  C   UNL     1      41.143  -9.626  12.531  1.00  0.00     0.365 C 
HETATM   11  O   UNL     1      40.050 -10.092  12.820  1.00  0.00    -0.238 OA
HETATM   12  H   UNL     1      42.664  -8.338  12.672  1.00  0.00     0.171 HD
BRANCH  10  13
HETATM   13  O   UNL     1      41.926 -10.090  11.521  1.00  0.00    -0.299 OA
BRANCH  13  14
HETATM   14  C   UNL     1      43.339  -9.926  11.704  1.00  0.00     0.219 C 
BRANCH  14  15
HETATM   15  C   UNL     1      44.080  -9.980  10.389  1.00  0.00    -0.033 A 
HETATM   16  C   UNL     1      45.176  -9.143  10.147  1.00  0.00     0.009 A 
HETATM   17  C   UNL     1      45.873  -9.218   8.939  1.00  0.00     0.002 A 
HETATM   18  C   UNL     1      45.492 -10.139   7.960  1.00  0.00     0.017 A 
HETATM   19  C   UNL     1      44.407 -10.992   8.198  1.00  0.00     0.033 A 
HETATM   20  C   UNL     1      43.697 -10.898   9.402  1.00  0.00     0.026 A 
BRANCH  19  21
HETATM   21  C   UNL     1      43.948 -11.990   7.205  1.00  0.00     0.257 C 
HETATM   22  N   UNL     1      43.400 -11.498   5.984  1.00  0.00    -0.303 N 
HETATM   23  H   UNL     1      43.320 -10.510   5.813  1.00  0.00     0.171 HD
HETATM   24  O   UNL     1      44.000 -13.186   7.416  1.00  0.00    -0.267 OA
BRANCH  22  25
HETATM   25  C   UNL     1      42.995 -12.289   4.996  1.00  0.00     0.152 A 
HETATM   26  N   UNL     1      42.172 -13.333   5.234  1.00  0.00    -0.339 N 
HETATM   27  C   UNL     1      41.892 -14.079   4.109  1.00  0.00     0.024 A 
HETATM   28  H   UNL     1      41.830 -13.525   6.173  1.00  0.00     0.168 HD
HETATM   29  C   UNL     1      41.093 -15.327   4.191  1.00  0.00     0.060 C 
HETATM   30  C   UNL     1      42.464 -13.593   2.965  1.00  0.00     0.011 A 
HETATM   31  C   UNL     1      40.722 -15.836   2.780  1.00  0.00     0.039 C 
HETATM   32  C   UNL     1      41.826 -15.665   1.704  1.00  0.00     0.191 C 
HETATM   33  C   UNL     1      42.290 -14.183   1.598  1.00  0.00     0.081 C 
HETATM   34  S   UNL     1      43.374 -12.195   3.291  1.00  0.00    -0.056 SA
BRANCH  32  35
HETATM   35  N   UNL     1      43.039 -16.540   1.991  1.00  0.00    -0.070 N 
HETATM   36  H   UNL     1      43.700 -16.073   2.628  1.00  0.00     0.277 HD
HETATM   37  H   UNL     1      43.556 -16.640   1.100  1.00  0.00     0.277 HD
BRANCH  35  38
HETATM   38  C   UNL     1      42.755 -17.941   2.488  1.00  0.00     0.241 C 
BRANCH  38  39
HETATM   39  C   UNL     1      44.042 -18.562   3.000  1.00  0.00     0.144 C 
BRANCH  39  40
HETATM   40  C   UNL     1      44.066 -18.458   4.507  1.00  0.00     0.389 C 
HETATM   41  F   UNL     1      45.067 -17.647   4.897  1.00  0.00    -0.171 F 
HETATM   42  F   UNL     1      44.277 -19.678   5.039  1.00  0.00    -0.171 F 
HETATM   43  F   UNL     1      42.903 -17.977   4.972  1.00  0.00    -0.171 F 
ENDBRANCH  39  40
ENDBRANCH  38  39
ENDBRANCH  35  38
ENDBRANCH  32  35
ENDBRANCH  22  25
ENDBRANCH  19  21
ENDBRANCH  14  15
ENDBRANCH  13  14
ENDBRANCH  10  13
ENDBRANCH   1   9
TORSDOF 10
ENDMDL
MODEL 4
REMARK VINA RESULT:      -8.7      6.765     14.078
REMARK  10 active torsions:
REMARK  status: ('A' for Active; 'I' for Inactive)
REMARK    1  A    between atoms: C_2  and  C_5 
REMARK    2  A    between atoms: C_5  and  C_6 
REMARK    3  A    between atoms: C_6  and  N_7 
REMARK    4  A    between atoms: N_7  and  C_10 
REMARK    5  A    between atoms: C_16  and  N_17 
REMARK       I    between atoms: N_17  and  C_18 
REMARK    6  A    between atoms: C_18  and  C_20 
REMARK    7  A    between atoms: C_24  and  C_25 
REMARK    8  A    between atoms: C_25  and  O_26 
REMARK    9  A    between atoms: O_26  and  C_27 
REMARK       I    between atoms: C_27  and  N_29 
REMARK   10  A    between atoms: N_29  and  C_30 
ROOT
HETATM    1  C   UNL     1      41.060  -7.931  13.995  1.00  0.00     0.036 A 
HETATM    2  C   UNL     1      39.902  -7.152  13.933  1.00  0.00     0.031 A 
HETATM    3  C   UNL     1      39.595  -6.255  14.963  1.00  0.00     0.025 A 
HETATM    4  C   UNL     1      40.447  -6.125  16.063  1.00  0.00     0.044 A 
HETATM    5  C   UNL     1      41.609  -6.897  16.127  1.00  0.00     0.025 A 
HETATM    6  C   UNL     1      41.910  -7.797  15.100  1.00  0.00     0.031 A 
HETATM    7  C   UNL     1      40.124  -5.210  17.117  1.00  0.00     0.099 C 
HETATM    8  N   UNL     1      39.842  -4.472  17.967  1.00  0.00    -0.191 NA
ENDROOT
BRANCH   1   9
HETATM    9  N   UNL     1      41.425  -8.863  13.010  1.00  0.00    -0.303 N 
HETATM   10  C   UNL     1      42.221  -8.676  11.917  1.00  0.00     0.365 C 
HETATM   11  O   UNL     1      42.813  -7.659  11.583  1.00  0.00    -0.238 OA
HETATM   12  H   UNL     1      41.093  -9.813  13.112  1.00  0.00     0.171 HD
BRANCH  10  13
HETATM   13  O   UNL     1      42.262  -9.844  11.222  1.00  0.00    -0.299 OA
BRANCH  13  14
HETATM   14  C   UNL     1      43.519 -10.533  11.236  1.00  0.00     0.219 C 
BRANCH  14  15
HETATM   15  C   UNL     1      44.263 -10.360   9.932  1.00  0.00    -0.033 A 
HETATM   16  C   UNL     1      45.379  -9.519   9.848  1.00  0.00     0.009 A 
HETATM   17  C   UNL     1      46.076  -9.386   8.645  1.00  0.00     0.002 A 
HETATM   18  C   UNL     1      45.676 -10.102   7.514  1.00  0.00     0.017 A 
HETATM   19  C   UNL     1      44.572 -10.957   7.592  1.00  0.00     0.033 A 
HETATM   20  C   UNL     1      43.861 -11.071   8.793  1.00  0.00     0.026 A 
BRANCH  19  21
HETATM   21  C   UNL     1      44.092 -11.744   6.432  1.00  0.00     0.257 C 
HETATM   22  N   UNL     1      43.024 -12.663   6.657  1.00  0.00    -0.303 N 
HETATM   23  H   UNL     1      42.623 -12.777   7.572  1.00  0.00     0.171 HD
HETATM   24  O   UNL     1      44.595 -11.647   5.330  1.00  0.00    -0.267 OA
BRANCH  22  25
HETATM   25  C   UNL     1      42.476 -13.392   5.691  1.00  0.00     0.152 A 
HETATM   26  N   UNL     1      43.171 -14.375   5.081  1.00  0.00    -0.339 N 
HETATM   27  C   UNL     1      42.472 -14.997   4.069  1.00  0.00     0.024 A 
HETATM   28  H   UNL     1      44.126 -14.590   5.361  1.00  0.00     0.168 HD
HETATM   29  C   UNL     1      43.108 -16.029   3.213  1.00  0.00     0.060 C 
HETATM   30  C   UNL     1      41.196 -14.529   3.910  1.00  0.00     0.011 A 
HETATM   31  C   UNL     1      42.055 -16.733   2.327  1.00  0.00     0.039 C 
HETATM   32  C   UNL     1      40.938 -15.813   1.770  1.00  0.00     0.191 C 
HETATM   33  C   UNL     1      40.205 -15.055   2.916  1.00  0.00     0.081 C 
HETATM   34  S   UNL     1      40.862 -13.290   5.024  1.00  0.00    -0.056 SA
BRANCH  32  35
HETATM   35  N   UNL     1      41.482 -14.794   0.778  1.00  0.00    -0.070 N 
HETATM   36  H   UNL     1      42.050 -15.244   0.046  1.00  0.00     0.277 HD
HETATM   37  H   UNL     1      42.145 -14.192   1.296  1.00  0.00     0.277 HD
BRANCH  35  38
HETATM   38  C   UNL     1      40.466 -13.872   0.139  1.00  0.00     0.241 C 
BRANCH  38  39
HETATM   39  C   UNL     1      39.661 -14.646  -0.889  1.00  0.00     0.144 C 
BRANCH  39  40
HETATM   40  C   UNL     1      39.646 -13.866  -2.182  1.00  0.00     0.389 C 
HETATM   41  F   UNL     1      38.491 -14.085  -2.839  1.00  0.00    -0.171 F 
HETATM   42  F   UNL     1      40.663 -14.275  -2.967  1.00  0.00    -0.171 F 
HETATM   43  F   UNL     1      39.778 -12.552  -1.951  1.00  0.00    -0.171 F 
ENDBRANCH  39  40
ENDBRANCH  38  39
ENDBRANCH  35  38
ENDBRANCH  32  35
ENDBRANCH  22  25
ENDBRANCH  19  21
ENDBRANCH  14  15
ENDBRANCH  13  14
ENDBRANCH  10  13
ENDBRANCH   1   9
TORSDOF 10
ENDMDL
MODEL 5
REMARK VINA RESULT:      -8.7      5.386      8.176
REMARK  10 active torsions:
REMARK  status: ('A' for Active; 'I' for Inactive)
REMARK    1  A    between atoms: C_2  and  C_5 
REMARK    2  A    between atoms: C_5  and  C_6 
REMARK    3  A    between atoms: C_6  and  N_7 
REMARK    4  A    between atoms: N_7  and  C_10 
REMARK    5  A    between atoms: C_16  and  N_17 
REMARK       I    between atoms: N_17  and  C_18 
REMARK    6  A    between atoms: C_18  and  C_20 
REMARK    7  A    between atoms: C_24  and  C_25 
REMARK    8  A    between atoms: C_25  and  O_26 
REMARK    9  A    between atoms: O_26  and  C_27 
REMARK       I    between atoms: C_27  and  N_29 
REMARK   10  A    between atoms: N_29  and  C_30 
ROOT
HETATM    1  C   UNL     1      40.948 -11.824  -1.487  1.00  0.00     0.036 A 
HETATM    2  C   UNL     1      41.398 -10.710  -0.774  1.00  0.00     0.031 A 
HETATM    3  C   UNL     1      41.372  -9.438  -1.358  1.00  0.00     0.025 A 
HETATM    4  C   UNL     1      40.889  -9.267  -2.658  1.00  0.00     0.044 A 
HETATM    5  C   UNL     1      40.432 -10.376  -3.372  1.00  0.00     0.025 A 
HETATM    6  C   UNL     1      40.465 -11.648  -2.790  1.00  0.00     0.031 A 
HETATM    7  C   UNL     1      40.871  -7.962  -3.251  1.00  0.00     0.099 C 
HETATM    8  N   UNL     1      40.874  -6.901  -3.721  1.00  0.00    -0.191 NA
ENDROOT
BRANCH   1   9
HETATM    9  N   UNL     1      40.958 -13.132  -0.976  1.00  0.00    -0.303 N 
HETATM   10  C   UNL     1      40.288 -13.627   0.105  1.00  0.00     0.365 C 
HETATM   11  O   UNL     1      39.508 -13.039   0.841  1.00  0.00    -0.238 OA
HETATM   12  H   UNL     1      41.503 -13.827  -1.469  1.00  0.00     0.171 HD
BRANCH  10  13
HETATM   13  O   UNL     1      40.633 -14.935   0.251  1.00  0.00    -0.299 OA
BRANCH  13  14
HETATM   14  C   UNL     1      40.171 -15.570   1.450  1.00  0.00     0.219 C 
BRANCH  14  15
HETATM   15  C   UNL     1      41.316 -15.927   2.368  1.00  0.00    -0.033 A 
HETATM   16  C   UNL     1      42.079 -17.080   2.150  1.00  0.00     0.009 A 
HETATM   17  C   UNL     1      43.152 -17.389   2.988  1.00  0.00     0.002 A 
HETATM   18  C   UNL     1      43.487 -16.542   4.048  1.00  0.00     0.017 A 
HETATM   19  C   UNL     1      42.741 -15.378   4.264  1.00  0.00     0.033 A 
HETATM   20  C   UNL     1      41.651 -15.083   3.436  1.00  0.00     0.026 A 
BRANCH  19  21
HETATM   21  C   UNL     1      43.039 -14.437   5.369  1.00  0.00     0.257 C 
HETATM   22  N   UNL     1      42.808 -13.050   5.131  1.00  0.00    -0.303 N 
HETATM   23  H   UNL     1      42.466 -12.727   4.242  1.00  0.00     0.171 HD
HETATM   24  O   UNL     1      43.492 -14.809   6.434  1.00  0.00    -0.267 OA
BRANCH  22  25
HETATM   25  C   UNL     1      42.993 -12.112   6.054  1.00  0.00     0.152 A 
HETATM   26  N   UNL     1      44.169 -12.002   6.709  1.00  0.00    -0.339 N 
HETATM   27  C   UNL     1      44.173 -11.012   7.668  1.00  0.00     0.024 A 
HETATM   28  H   UNL     1      44.945 -12.624   6.496  1.00  0.00     0.168 HD
HETATM   29  C   UNL     1      45.340 -10.812   8.563  1.00  0.00     0.060 C 
HETATM   30  C   UNL     1      43.004 -10.305   7.739  1.00  0.00     0.011 A 
HETATM   31  C   UNL     1      45.193  -9.502   9.372  1.00  0.00     0.039 C 
HETATM   32  C   UNL     1      43.754  -9.180   9.852  1.00  0.00     0.191 C 
HETATM   33  C   UNL     1      42.752  -9.149   8.660  1.00  0.00     0.081 C 
HETATM   34  S   UNL     1      41.876 -10.885   6.607  1.00  0.00    -0.056 SA
BRANCH  32  35
HETATM   35  N   UNL     1      43.259 -10.185  10.883  1.00  0.00    -0.070 N 
HETATM   36  H   UNL     1      43.887 -10.998  10.952  1.00  0.00     0.277 HD
HETATM   37  H   UNL     1      42.367 -10.569  10.525  1.00  0.00     0.277 HD
BRANCH  35  38
HETATM   38  C   UNL     1      42.975  -9.643  12.267  1.00  0.00     0.241 C 
BRANCH  38  39
HETATM   39  C   UNL     1      43.439  -8.200  12.345  1.00  0.00     0.144 C 
BRANCH  39  40
HETATM   40  C   UNL     1      42.857  -7.569  13.588  1.00  0.00     0.389 C 
HETATM   41  F   UNL     1      41.918  -6.666  13.250  1.00  0.00    -0.171 F 
HETATM   42  F   UNL     1      43.831  -6.933  14.269  1.00  0.00    -0.171 F 
HETATM   43  F   UNL     1      42.307  -8.499  14.385  1.00  0.00    -0.171 F 
ENDBRANCH  39  40
ENDBRANCH  38  39
ENDBRANCH  35  38
ENDBRANCH  32  35
ENDBRANCH  22  25
ENDBRANCH  19  21
ENDBRANCH  14  15
ENDBRANCH  13  14
ENDBRANCH  10  13
ENDBRANCH   1   9
TORSDOF 10
ENDMDL
MODEL 6
REMARK VINA RESULT:      -8.5      1.778      2.122
REMARK  10 active torsions:
REMARK  status: ('A' for Active; 'I' for Inactive)
REMARK    1  A    between atoms: C_2  and  C_5 
REMARK    2  A    between atoms: C_5  and  C_6 
REMARK    3  A    between atoms: C_6  and  N_7 
REMARK    4  A    between atoms: N_7  and  C_10 
REMARK    5  A    between atoms: C_16  and  N_17 
REMARK       I    between atoms: N_17  and  C_18 
REMARK    6  A    between atoms: C_18  and  C_20 
REMARK    7  A    between atoms: C_24  and  C_25 
REMARK    8  A    between atoms: C_25  and  O_26 
REMARK    9  A    between atoms: O_26  and  C_27 
REMARK       I    between atoms: C_27  and  N_29 
REMARK   10  A    between atoms: N_29  and  C_30 
ROOT
HETATM    1  C   UNL     1      42.534 -15.593   4.006  1.00  0.00     0.036 A 
HETATM    2  C   UNL     1      43.433 -16.458   4.636  1.00  0.00     0.031 A 
HETATM    3  C   UNL     1      43.700 -17.720   4.093  1.00  0.00     0.025 A 
HETATM    4  C   UNL     1      43.075 -18.127   2.911  1.00  0.00     0.044 A 
HETATM    5  C   UNL     1      42.181 -17.265   2.275  1.00  0.00     0.025 A 
HETATM    6  C   UNL     1      41.910 -16.006   2.822  1.00  0.00     0.031 A 
HETATM    7  C   UNL     1      43.349 -19.423   2.364  1.00  0.00     0.099 C 
HETATM    8  N   UNL     1      43.573 -20.480   1.940  1.00  0.00    -0.191 NA
ENDROOT
BRANCH   1   9
HETATM    9  N   UNL     1      42.203 -14.320   4.499  1.00  0.00    -0.303 N 
HETATM   10  C   UNL     1      42.672 -13.104   4.093  1.00  0.00     0.365 C 
HETATM   11  O   UNL     1      43.459 -12.865   3.188  1.00  0.00    -0.238 OA
HETATM   12  H   UNL     1      41.508 -14.264   5.232  1.00  0.00     0.171 HD
BRANCH  10  13
HETATM   13  O   UNL     1      42.106 -12.152   4.882  1.00  0.00    -0.299 OA
BRANCH  13  14
HETATM   14  C   UNL     1      42.801 -10.899   4.940  1.00  0.00     0.219 C 
BRANCH  14  15
HETATM   15  C   UNL     1      43.753 -10.844   6.111  1.00  0.00    -0.033 A 
HETATM   16  C   UNL     1      45.061 -11.330   5.997  1.00  0.00     0.009 A 
HETATM   17  C   UNL     1      45.944 -11.252   7.076  1.00  0.00     0.002 A 
HETATM   18  C   UNL     1      45.536 -10.675   8.281  1.00  0.00     0.017 A 
HETATM   19  C   UNL     1      44.235 -10.171   8.401  1.00  0.00     0.033 A 
HETATM   20  C   UNL     1      43.346 -10.272   7.324  1.00  0.00     0.026 A 
BRANCH  19  21
HETATM   21  C   UNL     1      43.736  -9.549   9.649  1.00  0.00     0.257 C 
HETATM   22  N   UNL     1      42.489  -8.858   9.585  1.00  0.00    -0.303 N 
HETATM   23  H   UNL     1      41.978  -8.790   8.722  1.00  0.00     0.171 HD
HETATM   24  O   UNL     1      44.363  -9.587  10.689  1.00  0.00    -0.267 OA
BRANCH  22  25
HETATM   25  C   UNL     1      41.914  -8.297  10.644  1.00  0.00     0.152 A 
HETATM   26  N   UNL     1      42.595  -7.443  11.436  1.00  0.00    -0.339 N 
HETATM   27  C   UNL     1      41.866  -6.993  12.516  1.00  0.00     0.024 A 
HETATM   28  H   UNL     1      43.561  -7.196  11.229  1.00  0.00     0.168 HD
HETATM   29  C   UNL     1      42.481  -6.132  13.557  1.00  0.00     0.060 C 
HETATM   30  C   UNL     1      40.582  -7.464  12.551  1.00  0.00     0.011 A 
HETATM   31  C   UNL     1      41.404  -5.575  14.515  1.00  0.00     0.039 C 
HETATM   32  C   UNL     1      40.260  -6.561  14.869  1.00  0.00     0.191 C 
HETATM   33  C   UNL     1      39.561  -7.102  13.587  1.00  0.00     0.081 C 
HETATM   34  S   UNL     1      40.276  -8.490  11.230  1.00  0.00    -0.056 SA
BRANCH  32  35
HETATM   35  N   UNL     1      40.761  -7.743  15.690  1.00  0.00    -0.070 N 
HETATM   36  H   UNL     1      41.412  -8.330  15.150  1.00  0.00     0.277 HD
HETATM   37  H   UNL     1      39.943  -8.351  15.872  1.00  0.00     0.277 HD
BRANCH  35  38
HETATM   38  C   UNL     1      41.367  -7.415  17.037  1.00  0.00     0.241 C 
BRANCH  38  39
HETATM   39  C   UNL     1      40.279  -6.916  17.969  1.00  0.00     0.144 C 
BRANCH  39  40
HETATM   40  C   UNL     1      40.852  -5.830  18.848  1.00  0.00     0.389 C 
HETATM   41  F   UNL     1      41.032  -6.295  20.099  1.00  0.00    -0.171 F 
HETATM   42  F   UNL     1      39.992  -4.793  18.902  1.00  0.00    -0.171 F 
HETATM   43  F   UNL     1      42.026  -5.394  18.367  1.00  0.00    -0.171 F 
ENDBRANCH  39  40
ENDBRANCH  38  39
ENDBRANCH  35  38
ENDBRANCH  32  35
ENDBRANCH  22  25
ENDBRANCH  19  21
ENDBRANCH  14  15
ENDBRANCH  13  14
ENDBRANCH  10  13
ENDBRANCH   1   9
TORSDOF 10
ENDMDL
MODEL 7
REMARK VINA RESULT:      -8.2      2.626      2.907
REMARK  10 active torsions:
REMARK  status: ('A' for Active; 'I' for Inactive)
REMARK    1  A    between atoms: C_2  and  C_5 
REMARK    2  A    between atoms: C_5  and  C_6 
REMARK    3  A    between atoms: C_6  and  N_7 
REMARK    4  A    between atoms: N_7  and  C_10 
REMARK    5  A    between atoms: C_16  and  N_17 
REMARK       I    between atoms: N_17  and  C_18 
REMARK    6  A    between atoms: C_18  and  C_20 
REMARK    7  A    between atoms: C_24  and  C_25 
REMARK    8  A    between atoms: C_25  and  O_26 
REMARK    9  A    between atoms: O_26  and  C_27 
REMARK       I    between atoms: C_27  and  N_29 
REMARK   10  A    between atoms: N_29  and  C_30 
ROOT
HETATM    1  C   UNL     1      43.260 -15.936   4.440  1.00  0.00     0.036 A 
HETATM    2  C   UNL     1      42.685 -16.076   3.175  1.00  0.00     0.031 A 
HETATM    3  C   UNL     1      42.775 -17.292   2.487  1.00  0.00     0.025 A 
HETATM    4  C   UNL     1      43.437 -18.380   3.061  1.00  0.00     0.044 A 
HETATM    5  C   UNL     1      44.008 -18.248   4.327  1.00  0.00     0.025 A 
HETATM    6  C   UNL     1      43.923 -17.030   5.011  1.00  0.00     0.031 A 
HETATM    7  C   UNL     1      43.530 -19.620   2.347  1.00  0.00     0.099 C 
HETATM    8  N   UNL     1      43.607 -20.614   1.752  1.00  0.00    -0.191 NA
ENDROOT
BRANCH   1   9
HETATM    9  N   UNL     1      43.226 -14.745   5.184  1.00  0.00    -0.303 N 
HETATM   10  C   UNL     1      42.958 -13.479   4.749  1.00  0.00     0.365 C 
HETATM   11  O   UNL     1      42.659 -13.119   3.619  1.00  0.00    -0.238 OA
HETATM   12  H   UNL     1      43.389 -14.805   6.181  1.00  0.00     0.171 HD
BRANCH  10  13
HETATM   13  O   UNL     1      43.079 -12.636   5.810  1.00  0.00    -0.299 OA
BRANCH  13  14
HETATM   14  C   UNL     1      44.187 -12.890   6.683  1.00  0.00     0.219 C 
BRANCH  14  15
HETATM   15  C   UNL     1      44.625 -11.637   7.405  1.00  0.00    -0.033 A 
HETATM   16  C   UNL     1      45.862 -11.044   7.129  1.00  0.00     0.009 A 
HETATM   17  C   UNL     1      46.248  -9.872   7.782  1.00  0.00     0.002 A 
HETATM   18  C   UNL     1      45.397  -9.268   8.711  1.00  0.00     0.017 A 
HETATM   19  C   UNL     1      44.151  -9.844   8.982  1.00  0.00     0.033 A 
HETATM   20  C   UNL     1      43.777 -11.032   8.343  1.00  0.00     0.026 A 
BRANCH  19  21
HETATM   21  C   UNL     1      43.200  -9.259   9.957  1.00  0.00     0.257 C 
HETATM   22  N   UNL     1      42.000  -8.686   9.441  1.00  0.00    -0.303 N 
HETATM   23  H   UNL     1      41.816  -8.673   8.452  1.00  0.00     0.171 HD
HETATM   24  O   UNL     1      43.429  -9.231  11.150  1.00  0.00    -0.267 OA
BRANCH  22  25
HETATM   25  C   UNL     1      41.049  -8.171  10.213  1.00  0.00     0.152 A 
HETATM   26  N   UNL     1      40.807  -6.843  10.227  1.00  0.00    -0.339 N 
HETATM   27  C   UNL     1      39.824  -6.473  11.120  1.00  0.00     0.024 A 
HETATM   28  H   UNL     1      41.337  -6.210   9.633  1.00  0.00     0.168 HD
HETATM   29  C   UNL     1      39.494  -5.045  11.355  1.00  0.00     0.060 C 
HETATM   30  C   UNL     1      39.254  -7.525  11.784  1.00  0.00     0.011 A 
HETATM   31  C   UNL     1      38.211  -4.911  12.207  1.00  0.00     0.039 C 
HETATM   32  C   UNL     1      38.055  -5.962  13.337  1.00  0.00     0.191 C 
HETATM   33  C   UNL     1      38.137  -7.413  12.776  1.00  0.00     0.081 C 
HETATM   34  S   UNL     1      39.957  -8.997  11.303  1.00  0.00    -0.056 SA
BRANCH  32  35
HETATM   35  N   UNL     1      39.112  -5.795  14.420  1.00  0.00    -0.070 N 
HETATM   36  H   UNL     1      39.612  -4.900  14.327  1.00  0.00     0.277 HD
HETATM   37  H   UNL     1      39.832  -6.520  14.253  1.00  0.00     0.277 HD
BRANCH  35  38
HETATM   38  C   UNL     1      38.643  -5.971  15.848  1.00  0.00     0.241 C 
BRANCH  38  39
HETATM   39  C   UNL     1      39.128  -4.800  16.683  1.00  0.00     0.144 C 
BRANCH  39  40
HETATM   40  C   UNL     1      38.183  -3.638  16.486  1.00  0.00     0.389 C 
HETATM   41  F   UNL     1      37.890  -3.075  17.673  1.00  0.00    -0.171 F 
HETATM   42  F   UNL     1      37.036  -4.079  15.933  1.00  0.00    -0.171 F 
HETATM   43  F   UNL     1      38.725  -2.712  15.681  1.00  0.00    -0.171 F 
ENDBRANCH  39  40
ENDBRANCH  38  39
ENDBRANCH  35  38
ENDBRANCH  32  35
ENDBRANCH  22  25
ENDBRANCH  19  21
ENDBRANCH  14  15
ENDBRANCH  13  14
ENDBRANCH  10  13
ENDBRANCH   1   9
TORSDOF 10
ENDMDL
MODEL 8
REMARK VINA RESULT:      -8.2      7.132     13.674
REMARK  10 active torsions:
REMARK  status: ('A' for Active; 'I' for Inactive)
REMARK    1  A    between atoms: C_2  and  C_5 
REMARK    2  A    between atoms: C_5  and  C_6 
REMARK    3  A    between atoms: C_6  and  N_7 
REMARK    4  A    between atoms: N_7  and  C_10 
REMARK    5  A    between atoms: C_16  and  N_17 
REMARK       I    between atoms: N_17  and  C_18 
REMARK    6  A    between atoms: C_18  and  C_20 
REMARK    7  A    between atoms: C_24  and  C_25 
REMARK    8  A    between atoms: C_25  and  O_26 
REMARK    9  A    between atoms: O_26  and  C_27 
REMARK       I    between atoms: C_27  and  N_29 
REMARK   10  A    between atoms: N_29  and  C_30 
ROOT
HETATM    1  C   UNL     1      40.575  -6.986  11.843  1.00  0.00     0.036 A 
HETATM    2  C   UNL     1      39.858  -6.803  10.658  1.00  0.00     0.031 A 
HETATM    3  C   UNL     1      38.694  -6.025  10.648  1.00  0.00     0.025 A 
HETATM    4  C   UNL     1      38.241  -5.417  11.822  1.00  0.00     0.044 A 
HETATM    5  C   UNL     1      38.957  -5.591  13.007  1.00  0.00     0.025 A 
HETATM    6  C   UNL     1      40.117  -6.375  13.017  1.00  0.00     0.031 A 
HETATM    7  C   UNL     1      37.046  -4.627  11.805  1.00  0.00     0.099 C 
HETATM    8  N   UNL     1      36.070  -3.998  11.777  1.00  0.00    -0.191 NA
ENDROOT
BRANCH   1   9
HETATM    9  N   UNL     1      41.740  -7.765  11.935  1.00  0.00    -0.303 N 
HETATM   10  C   UNL     1      41.858  -9.125  11.906  1.00  0.00     0.365 C 
HETATM   11  O   UNL     1      40.971  -9.953  11.759  1.00  0.00    -0.238 OA
HETATM   12  H   UNL     1      42.626  -7.283  12.006  1.00  0.00     0.171 HD
BRANCH  10  13
HETATM   13  O   UNL     1      43.171  -9.436  12.071  1.00  0.00    -0.299 OA
BRANCH  13  14
HETATM   14  C   UNL     1      43.610 -10.640  11.428  1.00  0.00     0.219 C 
BRANCH  14  15
HETATM   15  C   UNL     1      44.261 -10.355  10.095  1.00  0.00    -0.033 A 
HETATM   16  C   UNL     1      45.348  -9.477  10.000  1.00  0.00     0.009 A 
HETATM   17  C   UNL     1      45.960  -9.239   8.768  1.00  0.00     0.002 A 
HETATM   18  C   UNL     1      45.504  -9.884   7.615  1.00  0.00     0.017 A 
HETATM   19  C   UNL     1      44.429 -10.776   7.703  1.00  0.00     0.033 A 
HETATM   20  C   UNL     1      43.802 -10.995   8.936  1.00  0.00     0.026 A 
BRANCH  19  21
HETATM   21  C   UNL     1      43.892 -11.492   6.522  1.00  0.00     0.257 C 
HETATM   22  N   UNL     1      43.217 -12.727   6.754  1.00  0.00    -0.303 N 
HETATM   23  H   UNL     1      43.120 -13.098   7.683  1.00  0.00     0.171 HD
HETATM   24  O   UNL     1      44.039 -11.076   5.389  1.00  0.00    -0.267 OA
BRANCH  22  25
HETATM   25  C   UNL     1      42.653 -13.441   5.785  1.00  0.00     0.152 A 
HETATM   26  N   UNL     1      43.265 -13.600   4.592  1.00  0.00    -0.339 N 
HETATM   27  C   UNL     1      42.520 -14.325   3.685  1.00  0.00     0.024 A 
HETATM   28  H   UNL     1      44.179 -13.191   4.415  1.00  0.00     0.168 HD
HETATM   29  C   UNL     1      42.980 -14.512   2.287  1.00  0.00     0.060 C 
HETATM   30  C   UNL     1      41.330 -14.779   4.183  1.00  0.00     0.011 A 
HETATM   31  C   UNL     1      42.099 -15.550   1.554  1.00  0.00     0.039 C 
HETATM   32  C   UNL     1      40.587 -15.494   1.897  1.00  0.00     0.191 C 
HETATM   33  C   UNL     1      40.348 -15.624   3.430  1.00  0.00     0.081 C 
HETATM   34  S   UNL     1      41.123 -14.289   5.798  1.00  0.00    -0.056 SA
BRANCH  32  35
HETATM   35  N   UNL     1      39.941 -14.205   1.408  1.00  0.00    -0.070 N 
HETATM   36  H   UNL     1      40.242 -13.394   1.967  1.00  0.00     0.277 HD
HETATM   37  H   UNL     1      38.925 -14.289   1.589  1.00  0.00     0.277 HD
BRANCH  35  38
HETATM   38  C   UNL     1      40.094 -13.893  -0.065  1.00  0.00     0.241 C 
BRANCH  38  39
HETATM   39  C   UNL     1      39.510 -15.031  -0.882  1.00  0.00     0.144 C 
BRANCH  39  40
HETATM   40  C   UNL     1      38.997 -14.476  -2.190  1.00  0.00     0.389 C 
HETATM   41  F   UNL     1      39.978 -13.805  -2.822  1.00  0.00    -0.171 F 
HETATM   42  F   UNL     1      37.985 -13.619  -1.950  1.00  0.00    -0.171 F 
HETATM   43  F   UNL     1      38.553 -15.460  -2.986  1.00  0.00    -0.171 F 
ENDBRANCH  39  40
ENDBRANCH  38  39
ENDBRANCH  35  38
ENDBRANCH  32  35
ENDBRANCH  22  25
ENDBRANCH  19  21
ENDBRANCH  14  15
ENDBRANCH  13  14
ENDBRANCH  10  13
ENDBRANCH   1   9
TORSDOF 10
ENDMDL
MODEL 9
REMARK VINA RESULT:      -8.1      4.449      6.686
REMARK  10 active torsions:
REMARK  status: ('A' for Active; 'I' for Inactive)
REMARK    1  A    between atoms: C_2  and  C_5 
REMARK    2  A    between atoms: C_5  and  C_6 
REMARK    3  A    between atoms: C_6  and  N_7 
REMARK    4  A    between atoms: N_7  and  C_10 
REMARK    5  A    between atoms: C_16  and  N_17 
REMARK       I    between atoms: N_17  and  C_18 
REMARK    6  A    between atoms: C_18  and  C_20 
REMARK    7  A    between atoms: C_24  and  C_25 
REMARK    8  A    between atoms: C_25  and  O_26 
REMARK    9  A    between atoms: O_26  and  C_27 
REMARK       I    between atoms: C_27  and  N_29 
REMARK   10  A    between atoms: N_29  and  C_30 
ROOT
HETATM    1  C   UNL     1      40.478 -14.295   0.088  1.00  0.00     0.036 A 
HETATM    2  C   UNL     1      39.753 -14.548  -1.079  1.00  0.00     0.031 A 
HETATM    3  C   UNL     1      39.528 -13.524  -2.008  1.00  0.00     0.025 A 
HETATM    4  C   UNL     1      40.031 -12.241  -1.781  1.00  0.00     0.044 A 
HETATM    5  C   UNL     1      40.761 -11.985  -0.619  1.00  0.00     0.025 A 
HETATM    6  C   UNL     1      40.980 -13.007   0.311  1.00  0.00     0.031 A 
HETATM    7  C   UNL     1      39.791 -11.197  -2.733  1.00  0.00     0.099 C 
HETATM    8  N   UNL     1      39.579 -10.360  -3.509  1.00  0.00    -0.191 NA
ENDROOT
BRANCH   1   9
HETATM    9  N   UNL     1      40.731 -15.264   1.073  1.00  0.00    -0.303 N 
HETATM   10  C   UNL     1      40.363 -15.256   2.387  1.00  0.00     0.365 C 
HETATM   11  O   UNL     1      39.706 -14.412   2.979  1.00  0.00    -0.238 OA
HETATM   12  H   UNL     1      41.223 -16.103   0.794  1.00  0.00     0.171 HD
BRANCH  10  13
HETATM   13  O   UNL     1      40.861 -16.380   2.970  1.00  0.00    -0.299 OA
BRANCH  13  14
HETATM   14  C   UNL     1      40.665 -16.485   4.386  1.00  0.00     0.219 C 
BRANCH  14  15
HETATM   15  C   UNL     1      41.930 -16.167   5.148  1.00  0.00    -0.033 A 
HETATM   16  C   UNL     1      42.846 -17.176   5.472  1.00  0.00     0.009 A 
HETATM   17  C   UNL     1      44.025 -16.870   6.154  1.00  0.00     0.002 A 
HETATM   18  C   UNL     1      44.313 -15.549   6.510  1.00  0.00     0.017 A 
HETATM   19  C   UNL     1      43.412 -14.532   6.176  1.00  0.00     0.033 A 
HETATM   20  C   UNL     1      42.219 -14.846   5.513  1.00  0.00     0.026 A 
BRANCH  19  21
HETATM   21  C   UNL     1      43.652 -13.112   6.524  1.00  0.00     0.257 C 
HETATM   22  N   UNL     1      42.510 -12.275   6.697  1.00  0.00    -0.303 N 
HETATM   23  H   UNL     1      41.580 -12.637   6.575  1.00  0.00     0.171 HD
HETATM   24  O   UNL     1      44.772 -12.651   6.633  1.00  0.00    -0.267 OA
BRANCH  22  25
HETATM   25  C   UNL     1      42.591 -10.998   7.053  1.00  0.00     0.152 A 
HETATM   26  N   UNL     1      43.473 -10.591   7.990  1.00  0.00    -0.339 N 
HETATM   27  C   UNL     1      43.389  -9.245   8.276  1.00  0.00     0.024 A 
HETATM   28  H   UNL     1      44.107 -11.252   8.432  1.00  0.00     0.168 HD
HETATM   29  C   UNL     1      44.203  -8.635   9.357  1.00  0.00     0.060 C 
HETATM   30  C   UNL     1      42.463  -8.575   7.525  1.00  0.00     0.011 A 
HETATM   31  C   UNL     1      44.107  -7.092   9.313  1.00  0.00     0.039 C 
HETATM   32  C   UNL     1      42.708  -6.528   8.953  1.00  0.00     0.191 C 
HETATM   33  C   UNL     1      42.196  -7.102   7.599  1.00  0.00     0.081 C 
HETATM   34  S   UNL     1      41.673  -9.634   6.454  1.00  0.00    -0.056 SA
BRANCH  32  35
HETATM   35  N   UNL     1      41.677  -6.828  10.033  1.00  0.00    -0.070 N 
HETATM   36  H   UNL     1      41.193  -7.720   9.857  1.00  0.00     0.277 HD
HETATM   37  H   UNL     1      40.941  -6.106   9.956  1.00  0.00     0.277 HD
BRANCH  35  38
HETATM   38  C   UNL     1      42.173  -6.792  11.463  1.00  0.00     0.241 C 
BRANCH  38  39
HETATM   39  C   UNL     1      41.680  -8.026  12.196  1.00  0.00     0.144 C 
BRANCH  39  40
HETATM   40  C   UNL     1      42.606  -8.304  13.357  1.00  0.00     0.389 C 
HETATM   41  F   UNL     1      42.223  -7.590  14.432  1.00  0.00    -0.171 F 
HETATM   42  F   UNL     1      43.861  -7.936  13.030  1.00  0.00    -0.171 F 
HETATM   43  F   UNL     1      42.603  -9.608  13.669  1.00  0.00    -0.171 F 
ENDBRANCH  39  40
ENDBRANCH  38  39
ENDBRANCH  35  38
ENDBRANCH  32  35
ENDBRANCH  22  25
ENDBRANCH  19  21
ENDBRANCH  14  15
ENDBRANCH  13  14
ENDBRANCH  10  13
ENDBRANCH   1   9
TORSDOF 10
ENDMDL
MODEL 10
REMARK VINA RESULT:      -8.0      6.400     13.614
REMARK  10 active torsions:
REMARK  status: ('A' for Active; 'I' for Inactive)
REMARK    1  A    between atoms: C_2  and  C_5 
REMARK    2  A    between atoms: C_5  and  C_6 
REMARK    3  A    between atoms: C_6  and  N_7 
REMARK    4  A    between atoms: N_7  and  C_10 
REMARK    5  A    between atoms: C_16  and  N_17 
REMARK       I    between atoms: N_17  and  C_18 
REMARK    6  A    between atoms: C_18  and  C_20 
REMARK    7  A    between atoms: C_24  and  C_25 
REMARK    8  A    between atoms: C_25  and  O_26 
REMARK    9  A    between atoms: O_26  and  C_27 
REMARK       I    between atoms: C_27  and  N_29 
REMARK   10  A    between atoms: N_29  and  C_30 
ROOT
HETATM    1  C   UNL     1      41.452  -7.187  13.759  1.00  0.00     0.036 A 
HETATM    2  C   UNL     1      41.947  -6.028  14.363  1.00  0.00     0.031 A 
HETATM    3  C   UNL     1      42.080  -5.956  15.755  1.00  0.00     0.025 A 
HETATM    4  C   UNL     1      41.724  -7.044  16.555  1.00  0.00     0.044 A 
HETATM    5  C   UNL     1      41.234  -8.206  15.957  1.00  0.00     0.025 A 
HETATM    6  C   UNL     1      41.096  -8.275  14.567  1.00  0.00     0.031 A 
HETATM    7  C   UNL     1      41.857  -6.960  17.980  1.00  0.00     0.099 C 
HETATM    8  N   UNL     1      41.960  -6.873  19.133  1.00  0.00    -0.191 NA
ENDROOT
BRANCH   1   9
HETATM    9  N   UNL     1      41.275  -7.328  12.373  1.00  0.00    -0.303 N 
HETATM   10  C   UNL     1      41.715  -8.330  11.558  1.00  0.00     0.365 C 
HETATM   11  O   UNL     1      42.333  -9.338  11.872  1.00  0.00    -0.238 OA
HETATM   12  H   UNL     1      40.729  -6.625  11.893  1.00  0.00     0.171 HD
BRANCH  10  13
HETATM   13  O   UNL     1      41.348  -8.028  10.284  1.00  0.00    -0.299 OA
BRANCH  13  14
HETATM   14  C   UNL     1      42.296  -7.264   9.528  1.00  0.00     0.219 C 
BRANCH  14  15
HETATM   15  C   UNL     1      43.417  -8.130   9.004  1.00  0.00    -0.033 A 
HETATM   16  C   UNL     1      44.756  -7.787   9.229  1.00  0.00     0.009 A 
HETATM   17  C   UNL     1      45.786  -8.607   8.764  1.00  0.00     0.002 A 
HETATM   18  C   UNL     1      45.493  -9.789   8.078  1.00  0.00     0.017 A 
HETATM   19  C   UNL     1      44.158 -10.150   7.862  1.00  0.00     0.033 A 
HETATM   20  C   UNL     1      43.128  -9.313   8.310  1.00  0.00     0.026 A 
BRANCH  19  21
HETATM   21  C   UNL     1      43.775 -11.386   7.142  1.00  0.00     0.257 C 
HETATM   22  N   UNL     1      42.548 -11.371   6.416  1.00  0.00    -0.303 N 
HETATM   23  H   UNL     1      41.963 -10.554   6.405  1.00  0.00     0.171 HD
HETATM   24  O   UNL     1      44.452 -12.396   7.181  1.00  0.00    -0.267 OA
BRANCH  22  25
HETATM   25  C   UNL     1      42.117 -12.400   5.694  1.00  0.00     0.152 A 
HETATM   26  N   UNL     1      41.956 -13.620   6.248  1.00  0.00    -0.339 N 
HETATM   27  C   UNL     1      41.551 -14.584   5.349  1.00  0.00     0.024 A 
HETATM   28  H   UNL     1      42.145 -13.774   7.236  1.00  0.00     0.168 HD
HETATM   29  C   UNL     1      41.426 -16.007   5.748  1.00  0.00     0.060 C 
HETATM   30  C   UNL     1      41.348 -14.108   4.082  1.00  0.00     0.011 A 
HETATM   31  C   UNL     1      40.733 -16.830   4.638  1.00  0.00     0.039 C 
HETATM   32  C   UNL     1      41.118 -16.440   3.188  1.00  0.00     0.191 C 
HETATM   33  C   UNL     1      40.867 -14.927   2.922  1.00  0.00     0.081 C 
HETATM   34  S   UNL     1      41.676 -12.442   4.002  1.00  0.00    -0.056 SA
BRANCH  32  35
HETATM   35  N   UNL     1      42.576 -16.756   2.882  1.00  0.00    -0.070 N 
HETATM   36  H   UNL     1      43.159 -16.717   3.730  1.00  0.00     0.277 HD
HETATM   37  H   UNL     1      42.930 -15.992   2.281  1.00  0.00     0.277 HD
BRANCH  35  38
HETATM   38  C   UNL     1      42.841 -18.049   2.141  1.00  0.00     0.241 C 
BRANCH  38  39
HETATM   39  C   UNL     1      43.668 -18.970   3.020  1.00  0.00     0.144 C 
BRANCH  39  40
HETATM   40  C   UNL     1      43.587 -20.373   2.466  1.00  0.00     0.389 C 
HETATM   41  F   UNL     1      44.529 -20.551   1.520  1.00  0.00    -0.171 F 
HETATM   42  F   UNL     1      42.379 -20.564   1.900  1.00  0.00    -0.171 F 
HETATM   43  F   UNL     1      43.760 -21.281   3.437  1.00  0.00    -0.171 F 
ENDBRANCH  39  40
ENDBRANCH  38  39
ENDBRANCH  35  38
ENDBRANCH  32  35
ENDBRANCH  22  25
ENDBRANCH  19  21
ENDBRANCH  14  15
ENDBRANCH  13  14
ENDBRANCH  10  13
ENDBRANCH   1   9
TORSDOF 10
ENDMDL
