MODEL 1
REMARK VINA RESULT:      -8.6      0.000      0.000
REMARK  3 active torsions:
REMARK  status: ('A' for Active; 'I' for Inactive)
REMARK    1  A    between atoms: C_2  and  N_3 
REMARK    2  A    between atoms: C_2  and  C_10 
REMARK    3  A    between atoms: C_13  and  C_14 
ROOT
HETATM    1  C   UNL     1      40.675 -13.981   1.407  1.00  0.00    -0.028 A 
HETATM    2  C   UNL     1      40.028 -15.000   2.125  1.00  0.00     0.010 A 
HETATM    3  C   UNL     1      40.768 -15.958   2.827  1.00  0.00     0.014 A 
HETATM    4  C   UNL     1      42.171 -15.933   2.836  1.00  0.00    -0.006 A 
HETATM    5  C   UNL     1      42.808 -14.925   2.095  1.00  0.00     0.014 A 
HETATM    6  C   UNL     1      42.077 -13.958   1.396  1.00  0.00     0.010 A 
ENDROOT
BRANCH   4   7
HETATM    7  C   UNL     1      42.962 -16.931   3.559  1.00  0.00     0.082 A 
HETATM    8  N   UNL     1      43.466 -16.572   4.769  1.00  0.00    -0.240 NA
HETATM    9  C   UNL     1      44.200 -17.477   5.446  1.00  0.00     0.236 A 
HETATM   10  N   UNL     1      44.495 -18.736   5.084  1.00  0.00    -0.224 NA
HETATM   11  C   UNL     1      43.956 -19.050   3.899  1.00  0.00     0.141 A 
HETATM   12  C   UNL     1      43.190 -18.230   3.083  1.00  0.00     0.041 A 
HETATM   13  N   UNL     1      44.076 -20.270   3.292  1.00  0.00    -0.350 N 
HETATM   14  C   UNL     1      42.826 -19.016   1.950  1.00  0.00     0.034 A 
HETATM   15  C   UNL     1      43.389 -20.266   2.105  1.00  0.00     0.091 A 
HETATM   16  H   UNL     1      44.592 -21.045   3.687  1.00  0.00     0.166 HD
ENDBRANCH   4   7
BRANCH   1  17
HETATM   17  C   UNL     1      39.853 -12.923   0.689  1.00  0.00     0.217 C 
HETATM   18  C   UNL     1      38.962 -12.179   1.689  1.00  0.00     0.045 C 
BRANCH  17  19
HETATM   19  N   UNL     1      39.013 -13.525  -0.455  1.00  0.00    -0.063 N 
HETATM   20  H   UNL     1      38.337 -14.157  -0.008  1.00  0.00     0.280 HD
HETATM   21  C   UNL     1      38.234 -12.489  -1.240  1.00  0.00     0.235 C 
HETATM   22  C   UNL     1      37.368 -13.165  -2.294  1.00  0.00     0.028 C 
HETATM   23  C   UNL     1      38.188 -14.043  -3.226  1.00  0.00     0.003 C 
HETATM   24  C   UNL     1      38.996 -15.055  -2.429  1.00  0.00     0.028 C 
HETATM   25  C   UNL     1      39.868 -14.379  -1.382  1.00  0.00     0.235 C 
ENDBRANCH  17  19
ENDBRANCH   1  17
TORSDOF 3
ENDMDL
MODEL 2
REMARK VINA RESULT:      -8.5      1.034      2.091
REMARK  3 active torsions:
REMARK  status: ('A' for Active; 'I' for Inactive)
REMARK    1  A    between atoms: C_2  and  N_3 
REMARK    2  A    between atoms: C_2  and  C_10 
REMARK    3  A    between atoms: C_13  and  C_14 
ROOT
HETATM    1  C   UNL     1      40.576 -14.027   1.195  1.00  0.00    -0.028 A 
HETATM    2  C   UNL     1      39.894 -15.018   1.920  1.00  0.00     0.010 A 
HETATM    3  C   UNL     1      40.598 -15.979   2.653  1.00  0.00     0.014 A 
HETATM    4  C   UNL     1      42.001 -15.985   2.689  1.00  0.00    -0.006 A 
HETATM    5  C   UNL     1      42.675 -15.004   1.942  1.00  0.00     0.014 A 
HETATM    6  C   UNL     1      41.979 -14.036   1.211  1.00  0.00     0.010 A 
ENDROOT
BRANCH   4   7
HETATM    7  C   UNL     1      42.756 -16.985   3.446  1.00  0.00     0.082 A 
HETATM    8  N   UNL     1      43.444 -17.918   2.737  1.00  0.00    -0.240 NA
HETATM    9  C   UNL     1      44.140 -18.850   3.419  1.00  0.00     0.236 A 
HETATM   10  N   UNL     1      44.267 -18.973   4.749  1.00  0.00    -0.224 NA
HETATM   11  C   UNL     1      43.593 -18.017   5.402  1.00  0.00     0.141 A 
HETATM   12  C   UNL     1      42.827 -17.002   4.846  1.00  0.00     0.041 A 
HETATM   13  N   UNL     1      43.559 -17.886   6.764  1.00  0.00    -0.350 N 
HETATM   14  C   UNL     1      42.337 -16.225   5.936  1.00  0.00     0.034 A 
HETATM   15  C   UNL     1      42.801 -16.795   7.104  1.00  0.00     0.091 A 
HETATM   16  H   UNL     1      44.040 -18.507   7.400  1.00  0.00     0.166 HD
ENDBRANCH   4   7
BRANCH   1  17
HETATM   17  C   UNL     1      39.792 -12.965   0.442  1.00  0.00     0.217 C 
HETATM   18  C   UNL     1      38.933 -12.153   1.418  1.00  0.00     0.045 C 
BRANCH  17  19
HETATM   19  N   UNL     1      38.926 -13.575  -0.678  1.00  0.00    -0.063 N 
HETATM   20  H   UNL     1      38.248 -14.188  -0.209  1.00  0.00     0.280 HD
HETATM   21  C   UNL     1      38.151 -12.542  -1.469  1.00  0.00     0.235 C 
HETATM   22  C   UNL     1      37.259 -13.223  -2.498  1.00  0.00     0.028 C 
HETATM   23  C   UNL     1      38.051 -14.131  -3.426  1.00  0.00     0.003 C 
HETATM   24  C   UNL     1      38.856 -15.140  -2.623  1.00  0.00     0.028 C 
HETATM   25  C   UNL     1      39.755 -14.459  -1.601  1.00  0.00     0.235 C 
ENDBRANCH  17  19
ENDBRANCH   1  17
TORSDOF 3
ENDMDL
MODEL 3
REMARK VINA RESULT:      -8.3      1.434      7.985
REMARK  3 active torsions:
REMARK  status: ('A' for Active; 'I' for Inactive)
REMARK    1  A    between atoms: C_2  and  N_3 
REMARK    2  A    between atoms: C_2  and  C_10 
REMARK    3  A    between atoms: C_13  and  C_14 
ROOT
HETATM    1  C   UNL     1      42.224 -16.069   2.138  1.00  0.00    -0.028 A 
HETATM    2  C   UNL     1      42.669 -14.862   1.576  1.00  0.00     0.010 A 
HETATM    3  C   UNL     1      41.787 -14.033   0.874  1.00  0.00     0.014 A 
HETATM    4  C   UNL     1      40.437 -14.380   0.709  1.00  0.00    -0.006 A 
HETATM    5  C   UNL     1      40.007 -15.600   1.254  1.00  0.00     0.014 A 
HETATM    6  C   UNL     1      40.881 -16.432   1.963  1.00  0.00     0.010 A 
ENDROOT
BRANCH   4   7
HETATM    7  C   UNL     1      39.500 -13.529  -0.027  1.00  0.00     0.082 A 
HETATM    8  N   UNL     1      39.142 -12.350   0.546  1.00  0.00    -0.240 NA
HETATM    9  C   UNL     1      38.277 -11.558  -0.117  1.00  0.00     0.236 A 
HETATM   10  N   UNL     1      37.716 -11.772  -1.318  1.00  0.00    -0.224 NA
HETATM   11  C   UNL     1      38.119 -12.932  -1.852  1.00  0.00     0.141 A 
HETATM   12  C   UNL     1      38.991 -13.856  -1.292  1.00  0.00     0.041 A 
HETATM   13  N   UNL     1      37.723 -13.400  -3.076  1.00  0.00    -0.350 N 
HETATM   14  C   UNL     1      39.129 -14.907  -2.245  1.00  0.00     0.034 A 
HETATM   15  C   UNL     1      38.335 -14.601  -3.331  1.00  0.00     0.091 A 
HETATM   16  H   UNL     1      37.084 -12.908  -3.685  1.00  0.00     0.166 HD
ENDBRANCH   4   7
BRANCH   1  17
HETATM   17  C   UNL     1      43.188 -16.933   2.936  1.00  0.00     0.217 C 
HETATM   18  C   UNL     1      43.173 -18.370   2.401  1.00  0.00     0.045 C 
BRANCH  17  19
HETATM   19  N   UNL     1      42.873 -16.904   4.445  1.00  0.00    -0.063 N 
HETATM   20  H   UNL     1      41.890 -17.189   4.535  1.00  0.00     0.280 HD
HETATM   21  C   UNL     1      43.714 -17.870   5.254  1.00  0.00     0.235 C 
HETATM   22  C   UNL     1      43.290 -17.845   6.716  1.00  0.00     0.028 C 
HETATM   23  C   UNL     1      43.361 -16.444   7.304  1.00  0.00     0.003 C 
HETATM   24  C   UNL     1      42.546 -15.473   6.465  1.00  0.00     0.028 C 
HETATM   25  C   UNL     1      42.975 -15.491   5.006  1.00  0.00     0.235 C 
ENDBRANCH  17  19
ENDBRANCH   1  17
TORSDOF 3
ENDMDL
MODEL 4
REMARK VINA RESULT:      -7.9      1.350      2.517
REMARK  3 active torsions:
REMARK  status: ('A' for Active; 'I' for Inactive)
REMARK    1  A    between atoms: C_2  and  N_3 
REMARK    2  A    between atoms: C_2  and  C_10 
REMARK    3  A    between atoms: C_13  and  C_14 
ROOT
HETATM    1  C   UNL     1      40.694 -14.336   0.844  1.00  0.00    -0.028 A 
HETATM    2  C   UNL     1      40.093 -15.446   1.459  1.00  0.00     0.010 A 
HETATM    3  C   UNL     1      40.837 -16.296   2.285  1.00  0.00     0.014 A 
HETATM    4  C   UNL     1      42.202 -16.068   2.524  1.00  0.00    -0.006 A 
HETATM    5  C   UNL     1      42.799 -14.969   1.886  1.00  0.00     0.014 A 
HETATM    6  C   UNL     1      42.061 -14.111   1.064  1.00  0.00     0.010 A 
ENDROOT
BRANCH   4   7
HETATM    7  C   UNL     1      42.998 -16.948   3.381  1.00  0.00     0.082 A 
HETATM    8  N   UNL     1      43.466 -16.431   4.547  1.00  0.00    -0.240 NA
HETATM    9  C   UNL     1      44.206 -17.228   5.344  1.00  0.00     0.236 A 
HETATM   10  N   UNL     1      44.537 -18.513   5.146  1.00  0.00    -0.224 NA
HETATM   11  C   UNL     1      44.032 -18.984   3.998  1.00  0.00     0.141 A 
HETATM   12  C   UNL     1      43.266 -18.290   3.072  1.00  0.00     0.041 A 
HETATM   13  N   UNL     1      44.195 -20.266   3.548  1.00  0.00    -0.350 N 
HETATM   14  C   UNL     1      42.947 -19.218   2.038  1.00  0.00     0.034 A 
HETATM   15  C   UNL     1      43.535 -20.425   2.357  1.00  0.00     0.091 A 
HETATM   16  H   UNL     1      44.718 -20.973   4.046  1.00  0.00     0.166 HD
ENDBRANCH   4   7
BRANCH   1  17
HETATM   17  C   UNL     1      39.858 -13.400  -0.013  1.00  0.00     0.217 C 
HETATM   18  C   UNL     1      40.769 -12.521  -0.877  1.00  0.00     0.045 C 
BRANCH  17  19
HETATM   19  N   UNL     1      38.906 -12.536   0.839  1.00  0.00    -0.063 N 
HETATM   20  H   UNL     1      38.303 -13.195   1.346  1.00  0.00     0.280 HD
HETATM   21  C   UNL     1      39.625 -11.680   1.862  1.00  0.00     0.235 C 
HETATM   22  C   UNL     1      38.618 -10.922   2.717  1.00  0.00     0.028 C 
HETATM   23  C   UNL     1      37.677 -10.078   1.872  1.00  0.00     0.003 C 
HETATM   24  C   UNL     1      36.989 -10.936   0.823  1.00  0.00     0.028 C 
HETATM   25  C   UNL     1      37.994 -11.688  -0.037  1.00  0.00     0.235 C 
ENDBRANCH  17  19
ENDBRANCH   1  17
TORSDOF 3
ENDMDL
MODEL 5
REMARK VINA RESULT:      -7.9      5.586      8.422
REMARK  3 active torsions:
REMARK  status: ('A' for Active; 'I' for Inactive)
REMARK    1  A    between atoms: C_2  and  N_3 
REMARK    2  A    between atoms: C_2  and  C_10 
REMARK    3  A    between atoms: C_13  and  C_14 
ROOT
HETATM    1  C   UNL     1      42.641 -14.249   5.235  1.00  0.00    -0.028 A 
HETATM    2  C   UNL     1      42.998 -14.309   6.592  1.00  0.00     0.010 A 
HETATM    3  C   UNL     1      43.629 -13.225   7.213  1.00  0.00     0.014 A 
HETATM    4  C   UNL     1      43.924 -12.050   6.504  1.00  0.00    -0.006 A 
HETATM    5  C   UNL     1      43.584 -12.009   5.143  1.00  0.00     0.014 A 
HETATM    6  C   UNL     1      42.948 -13.085   4.515  1.00  0.00     0.010 A 
ENDROOT
BRANCH   4   7
HETATM    7  C   UNL     1      44.588 -10.908   7.135  1.00  0.00     0.082 A 
HETATM    8  N   UNL     1      45.947 -10.885   7.114  1.00  0.00    -0.240 NA
HETATM    9  C   UNL     1      46.574  -9.843   7.695  1.00  0.00     0.236 A 
HETATM   10  N   UNL     1      46.020  -8.777   8.294  1.00  0.00    -0.224 NA
HETATM   11  C   UNL     1      44.682  -8.833   8.266  1.00  0.00     0.141 A 
HETATM   12  C   UNL     1      43.896  -9.838   7.719  1.00  0.00     0.041 A 
HETATM   13  N   UNL     1      43.855  -7.874   8.786  1.00  0.00    -0.350 N 
HETATM   14  C   UNL     1      42.541  -9.437   7.910  1.00  0.00     0.034 A 
HETATM   15  C   UNL     1      42.547  -8.226   8.572  1.00  0.00     0.091 A 
HETATM   16  H   UNL     1      44.186  -7.036   9.244  1.00  0.00     0.166 HD
ENDBRANCH   4   7
BRANCH   1  17
HETATM   17  C   UNL     1      41.916 -15.419   4.591  1.00  0.00     0.217 C 
HETATM   18  C   UNL     1      40.967 -16.072   5.602  1.00  0.00     0.045 C 
BRANCH  17  19
HETATM   19  N   UNL     1      42.899 -16.455   4.009  1.00  0.00    -0.063 N 
HETATM   20  H   UNL     1      43.710 -15.920   3.675  1.00  0.00     0.280 HD
HETATM   21  C   UNL     1      43.392 -17.458   5.033  1.00  0.00     0.235 C 
HETATM   22  C   UNL     1      44.417 -18.393   4.406  1.00  0.00     0.028 C 
HETATM   23  C   UNL     1      43.866 -19.101   3.179  1.00  0.00     0.003 C 
HETATM   24  C   UNL     1      43.338 -18.090   2.173  1.00  0.00     0.028 C 
HETATM   25  C   UNL     1      42.307 -17.162   2.797  1.00  0.00     0.235 C 
ENDBRANCH  17  19
ENDBRANCH   1  17
TORSDOF 3
ENDMDL
MODEL 6
REMARK VINA RESULT:      -7.8      1.483      7.815
REMARK  3 active torsions:
REMARK  status: ('A' for Active; 'I' for Inactive)
REMARK    1  A    between atoms: C_2  and  N_3 
REMARK    2  A    between atoms: C_2  and  C_10 
REMARK    3  A    between atoms: C_13  and  C_14 
ROOT
HETATM    1  C   UNL     1      43.064 -17.268   2.225  1.00  0.00    -0.028 A 
HETATM    2  C   UNL     1      43.649 -16.056   1.823  1.00  0.00     0.010 A 
HETATM    3  C   UNL     1      42.855 -14.933   1.564  1.00  0.00     0.014 A 
HETATM    4  C   UNL     1      41.459 -14.980   1.697  1.00  0.00    -0.006 A 
HETATM    5  C   UNL     1      40.883 -16.203   2.076  1.00  0.00     0.014 A 
HETATM    6  C   UNL     1      41.668 -17.330   2.344  1.00  0.00     0.010 A 
ENDROOT
BRANCH   4   7
HETATM    7  C   UNL     1      40.612 -13.817   1.424  1.00  0.00     0.082 A 
HETATM    8  N   UNL     1      40.623 -12.809   2.335  1.00  0.00    -0.240 NA
HETATM    9  C   UNL     1      39.845 -11.733   2.101  1.00  0.00     0.236 A 
HETATM   10  N   UNL     1      39.049 -11.505   1.045  1.00  0.00    -0.224 NA
HETATM   11  C   UNL     1      39.092 -12.515   0.165  1.00  0.00     0.141 A 
HETATM   12  C   UNL     1      39.830 -13.685   0.268  1.00  0.00     0.041 A 
HETATM   13  N   UNL     1      38.396 -12.546  -1.012  1.00  0.00    -0.350 N 
HETATM   14  C   UNL     1      39.569 -14.431  -0.919  1.00  0.00     0.034 A 
HETATM   15  C   UNL     1      38.680 -13.706  -1.686  1.00  0.00     0.091 A 
HETATM   16  H   UNL     1      37.780 -11.806  -1.320  1.00  0.00     0.166 HD
ENDBRANCH   4   7
BRANCH   1  17
HETATM   17  C   UNL     1      43.947 -18.464   2.545  1.00  0.00     0.217 C 
HETATM   18  C   UNL     1      43.385 -19.726   1.880  1.00  0.00     0.045 C 
BRANCH  17  19
HETATM   19  N   UNL     1      44.110 -18.668   4.065  1.00  0.00    -0.063 N 
HETATM   20  H   UNL     1      45.114 -18.566   4.258  1.00  0.00     0.280 HD
HETATM   21  C   UNL     1      43.369 -17.638   4.893  1.00  0.00     0.235 C 
HETATM   22  C   UNL     1      43.644 -17.854   6.375  1.00  0.00     0.028 C 
HETATM   23  C   UNL     1      43.287 -19.264   6.820  1.00  0.00     0.003 C 
HETATM   24  C   UNL     1      44.005 -20.292   5.959  1.00  0.00     0.028 C 
HETATM   25  C   UNL     1      43.723 -20.082   4.479  1.00  0.00     0.235 C 
ENDBRANCH  17  19
ENDBRANCH   1  17
TORSDOF 3
ENDMDL
MODEL 7
REMARK VINA RESULT:      -7.8      1.649      7.605
REMARK  3 active torsions:
REMARK  status: ('A' for Active; 'I' for Inactive)
REMARK    1  A    between atoms: C_2  and  N_3 
REMARK    2  A    between atoms: C_2  and  C_10 
REMARK    3  A    between atoms: C_13  and  C_14 
ROOT
HETATM    1  C   UNL     1      42.678 -16.204   4.982  1.00  0.00    -0.028 A 
HETATM    2  C   UNL     1      43.259 -15.088   4.359  1.00  0.00     0.010 A 
HETATM    3  C   UNL     1      42.482 -14.216   3.588  1.00  0.00     0.014 A 
HETATM    4  C   UNL     1      41.106 -14.427   3.413  1.00  0.00    -0.006 A 
HETATM    5  C   UNL     1      40.539 -15.559   4.020  1.00  0.00     0.014 A 
HETATM    6  C   UNL     1      41.306 -16.433   4.799  1.00  0.00     0.010 A 
ENDROOT
BRANCH   4   7
HETATM    7  C   UNL     1      40.278 -13.530   2.605  1.00  0.00     0.082 A 
HETATM    8  N   UNL     1      39.828 -12.392   3.196  1.00  0.00    -0.240 NA
HETATM    9  C   UNL     1      39.061 -11.557   2.467  1.00  0.00     0.236 A 
HETATM   10  N   UNL     1      38.684 -11.691   1.186  1.00  0.00    -0.224 NA
HETATM   11  C   UNL     1      39.173 -12.813   0.640  1.00  0.00     0.141 A 
HETATM   12  C   UNL     1      39.963 -13.771   1.260  1.00  0.00     0.041 A 
HETATM   13  N   UNL     1      38.966 -13.198  -0.656  1.00  0.00    -0.350 N 
HETATM   14  C   UNL     1      40.251 -14.756   0.270  1.00  0.00     0.034 A 
HETATM   15  C   UNL     1      39.620 -14.378  -0.898  1.00  0.00     0.091 A 
HETATM   16  H   UNL     1      38.417 -12.667  -1.319  1.00  0.00     0.166 HD
ENDBRANCH   4   7
BRANCH   1  17
HETATM   17  C   UNL     1      43.530 -17.113   5.853  1.00  0.00     0.217 C 
HETATM   18  C   UNL     1      44.714 -16.330   6.432  1.00  0.00     0.045 C 
BRANCH  17  19
HETATM   19  N   UNL     1      44.016 -18.357   5.082  1.00  0.00    -0.063 N 
HETATM   20  H   UNL     1      45.041 -18.291   5.056  1.00  0.00     0.280 HD
HETATM   21  C   UNL     1      43.651 -19.664   5.758  1.00  0.00     0.235 C 
HETATM   22  C   UNL     1      44.235 -20.839   4.985  1.00  0.00     0.028 C 
HETATM   23  C   UNL     1      43.791 -20.840   3.531  1.00  0.00     0.003 C 
HETATM   24  C   UNL     1      44.126 -19.512   2.871  1.00  0.00     0.028 C 
HETATM   25  C   UNL     1      43.536 -18.338   3.637  1.00  0.00     0.235 C 
ENDBRANCH  17  19
ENDBRANCH   1  17
TORSDOF 3
ENDMDL
MODEL 8
REMARK VINA RESULT:      -7.8      1.646      3.272
REMARK  3 active torsions:
REMARK  status: ('A' for Active; 'I' for Inactive)
REMARK    1  A    between atoms: C_2  and  N_3 
REMARK    2  A    between atoms: C_2  and  C_10 
REMARK    3  A    between atoms: C_13  and  C_14 
ROOT
HETATM    1  C   UNL     1      40.581 -14.455   0.859  1.00  0.00    -0.028 A 
HETATM    2  C   UNL     1      39.906 -15.442   1.595  1.00  0.00     0.010 A 
HETATM    3  C   UNL     1      40.608 -16.306   2.443  1.00  0.00     0.014 A 
HETATM    4  C   UNL     1      42.001 -16.216   2.584  1.00  0.00    -0.006 A 
HETATM    5  C   UNL     1      42.670 -15.242   1.826  1.00  0.00     0.014 A 
HETATM    6  C   UNL     1      41.976 -14.369   0.981  1.00  0.00     0.010 A 
ENDROOT
BRANCH   4   7
HETATM    7  C   UNL     1      42.754 -17.115   3.461  1.00  0.00     0.082 A 
HETATM    8  N   UNL     1      43.479 -18.102   2.873  1.00  0.00    -0.240 NA
HETATM    9  C   UNL     1      44.173 -18.941   3.666  1.00  0.00     0.236 A 
HETATM   10  N   UNL     1      44.266 -18.922   5.005  1.00  0.00    -0.224 NA
HETATM   11  C   UNL     1      43.556 -17.917   5.536  1.00  0.00     0.141 A 
HETATM   12  C   UNL     1      42.786 -16.984   4.857  1.00  0.00     0.041 A 
HETATM   13  N   UNL     1      43.482 -17.645   6.875  1.00  0.00    -0.350 N 
HETATM   14  C   UNL     1      42.251 -16.108   5.846  1.00  0.00     0.034 A 
HETATM   15  C   UNL     1      42.693 -16.541   7.079  1.00  0.00     0.091 A 
HETATM   16  H   UNL     1      43.956 -18.186   7.586  1.00  0.00     0.166 HD
ENDBRANCH   4   7
BRANCH   1  17
HETATM   17  C   UNL     1      39.796 -13.497  -0.021  1.00  0.00     0.217 C 
HETATM   18  C   UNL     1      40.754 -12.661  -0.876  1.00  0.00     0.045 C 
BRANCH  17  19
HETATM   19  N   UNL     1      38.862 -12.590   0.806  1.00  0.00    -0.063 N 
HETATM   20  H   UNL     1      38.228 -13.222   1.310  1.00  0.00     0.280 HD
HETATM   21  C   UNL     1      39.594 -11.748   1.831  1.00  0.00     0.235 C 
HETATM   22  C   UNL     1      38.601 -10.945   2.661  1.00  0.00     0.028 C 
HETATM   23  C   UNL     1      37.704 -10.078   1.792  1.00  0.00     0.003 C 
HETATM   24  C   UNL     1      37.003 -10.925   0.741  1.00  0.00     0.028 C 
HETATM   25  C   UNL     1      37.994 -11.720  -0.094  1.00  0.00     0.235 C 
ENDBRANCH  17  19
ENDBRANCH   1  17
TORSDOF 3
ENDMDL
MODEL 9
REMARK VINA RESULT:      -7.7      1.746      7.820
REMARK  3 active torsions:
REMARK  status: ('A' for Active; 'I' for Inactive)
REMARK    1  A    between atoms: C_2  and  N_3 
REMARK    2  A    between atoms: C_2  and  C_10 
REMARK    3  A    between atoms: C_13  and  C_14 
ROOT
HETATM    1  C   UNL     1      41.448 -15.251   3.093  1.00  0.00    -0.028 A 
HETATM    2  C   UNL     1      40.311 -15.874   2.554  1.00  0.00     0.010 A 
HETATM    3  C   UNL     1      39.853 -15.540   1.274  1.00  0.00     0.014 A 
HETATM    4  C   UNL     1      40.511 -14.578   0.492  1.00  0.00    -0.006 A 
HETATM    5  C   UNL     1      41.634 -13.945   1.050  1.00  0.00     0.014 A 
HETATM    6  C   UNL     1      42.103 -14.276   2.325  1.00  0.00     0.010 A 
ENDROOT
BRANCH   4   7
HETATM    7  C   UNL     1      40.044 -14.212  -0.846  1.00  0.00     0.082 A 
HETATM    8  N   UNL     1      39.253 -15.103  -1.498  1.00  0.00    -0.240 NA
HETATM    9  C   UNL     1      38.818 -14.782  -2.733  1.00  0.00     0.236 A 
HETATM   10  N   UNL     1      39.052 -13.655  -3.422  1.00  0.00    -0.224 NA
HETATM   11  C   UNL     1      39.814 -12.799  -2.728  1.00  0.00     0.141 A 
HETATM   12  C   UNL     1      40.344 -12.987  -1.460  1.00  0.00     0.041 A 
HETATM   13  N   UNL     1      40.195 -11.563  -3.176  1.00  0.00    -0.350 N 
HETATM   14  C   UNL     1      41.054 -11.793  -1.140  1.00  0.00     0.034 A 
HETATM   15  C   UNL     1      40.949 -10.937  -2.216  1.00  0.00     0.091 A 
HETATM   16  H   UNL     1      39.937 -11.189  -4.079  1.00  0.00     0.166 HD
ENDBRANCH   4   7
BRANCH   1  17
HETATM   17  C   UNL     1      41.956 -15.660   4.466  1.00  0.00     0.217 C 
HETATM   18  C   UNL     1      43.017 -14.667   4.953  1.00  0.00     0.045 C 
BRANCH  17  19
HETATM   19  N   UNL     1      42.506 -17.100   4.471  1.00  0.00    -0.063 N 
HETATM   20  H   UNL     1      41.688 -17.717   4.387  1.00  0.00     0.280 HD
HETATM   21  C   UNL     1      43.432 -17.395   3.308  1.00  0.00     0.235 C 
HETATM   22  C   UNL     1      43.867 -18.854   3.334  1.00  0.00     0.028 C 
HETATM   23  C   UNL     1      44.523 -19.227   4.654  1.00  0.00     0.003 C 
HETATM   24  C   UNL     1      43.603 -18.894   5.818  1.00  0.00     0.028 C 
HETATM   25  C   UNL     1      43.175 -17.434   5.797  1.00  0.00     0.235 C 
ENDBRANCH  17  19
ENDBRANCH   1  17
TORSDOF 3
ENDMDL
MODEL 10
REMARK VINA RESULT:      -7.7      1.399      7.651
REMARK  3 active torsions:
REMARK  status: ('A' for Active; 'I' for Inactive)
REMARK    1  A    between atoms: C_2  and  N_3 
REMARK    2  A    between atoms: C_2  and  C_10 
REMARK    3  A    between atoms: C_13  and  C_14 
ROOT
HETATM    1  C   UNL     1      41.622 -15.269   2.953  1.00  0.00    -0.028 A 
HETATM    2  C   UNL     1      42.383 -14.351   2.211  1.00  0.00     0.010 A 
HETATM    3  C   UNL     1      41.809 -13.640   1.150  1.00  0.00     0.014 A 
HETATM    4  C   UNL     1      40.462 -13.821   0.796  1.00  0.00    -0.006 A 
HETATM    5  C   UNL     1      39.717 -14.758   1.529  1.00  0.00     0.014 A 
HETATM    6  C   UNL     1      40.280 -15.468   2.595  1.00  0.00     0.010 A 
ENDROOT
BRANCH   4   7
HETATM    7  C   UNL     1      39.846 -13.091  -0.313  1.00  0.00     0.082 A 
HETATM    8  N   UNL     1      39.860 -11.733  -0.254  1.00  0.00    -0.240 NA
HETATM    9  C   UNL     1      39.292 -11.047  -1.265  1.00  0.00     0.236 A 
HETATM   10  N   UNL     1      38.712 -11.538  -2.372  1.00  0.00    -0.224 NA
HETATM   11  C   UNL     1      38.746 -12.877  -2.396  1.00  0.00     0.141 A 
HETATM   12  C   UNL     1      39.282 -13.720  -1.432  1.00  0.00     0.041 A 
HETATM   13  N   UNL     1      38.246 -13.645  -3.411  1.00  0.00    -0.350 N 
HETATM   14  C   UNL     1      39.104 -15.049  -1.917  1.00  0.00     0.034 A 
HETATM   15  C   UNL     1      38.461 -14.972  -3.136  1.00  0.00     0.091 A 
HETATM   16  H   UNL     1      37.799 -13.266  -4.235  1.00  0.00     0.166 HD
ENDBRANCH   4   7
BRANCH   1  17
HETATM   17  C   UNL     1      42.251 -15.997   4.129  1.00  0.00     0.217 C 
HETATM   18  C   UNL     1      43.054 -15.014   4.989  1.00  0.00     0.045 C 
BRANCH  17  19
HETATM   19  N   UNL     1      43.134 -17.176   3.671  1.00  0.00    -0.063 N 
HETATM   20  H   UNL     1      43.961 -16.756   3.230  1.00  0.00     0.280 HD
HETATM   21  C   UNL     1      43.608 -18.051   4.813  1.00  0.00     0.235 C 
HETATM   22  C   UNL     1      44.538 -19.140   4.294  1.00  0.00     0.028 C 
HETATM   23  C   UNL     1      43.882 -19.977   3.208  1.00  0.00     0.003 C 
HETATM   24  C   UNL     1      43.374 -19.089   2.083  1.00  0.00     0.028 C 
HETATM   25  C   UNL     1      42.438 -18.006   2.601  1.00  0.00     0.235 C 
ENDBRANCH  17  19
ENDBRANCH   1  17
TORSDOF 3
ENDMDL
