MODEL 1
REMARK VINA RESULT:      -8.7      0.000      0.000
REMARK  8 active torsions:
REMARK  status: ('A' for Active; 'I' for Inactive)
REMARK    1  A    between atoms: C_2  and  N_3 
REMARK    2  A    between atoms: N_3  and  N_4 
REMARK       I    between atoms: N_4  and  C_5 
REMARK    3  A    between atoms: C_5  and  C_6 
REMARK       I    between atoms: C_6  and  N_7 
REMARK    4  A    between atoms: N_7  and  C_8 
REMARK    5  A    between atoms: C_8  and  C_9 
REMARK    6  A    between atoms: C_17  and  C_18 
REMARK       I    between atoms: C_18  and  N_19 
REMARK    7  A    between atoms: N_19  and  C_20 
REMARK    8  A    between atoms: C_21  and  O_22 
ROOT
HETATM    1  N   UNL     1      41.057 -13.584   6.283  1.00  0.00    -0.302 N 
HETATM    2  H   UNL     1      40.703 -12.823   5.690  1.00  0.00     0.186 HD
ENDROOT
BRANCH   1   3
HETATM    3  C   UNL     1      40.741 -14.855   5.837  1.00  0.00     0.027 C 
HETATM    4  C   UNL     1      39.897 -15.646   6.820  1.00  0.00     0.070 C 
HETATM    5  C   UNL     1      41.109 -15.478   4.697  1.00  0.00     0.100 C 
BRANCH   5   6
HETATM    6  C   UNL     1      42.011 -14.974   3.624  1.00  0.00     0.247 C 
HETATM    7  N   UNL     1      43.098 -15.729   3.281  1.00  0.00    -0.321 N 
HETATM    8  H   UNL     1      43.812 -15.183   2.807  1.00  0.00     0.169 HD
HETATM    9  O   UNL     1      41.893 -13.852   3.135  1.00  0.00    -0.268 OA
BRANCH   7  10
HETATM   10  C   UNL     1      43.412 -17.088   3.461  1.00  0.00     0.070 A 
HETATM   11  C   UNL     1      44.007 -17.469   4.676  1.00  0.00     0.095 A 
HETATM   12  C   UNL     1      44.426 -18.782   4.895  1.00  0.00     0.041 A 
HETATM   13  C   UNL     1      44.231 -19.740   3.902  1.00  0.00     0.026 A 
HETATM   14  C   UNL     1      43.644 -19.370   2.694  1.00  0.00     0.036 A 
HETATM   15 CL   UNL     1      43.433 -20.550   1.457  1.00  0.00    -0.084 Cl
HETATM   16  C   UNL     1      43.242 -18.050   2.464  1.00  0.00     0.056 A 
BRANCH  11  17
HETATM   17  O   UNL     1      44.216 -16.565   5.688  1.00  0.00    -0.354 OA
HETATM   18  C   UNL     1      43.694 -17.055   6.927  1.00  0.00     0.210 C 
ENDBRANCH  11  17
ENDBRANCH   7  10
ENDBRANCH   5   6
ENDBRANCH   1   3
BRANCH   1  19
HETATM   19  N   UNL     1      42.286 -13.258   6.862  1.00  0.00    -0.262 N 
HETATM   20  C   UNL     1      42.934 -12.138   6.381  1.00  0.00     0.327 C 
HETATM   21  O   UNL     1      42.632 -11.524   5.362  1.00  0.00    -0.261 OA
HETATM   22  H   UNL     1      42.440 -13.561   7.832  1.00  0.00     0.190 HD
BRANCH  20  23
HETATM   23  C   UNL     1      44.113 -11.664   7.251  1.00  0.00     0.311 C 
HETATM   24  N   UNL     1      43.721 -10.950   8.359  1.00  0.00    -0.349 N 
HETATM   25  H   UNL     1      42.723 -10.870   8.536  1.00  0.00     0.163 HD
HETATM   26  O   UNL     1      45.268 -11.925   6.948  1.00  0.00    -0.262 OA
BRANCH  24  27
HETATM   27  C   UNL     1      44.671 -10.480   9.332  1.00  0.00     0.161 C 
BRANCH  27  28
HETATM   28  C   UNL     1      43.977  -9.937  10.551  1.00  0.00    -0.041 A 
HETATM   29  C   UNL     1      43.816  -8.557  10.731  1.00  0.00     0.009 A 
HETATM   30  C   UNL     1      43.180  -8.061  11.871  1.00  0.00     0.001 A 
HETATM   31  C   UNL     1      42.706  -8.937  12.844  1.00  0.00     0.000 A 
HETATM   32  C   UNL     1      42.867 -10.312  12.681  1.00  0.00     0.001 A 
HETATM   33  C   UNL     1      43.499 -10.809  11.541  1.00  0.00     0.009 A 
ENDBRANCH  27  28
ENDBRANCH  24  27
ENDBRANCH  20  23
ENDBRANCH   1  19
TORSDOF 8
ENDMDL
MODEL 2
REMARK VINA RESULT:      -8.5      4.155      7.810
REMARK  8 active torsions:
REMARK  status: ('A' for Active; 'I' for Inactive)
REMARK    1  A    between atoms: C_2  and  N_3 
REMARK    2  A    between atoms: N_3  and  N_4 
REMARK       I    between atoms: N_4  and  C_5 
REMARK    3  A    between atoms: C_5  and  C_6 
REMARK       I    between atoms: C_6  and  N_7 
REMARK    4  A    between atoms: N_7  and  C_8 
REMARK    5  A    between atoms: C_8  and  C_9 
REMARK    6  A    between atoms: C_17  and  C_18 
REMARK       I    between atoms: C_18  and  N_19 
REMARK    7  A    between atoms: N_19  and  C_20 
REMARK    8  A    between atoms: C_21  and  O_22 
ROOT
HETATM    1  N   UNL     1      42.218 -12.725   6.770  1.00  0.00    -0.302 N 
HETATM    2  H   UNL     1      42.232 -12.083   7.572  1.00  0.00     0.186 HD
ENDROOT
BRANCH   1   3
HETATM    3  C   UNL     1      42.096 -12.105   5.538  1.00  0.00     0.027 C 
HETATM    4  C   UNL     1      43.309 -11.274   5.161  1.00  0.00     0.070 C 
HETATM    5  C   UNL     1      41.057 -12.111   4.677  1.00  0.00     0.100 C 
BRANCH   5   6
HETATM    6  C   UNL     1      39.723 -12.750   4.850  1.00  0.00     0.247 C 
HETATM    7  N   UNL     1      39.039 -13.141   3.733  1.00  0.00    -0.321 N 
HETATM    8  H   UNL     1      38.044 -13.251   3.908  1.00  0.00     0.169 HD
HETATM    9  O   UNL     1      39.158 -12.814   5.941  1.00  0.00    -0.268 OA
BRANCH   7  10
HETATM   10  C   UNL     1      39.443 -13.410   2.413  1.00  0.00     0.070 A 
HETATM   11  C   UNL     1      39.843 -14.721   2.103  1.00  0.00     0.095 A 
HETATM   12  C   UNL     1      40.338 -15.046   0.840  1.00  0.00     0.041 A 
HETATM   13  C   UNL     1      40.418 -14.061  -0.142  1.00  0.00     0.026 A 
HETATM   14  C   UNL     1      40.026 -12.757   0.158  1.00  0.00     0.036 A 
HETATM   15 CL   UNL     1      40.155 -11.535  -1.048  1.00  0.00    -0.084 Cl
HETATM   16  C   UNL     1      39.548 -12.424   1.429  1.00  0.00     0.056 A 
BRANCH  11  17
HETATM   17  O   UNL     1      39.778 -15.731   3.032  1.00  0.00    -0.354 OA
HETATM   18  C   UNL     1      41.086 -16.216   3.351  1.00  0.00     0.210 C 
ENDBRANCH  11  17
ENDBRANCH   7  10
ENDBRANCH   5   6
ENDBRANCH   1   3
BRANCH   1  19
HETATM   19  N   UNL     1      43.030 -13.842   6.988  1.00  0.00    -0.262 N 
HETATM   20  C   UNL     1      42.440 -15.084   6.872  1.00  0.00     0.327 C 
HETATM   21  O   UNL     1      41.233 -15.295   6.797  1.00  0.00    -0.261 OA
HETATM   22  H   UNL     1      44.034 -13.733   6.798  1.00  0.00     0.190 HD
BRANCH  20  23
HETATM   23  C   UNL     1      43.436 -16.258   6.821  1.00  0.00     0.311 C 
HETATM   24  N   UNL     1      43.857 -16.563   5.547  1.00  0.00    -0.349 N 
HETATM   25  H   UNL     1      43.542 -15.958   4.793  1.00  0.00     0.163 HD
HETATM   26  O   UNL     1      43.793 -16.829   7.841  1.00  0.00    -0.262 OA
BRANCH  24  27
HETATM   27  C   UNL     1      44.839 -17.583   5.298  1.00  0.00     0.161 C 
BRANCH  27  28
HETATM   28  C   UNL     1      44.332 -18.597   4.309  1.00  0.00    -0.041 A 
HETATM   29  C   UNL     1      43.895 -18.202   3.038  1.00  0.00     0.009 A 
HETATM   30  C   UNL     1      43.415 -19.149   2.129  1.00  0.00     0.001 A 
HETATM   31  C   UNL     1      43.361 -20.494   2.485  1.00  0.00     0.000 A 
HETATM   32  C   UNL     1      43.785 -20.898   3.749  1.00  0.00     0.001 A 
HETATM   33  C   UNL     1      44.267 -19.955   4.657  1.00  0.00     0.009 A 
ENDBRANCH  27  28
ENDBRANCH  24  27
ENDBRANCH  20  23
ENDBRANCH   1  19
TORSDOF 8
ENDMDL
MODEL 3
REMARK VINA RESULT:      -8.5      4.100      7.389
REMARK  8 active torsions:
REMARK  status: ('A' for Active; 'I' for Inactive)
REMARK    1  A    between atoms: C_2  and  N_3 
REMARK    2  A    between atoms: N_3  and  N_4 
REMARK       I    between atoms: N_4  and  C_5 
REMARK    3  A    between atoms: C_5  and  C_6 
REMARK       I    between atoms: C_6  and  N_7 
REMARK    4  A    between atoms: N_7  and  C_8 
REMARK    5  A    between atoms: C_8  and  C_9 
REMARK    6  A    between atoms: C_17  and  C_18 
REMARK       I    between atoms: C_18  and  N_19 
REMARK    7  A    between atoms: N_19  and  C_20 
REMARK    8  A    between atoms: C_21  and  O_22 
ROOT
HETATM    1  N   UNL     1      41.441 -12.198   6.271  1.00  0.00    -0.302 N 
HETATM    2  H   UNL     1      42.272 -11.772   6.701  1.00  0.00     0.186 HD
ENDROOT
BRANCH   1   3
HETATM    3  C   UNL     1      40.914 -11.486   5.208  1.00  0.00     0.027 C 
HETATM    4  C   UNL     1      39.508 -10.975   5.467  1.00  0.00     0.070 C 
HETATM    5  C   UNL     1      41.453 -11.230   3.998  1.00  0.00     0.100 C 
BRANCH   5   6
HETATM    6  C   UNL     1      42.757 -11.701   3.455  1.00  0.00     0.247 C 
HETATM    7  N   UNL     1      42.759 -12.769   2.602  1.00  0.00    -0.321 N 
HETATM    8  H   UNL     1      43.669 -13.218   2.547  1.00  0.00     0.169 HD
HETATM    9  O   UNL     1      43.835 -11.256   3.847  1.00  0.00    -0.268 OA
BRANCH   7  10
HETATM   10  C   UNL     1      41.759 -13.357   1.806  1.00  0.00     0.070 A 
HETATM   11  C   UNL     1      41.184 -14.558   2.254  1.00  0.00     0.095 A 
HETATM   12  C   UNL     1      40.250 -15.246   1.479  1.00  0.00     0.041 A 
HETATM   13  C   UNL     1      39.861 -14.723   0.247  1.00  0.00     0.026 A 
HETATM   14  C   UNL     1      40.428 -13.533  -0.206  1.00  0.00     0.036 A 
HETATM   15 CL   UNL     1      39.967 -12.905  -1.742  1.00  0.00    -0.084 Cl
HETATM   16  C   UNL     1      41.380 -12.853   0.560  1.00  0.00     0.056 A 
BRANCH  11  17
HETATM   17  O   UNL     1      41.529 -15.113   3.462  1.00  0.00    -0.354 OA
HETATM   18  C   UNL     1      40.592 -16.122   3.847  1.00  0.00     0.210 C 
ENDBRANCH  11  17
ENDBRANCH   7  10
ENDBRANCH   5   6
ENDBRANCH   1   3
BRANCH   1  19
HETATM   19  N   UNL     1      41.503 -13.594   6.303  1.00  0.00    -0.262 N 
HETATM   20  C   UNL     1      42.750 -14.169   6.437  1.00  0.00     0.327 C 
HETATM   21  O   UNL     1      43.822 -13.579   6.327  1.00  0.00    -0.261 OA
HETATM   22  H   UNL     1      40.672 -14.090   6.647  1.00  0.00     0.190 HD
BRANCH  20  23
HETATM   23  C   UNL     1      42.724 -15.673   6.769  1.00  0.00     0.311 C 
HETATM   24  N   UNL     1      43.722 -16.386   6.144  1.00  0.00    -0.349 N 
HETATM   25  H   UNL     1      44.404 -15.862   5.603  1.00  0.00     0.163 HD
HETATM   26  O   UNL     1      41.884 -16.141   7.522  1.00  0.00    -0.262 OA
BRANCH  24  27
HETATM   27  C   UNL     1      43.907 -17.793   6.380  1.00  0.00     0.161 C 
BRANCH  27  28
HETATM   28  C   UNL     1      43.842 -18.573   5.095  1.00  0.00    -0.041 A 
HETATM   29  C   UNL     1      43.974 -19.968   5.095  1.00  0.00     0.009 A 
HETATM   30  C   UNL     1      43.923 -20.683   3.897  1.00  0.00     0.001 A 
HETATM   31  C   UNL     1      43.747 -20.012   2.689  1.00  0.00     0.000 A 
HETATM   32  C   UNL     1      43.623 -18.624   2.675  1.00  0.00     0.001 A 
HETATM   33  C   UNL     1      43.670 -17.908   3.871  1.00  0.00     0.009 A 
ENDBRANCH  27  28
ENDBRANCH  24  27
ENDBRANCH  20  23
ENDBRANCH   1  19
TORSDOF 8
ENDMDL
MODEL 4
REMARK VINA RESULT:      -8.5      5.146      8.594
REMARK  8 active torsions:
REMARK  status: ('A' for Active; 'I' for Inactive)
REMARK    1  A    between atoms: C_2  and  N_3 
REMARK    2  A    between atoms: N_3  and  N_4 
REMARK       I    between atoms: N_4  and  C_5 
REMARK    3  A    between atoms: C_5  and  C_6 
REMARK       I    between atoms: C_6  and  N_7 
REMARK    4  A    between atoms: N_7  and  C_8 
REMARK    5  A    between atoms: C_8  and  C_9 
REMARK    6  A    between atoms: C_17  and  C_18 
REMARK       I    between atoms: C_18  and  N_19 
REMARK    7  A    between atoms: N_19  and  C_20 
REMARK    8  A    between atoms: C_21  and  O_22 
ROOT
HETATM    1  N   UNL     1      39.625 -13.495   4.759  1.00  0.00    -0.302 N 
HETATM    2  H   UNL     1      39.129 -13.154   5.592  1.00  0.00     0.186 HD
ENDROOT
BRANCH   1   3
HETATM    3  C   UNL     1      39.490 -12.691   3.640  1.00  0.00     0.027 C 
HETATM    4  C   UNL     1      39.155 -11.248   3.974  1.00  0.00     0.070 C 
HETATM    5  C   UNL     1      39.576 -13.020   2.335  1.00  0.00     0.100 C 
BRANCH   5   6
HETATM    6  C   UNL     1      39.786 -14.368   1.738  1.00  0.00     0.247 C 
HETATM    7  N   UNL     1      39.835 -14.477   0.376  1.00  0.00    -0.321 N 
HETATM    8  H   UNL     1      39.650 -15.424   0.058  1.00  0.00     0.169 HD
HETATM    9  O   UNL     1      39.780 -15.397   2.413  1.00  0.00    -0.268 OA
BRANCH   7  10
HETATM   10  C   UNL     1      40.085 -13.545  -0.647  1.00  0.00     0.070 A 
HETATM   11  C   UNL     1      39.653 -13.864  -1.946  1.00  0.00     0.095 A 
HETATM   12  C   UNL     1      39.940 -13.031  -3.028  1.00  0.00     0.041 A 
HETATM   13  C   UNL     1      40.647 -11.849  -2.817  1.00  0.00     0.026 A 
HETATM   14  C   UNL     1      41.081 -11.526  -1.533  1.00  0.00     0.036 A 
HETATM   15 CL   UNL     1      41.981 -10.080  -1.280  1.00  0.00    -0.084 Cl
HETATM   16  C   UNL     1      40.813 -12.369  -0.449  1.00  0.00     0.056 A 
BRANCH  11  17
HETATM   17  O   UNL     1      38.948 -15.013  -2.206  1.00  0.00    -0.354 OA
HETATM   18  C   UNL     1      38.215 -14.897  -3.429  1.00  0.00     0.210 C 
ENDBRANCH  11  17
ENDBRANCH   7  10
ENDBRANCH   5   6
ENDBRANCH   1   3
BRANCH   1  19
HETATM   19  N   UNL     1      40.814 -14.145   5.096  1.00  0.00    -0.262 N 
HETATM   20  C   UNL     1      40.748 -15.117   6.073  1.00  0.00     0.327 C 
HETATM   21  O   UNL     1      39.789 -15.319   6.813  1.00  0.00    -0.261 OA
HETATM   22  H   UNL     1      41.538 -14.201   4.368  1.00  0.00     0.190 HD
BRANCH  20  23
HETATM   23  C   UNL     1      42.008 -15.996   6.182  1.00  0.00     0.311 C 
HETATM   24  N   UNL     1      42.735 -16.054   5.016  1.00  0.00    -0.349 N 
HETATM   25  H   UNL     1      42.426 -15.472   4.241  1.00  0.00     0.163 HD
HETATM   26  O   UNL     1      42.296 -16.564   7.225  1.00  0.00    -0.262 OA
BRANCH  24  27
HETATM   27  C   UNL     1      43.981 -16.768   4.935  1.00  0.00     0.161 C 
BRANCH  27  28
HETATM   28  C   UNL     1      43.828 -18.042   4.148  1.00  0.00    -0.041 A 
HETATM   29  C   UNL     1      43.325 -18.021   2.841  1.00  0.00     0.009 A 
HETATM   30  C   UNL     1      43.176 -19.208   2.121  1.00  0.00     0.001 A 
HETATM   31  C   UNL     1      43.521 -20.426   2.702  1.00  0.00     0.000 A 
HETATM   32  C   UNL     1      44.015 -20.461   4.005  1.00  0.00     0.001 A 
HETATM   33  C   UNL     1      44.167 -19.275   4.725  1.00  0.00     0.009 A 
ENDBRANCH  27  28
ENDBRANCH  24  27
ENDBRANCH  20  23
ENDBRANCH   1  19
TORSDOF 8
ENDMDL
MODEL 5
REMARK VINA RESULT:      -8.4      2.243      3.343
REMARK  8 active torsions:
REMARK  status: ('A' for Active; 'I' for Inactive)
REMARK    1  A    between atoms: C_2  and  N_3 
REMARK    2  A    between atoms: N_3  and  N_4 
REMARK       I    between atoms: N_4  and  C_5 
REMARK    3  A    between atoms: C_5  and  C_6 
REMARK       I    between atoms: C_6  and  N_7 
REMARK    4  A    between atoms: N_7  and  C_8 
REMARK    5  A    between atoms: C_8  and  C_9 
REMARK    6  A    between atoms: C_17  and  C_18 
REMARK       I    between atoms: C_18  and  N_19 
REMARK    7  A    between atoms: N_19  and  C_20 
REMARK    8  A    between atoms: C_21  and  O_22 
ROOT
HETATM    1  N   UNL     1      42.890 -11.653   6.824  1.00  0.00    -0.302 N 
HETATM    2  H   UNL     1      42.544 -10.721   6.563  1.00  0.00     0.186 HD
ENDROOT
BRANCH   1   3
HETATM    3  C   UNL     1      43.405 -12.390   5.772  1.00  0.00     0.027 C 
HETATM    4  C   UNL     1      43.898 -11.533   4.621  1.00  0.00     0.070 C 
HETATM    5  C   UNL     1      43.486 -13.729   5.625  1.00  0.00     0.100 C 
BRANCH   5   6
HETATM    6  C   UNL     1      42.984 -14.787   6.546  1.00  0.00     0.247 C 
HETATM    7  N   UNL     1      42.266 -15.823   6.016  1.00  0.00    -0.321 N 
HETATM    8  H   UNL     1      41.700 -16.296   6.715  1.00  0.00     0.169 HD
HETATM    9  O   UNL     1      43.073 -14.695   7.769  1.00  0.00    -0.268 OA
BRANCH   7  10
HETATM   10  C   UNL     1      42.160 -16.344   4.714  1.00  0.00     0.070 A 
HETATM   11  C   UNL     1      43.133 -17.267   4.294  1.00  0.00     0.095 A 
HETATM   12  C   UNL     1      43.146 -17.761   2.990  1.00  0.00     0.041 A 
HETATM   13  C   UNL     1      42.164 -17.351   2.090  1.00  0.00     0.026 A 
HETATM   14  C   UNL     1      41.197 -16.434   2.497  1.00  0.00     0.036 A 
HETATM   15 CL   UNL     1      40.003 -15.907   1.374  1.00  0.00    -0.084 Cl
HETATM   16  C   UNL     1      41.194 -15.922   3.798  1.00  0.00     0.056 A 
BRANCH  11  17
HETATM   17  O   UNL     1      44.119 -17.707   5.144  1.00  0.00    -0.354 OA
HETATM   18  C   UNL     1      43.945 -19.092   5.454  1.00  0.00     0.210 C 
ENDBRANCH  11  17
ENDBRANCH   7  10
ENDBRANCH   5   6
ENDBRANCH   1   3
BRANCH   1  19
HETATM   19  N   UNL     1      43.444 -11.658   8.107  1.00  0.00    -0.262 N 
HETATM   20  C   UNL     1      43.674 -10.433   8.700  1.00  0.00     0.327 C 
HETATM   21  O   UNL     1      43.628  -9.346   8.131  1.00  0.00    -0.261 OA
HETATM   22  H   UNL     1      43.260 -12.482   8.691  1.00  0.00     0.190 HD
BRANCH  20  23
HETATM   23  C   UNL     1      43.993 -10.507  10.206  1.00  0.00     0.311 C 
HETATM   24  N   UNL     1      42.874 -10.455  11.004  1.00  0.00    -0.349 N 
HETATM   25  H   UNL     1      41.968 -10.451  10.541  1.00  0.00     0.163 HD
HETATM   26  O   UNL     1      45.144 -10.605  10.604  1.00  0.00    -0.262 OA
BRANCH  24  27
HETATM   27  C   UNL     1      42.958 -10.579  12.434  1.00  0.00     0.161 C 
BRANCH  27  28
HETATM   28  C   UNL     1      42.546  -9.302  13.116  1.00  0.00    -0.041 A 
HETATM   29  C   UNL     1      43.337  -8.150  13.018  1.00  0.00     0.009 A 
HETATM   30  C   UNL     1      42.953  -6.972  13.662  1.00  0.00     0.001 A 
HETATM   31  C   UNL     1      41.781  -6.936  14.415  1.00  0.00     0.000 A 
HETATM   32  C   UNL     1      40.990  -8.078  14.526  1.00  0.00     0.001 A 
HETATM   33  C   UNL     1      41.371  -9.255  13.881  1.00  0.00     0.009 A 
ENDBRANCH  27  28
ENDBRANCH  24  27
ENDBRANCH  20  23
ENDBRANCH   1  19
TORSDOF 8
ENDMDL
MODEL 6
REMARK VINA RESULT:      -8.2      2.368      3.560
REMARK  8 active torsions:
REMARK  status: ('A' for Active; 'I' for Inactive)
REMARK    1  A    between atoms: C_2  and  N_3 
REMARK    2  A    between atoms: N_3  and  N_4 
REMARK       I    between atoms: N_4  and  C_5 
REMARK    3  A    between atoms: C_5  and  C_6 
REMARK       I    between atoms: C_6  and  N_7 
REMARK    4  A    between atoms: N_7  and  C_8 
REMARK    5  A    between atoms: C_8  and  C_9 
REMARK    6  A    between atoms: C_17  and  C_18 
REMARK       I    between atoms: C_18  and  N_19 
REMARK    7  A    between atoms: N_19  and  C_20 
REMARK    8  A    between atoms: C_21  and  O_22 
ROOT
HETATM    1  N   UNL     1      41.481 -10.773   6.333  1.00  0.00    -0.302 N 
HETATM    2  H   UNL     1      41.127  -9.811   6.264  1.00  0.00     0.186 HD
ENDROOT
BRANCH   1   3
HETATM    3  C   UNL     1      41.628 -11.420   5.118  1.00  0.00     0.027 C 
HETATM    4  C   UNL     1      42.411 -10.614   4.098  1.00  0.00     0.070 C 
HETATM    5  C   UNL     1      41.147 -12.617   4.723  1.00  0.00     0.100 C 
BRANCH   5   6
HETATM    6  C   UNL     1      40.270 -13.551   5.482  1.00  0.00     0.247 C 
HETATM    7  N   UNL     1      40.266 -14.872   5.130  1.00  0.00    -0.321 N 
HETATM    8  H   UNL     1      39.433 -15.355   5.452  1.00  0.00     0.169 HD
HETATM    9  O   UNL     1      39.454 -13.160   6.316  1.00  0.00    -0.268 OA
BRANCH   7  10
HETATM   10  C   UNL     1      41.177 -15.671   4.415  1.00  0.00     0.070 A 
HETATM   11  C   UNL     1      40.882 -15.962   3.072  1.00  0.00     0.095 A 
HETATM   12  C   UNL     1      41.691 -16.818   2.323  1.00  0.00     0.041 A 
HETATM   13  C   UNL     1      42.824 -17.379   2.908  1.00  0.00     0.026 A 
HETATM   14  C   UNL     1      43.123 -17.098   4.240  1.00  0.00     0.036 A 
HETATM   15 CL   UNL     1      44.507 -17.817   4.969  1.00  0.00    -0.084 Cl
HETATM   16  C   UNL     1      42.302 -16.257   4.999  1.00  0.00     0.056 A 
BRANCH  11  17
HETATM   17  O   UNL     1      39.781 -15.430   2.447  1.00  0.00    -0.354 OA
HETATM   18  C   UNL     1      40.055 -15.161   1.069  1.00  0.00     0.210 C 
ENDBRANCH  11  17
ENDBRANCH   7  10
ENDBRANCH   5   6
ENDBRANCH   1   3
BRANCH   1  19
HETATM   19  N   UNL     1      42.383 -10.916   7.391  1.00  0.00    -0.262 N 
HETATM   20  C   UNL     1      42.880  -9.761   7.958  1.00  0.00     0.327 C 
HETATM   21  O   UNL     1      42.764  -8.631   7.491  1.00  0.00    -0.261 OA
HETATM   22  H   UNL     1      42.307 -11.771   7.956  1.00  0.00     0.190 HD
BRANCH  20  23
HETATM   23  C   UNL     1      43.616  -9.975   9.294  1.00  0.00     0.311 C 
HETATM   24  N   UNL     1      42.770 -10.233  10.348  1.00  0.00    -0.349 N 
HETATM   25  H   UNL     1      41.780 -10.330  10.141  1.00  0.00     0.163 HD
HETATM   26  O   UNL     1      44.835  -9.917   9.362  1.00  0.00    -0.262 OA
BRANCH  24  27
HETATM   27  C   UNL     1      43.270 -10.528  11.664  1.00  0.00     0.161 C 
BRANCH  27  28
HETATM   28  C   UNL     1      42.892  -9.451  12.644  1.00  0.00    -0.041 A 
HETATM   29  C   UNL     1      43.538  -8.208  12.628  1.00  0.00     0.009 A 
HETATM   30  C   UNL     1      43.189  -7.216  13.547  1.00  0.00     0.001 A 
HETATM   31  C   UNL     1      42.197  -7.459  14.494  1.00  0.00     0.000 A 
HETATM   32  C   UNL     1      41.552  -8.694  14.526  1.00  0.00     0.001 A 
HETATM   33  C   UNL     1      41.897  -9.685  13.606  1.00  0.00     0.009 A 
ENDBRANCH  27  28
ENDBRANCH  24  27
ENDBRANCH  20  23
ENDBRANCH   1  19
TORSDOF 8
ENDMDL
MODEL 7
REMARK VINA RESULT:      -8.2      2.909      4.153
REMARK  8 active torsions:
REMARK  status: ('A' for Active; 'I' for Inactive)
REMARK    1  A    between atoms: C_2  and  N_3 
REMARK    2  A    between atoms: N_3  and  N_4 
REMARK       I    between atoms: N_4  and  C_5 
REMARK    3  A    between atoms: C_5  and  C_6 
REMARK       I    between atoms: C_6  and  N_7 
REMARK    4  A    between atoms: N_7  and  C_8 
REMARK    5  A    between atoms: C_8  and  C_9 
REMARK    6  A    between atoms: C_17  and  C_18 
REMARK       I    between atoms: C_18  and  N_19 
REMARK    7  A    between atoms: N_19  and  C_20 
REMARK    8  A    between atoms: C_21  and  O_22 
ROOT
HETATM    1  N   UNL     1      40.572 -10.617   5.794  1.00  0.00    -0.302 N 
HETATM    2  H   UNL     1      40.544  -9.651   5.446  1.00  0.00     0.186 HD
ENDROOT
BRANCH   1   3
HETATM    3  C   UNL     1      41.391 -11.466   5.069  1.00  0.00     0.027 C 
HETATM    4  C   UNL     1      42.419 -10.735   4.227  1.00  0.00     0.070 C 
HETATM    5  C   UNL     1      41.367 -12.813   4.986  1.00  0.00     0.100 C 
BRANCH   5   6
HETATM    6  C   UNL     1      40.404 -13.756   5.618  1.00  0.00     0.247 C 
HETATM    7  N   UNL     1      40.308 -15.024   5.114  1.00  0.00    -0.321 N 
HETATM    8  H   UNL     1      39.433 -15.474   5.366  1.00  0.00     0.169 HD
HETATM    9  O   UNL     1      39.601 -13.401   6.480  1.00  0.00    -0.268 OA
BRANCH   7  10
HETATM   10  C   UNL     1      41.171 -15.804   4.324  1.00  0.00     0.070 A 
HETATM   11  C   UNL     1      40.836 -15.990   2.972  1.00  0.00     0.095 A 
HETATM   12  C   UNL     1      41.594 -16.821   2.147  1.00  0.00     0.041 A 
HETATM   13  C   UNL     1      42.718 -17.462   2.663  1.00  0.00     0.026 A 
HETATM   14  C   UNL     1      43.057 -17.285   4.004  1.00  0.00     0.036 A 
HETATM   15 CL   UNL     1      44.429 -18.102   4.647  1.00  0.00    -0.084 Cl
HETATM   16  C   UNL     1      42.286 -16.469   4.838  1.00  0.00     0.056 A 
BRANCH  11  17
HETATM   17  O   UNL     1      39.742 -15.377   2.412  1.00  0.00    -0.354 OA
HETATM   18  C   UNL     1      40.142 -14.353   1.497  1.00  0.00     0.210 C 
ENDBRANCH  11  17
ENDBRANCH   7  10
ENDBRANCH   5   6
ENDBRANCH   1   3
BRANCH   1  19
HETATM   19  N   UNL     1      40.457 -10.668   7.186  1.00  0.00    -0.262 N 
HETATM   20  C   UNL     1      39.415  -9.969   7.759  1.00  0.00     0.327 C 
HETATM   21  O   UNL     1      38.708  -9.146   7.184  1.00  0.00    -0.261 OA
HETATM   22  H   UNL     1      40.832 -11.502   7.655  1.00  0.00     0.190 HD
BRANCH  20  23
HETATM   23  C   UNL     1      39.162 -10.307   9.241  1.00  0.00     0.311 C 
HETATM   24  N   UNL     1      40.055  -9.707  10.098  1.00  0.00    -0.349 N 
HETATM   25  H   UNL     1      40.728  -9.059   9.695  1.00  0.00     0.163 HD
HETATM   26  O   UNL     1      38.241 -11.037   9.575  1.00  0.00    -0.262 OA
BRANCH  24  27
HETATM   27  C   UNL     1      39.943  -9.844  11.525  1.00  0.00     0.161 C 
BRANCH  27  28
HETATM   28  C   UNL     1      41.077  -9.147  12.228  1.00  0.00    -0.041 A 
HETATM   29  C   UNL     1      40.915  -8.643  13.526  1.00  0.00     0.009 A 
HETATM   30  C   UNL     1      41.968  -7.988  14.167  1.00  0.00     0.001 A 
HETATM   31  C   UNL     1      43.190  -7.826  13.517  1.00  0.00     0.000 A 
HETATM   32  C   UNL     1      43.361  -8.316  12.224  1.00  0.00     0.001 A 
HETATM   33  C   UNL     1      42.310  -8.972  11.582  1.00  0.00     0.009 A 
ENDBRANCH  27  28
ENDBRANCH  24  27
ENDBRANCH  20  23
ENDBRANCH   1  19
TORSDOF 8
ENDMDL
MODEL 8
REMARK VINA RESULT:      -8.1      2.159      2.988
REMARK  8 active torsions:
REMARK  status: ('A' for Active; 'I' for Inactive)
REMARK    1  A    between atoms: C_2  and  N_3 
REMARK    2  A    between atoms: N_3  and  N_4 
REMARK       I    between atoms: N_4  and  C_5 
REMARK    3  A    between atoms: C_5  and  C_6 
REMARK       I    between atoms: C_6  and  N_7 
REMARK    4  A    between atoms: N_7  and  C_8 
REMARK    5  A    between atoms: C_8  and  C_9 
REMARK    6  A    between atoms: C_17  and  C_18 
REMARK       I    between atoms: C_18  and  N_19 
REMARK    7  A    between atoms: N_19  and  C_20 
REMARK    8  A    between atoms: C_21  and  O_22 
ROOT
HETATM    1  N   UNL     1      41.724 -11.142   6.761  1.00  0.00    -0.302 N 
HETATM    2  H   UNL     1      40.873 -10.584   6.612  1.00  0.00     0.186 HD
ENDROOT
BRANCH   1   3
HETATM    3  C   UNL     1      42.128 -11.879   5.662  1.00  0.00     0.027 C 
HETATM    4  C   UNL     1      43.270 -11.238   4.895  1.00  0.00     0.070 C 
HETATM    5  C   UNL     1      41.628 -13.035   5.176  1.00  0.00     0.100 C 
BRANCH   5   6
HETATM    6  C   UNL     1      40.454 -13.808   5.669  1.00  0.00     0.247 C 
HETATM    7  N   UNL     1      40.418 -15.155   5.437  1.00  0.00    -0.321 N 
HETATM    8  H   UNL     1      39.478 -15.532   5.501  1.00  0.00     0.169 HD
HETATM    9  O   UNL     1      39.461 -13.265   6.152  1.00  0.00    -0.268 OA
BRANCH   7  10
HETATM   10  C   UNL     1      41.417 -16.097   5.129  1.00  0.00     0.070 A 
HETATM   11  C   UNL     1      42.194 -16.600   6.186  1.00  0.00     0.095 A 
HETATM   12  C   UNL     1      43.258 -17.470   5.951  1.00  0.00     0.041 A 
HETATM   13  C   UNL     1      43.545 -17.868   4.646  1.00  0.00     0.026 A 
HETATM   14  C   UNL     1      42.781 -17.372   3.591  1.00  0.00     0.036 A 
HETATM   15 CL   UNL     1      43.157 -17.842   1.978  1.00  0.00    -0.084 Cl
HETATM   16  C   UNL     1      41.726 -16.483   3.823  1.00  0.00     0.056 A 
BRANCH  11  17
HETATM   17  O   UNL     1      41.949 -16.244   7.490  1.00  0.00    -0.354 OA
HETATM   18  C   UNL     1      43.032 -15.474   8.022  1.00  0.00     0.210 C 
ENDBRANCH  11  17
ENDBRANCH   7  10
ENDBRANCH   5   6
ENDBRANCH   1   3
BRANCH   1  19
HETATM   19  N   UNL     1      42.617 -10.501   7.623  1.00  0.00    -0.262 N 
HETATM   20  C   UNL     1      42.601  -9.121   7.637  1.00  0.00     0.327 C 
HETATM   21  O   UNL     1      42.026  -8.407   6.821  1.00  0.00    -0.261 OA
HETATM   22  H   UNL     1      42.906 -11.017   8.463  1.00  0.00     0.190 HD
BRANCH  20  23
HETATM   23  C   UNL     1      43.377  -8.488   8.809  1.00  0.00     0.311 C 
HETATM   24  N   UNL     1      43.493  -9.320   9.898  1.00  0.00    -0.349 N 
HETATM   25  H   UNL     1      43.136 -10.268   9.805  1.00  0.00     0.163 HD
HETATM   26  O   UNL     1      43.830  -7.357   8.730  1.00  0.00    -0.262 OA
BRANCH  24  27
HETATM   27  C   UNL     1      44.241  -8.938  11.066  1.00  0.00     0.161 C 
BRANCH  27  28
HETATM   28  C   UNL     1      43.337  -8.757  12.255  1.00  0.00    -0.041 A 
HETATM   29  C   UNL     1      43.522  -7.689  13.142  1.00  0.00     0.009 A 
HETATM   30  C   UNL     1      42.686  -7.534  14.250  1.00  0.00     0.001 A 
HETATM   31  C   UNL     1      41.662  -8.449  14.485  1.00  0.00     0.000 A 
HETATM   32  C   UNL     1      41.472  -9.521  13.615  1.00  0.00     0.001 A 
HETATM   33  C   UNL     1      42.305  -9.675  12.506  1.00  0.00     0.009 A 
ENDBRANCH  27  28
ENDBRANCH  24  27
ENDBRANCH  20  23
ENDBRANCH   1  19
TORSDOF 8
ENDMDL
MODEL 9
REMARK VINA RESULT:      -7.8      2.437      3.769
REMARK  8 active torsions:
REMARK  status: ('A' for Active; 'I' for Inactive)
REMARK    1  A    between atoms: C_2  and  N_3 
REMARK    2  A    between atoms: N_3  and  N_4 
REMARK       I    between atoms: N_4  and  C_5 
REMARK    3  A    between atoms: C_5  and  C_6 
REMARK       I    between atoms: C_6  and  N_7 
REMARK    4  A    between atoms: N_7  and  C_8 
REMARK    5  A    between atoms: C_8  and  C_9 
REMARK    6  A    between atoms: C_17  and  C_18 
REMARK       I    between atoms: C_18  and  N_19 
REMARK    7  A    between atoms: N_19  and  C_20 
REMARK    8  A    between atoms: C_21  and  O_22 
ROOT
HETATM    1  N   UNL     1      42.166 -11.836   5.858  1.00  0.00    -0.302 N 
HETATM    2  H   UNL     1      42.719 -11.450   5.083  1.00  0.00     0.186 HD
ENDROOT
BRANCH   1   3
HETATM    3  C   UNL     1      42.647 -13.029   6.369  1.00  0.00     0.027 C 
HETATM    4  C   UNL     1      44.077 -12.935   6.869  1.00  0.00     0.070 C 
HETATM    5  C   UNL     1      42.044 -14.234   6.442  1.00  0.00     0.100 C 
BRANCH   5   6
HETATM    6  C   UNL     1      40.699 -14.621   5.933  1.00  0.00     0.247 C 
HETATM    7  N   UNL     1      40.579 -14.979   4.619  1.00  0.00    -0.321 N 
HETATM    8  H   UNL     1      39.623 -14.904   4.284  1.00  0.00     0.169 HD
HETATM    9  O   UNL     1      39.677 -14.501   6.608  1.00  0.00    -0.268 OA
BRANCH   7  10
HETATM   10  C   UNL     1      41.511 -15.417   3.660  1.00  0.00     0.070 A 
HETATM   11  C   UNL     1      42.105 -14.450   2.831  1.00  0.00     0.095 A 
HETATM   12  C   UNL     1      42.971 -14.815   1.801  1.00  0.00     0.041 A 
HETATM   13  C   UNL     1      43.274 -16.161   1.601  1.00  0.00     0.026 A 
HETATM   14  C   UNL     1      42.687 -17.127   2.417  1.00  0.00     0.036 A 
HETATM   15 CL   UNL     1      43.039 -18.791   2.149  1.00  0.00    -0.084 Cl
HETATM   16  C   UNL     1      41.802 -16.765   3.438  1.00  0.00     0.056 A 
BRANCH  11  17
HETATM   17  O   UNL     1      41.845 -13.111   2.990  1.00  0.00    -0.354 OA
HETATM   18  C   UNL     1      41.278 -12.556   1.799  1.00  0.00     0.210 C 
ENDBRANCH  11  17
ENDBRANCH   7  10
ENDBRANCH   5   6
ENDBRANCH   1   3
BRANCH   1  19
HETATM   19  N   UNL     1      41.616 -10.828   6.654  1.00  0.00    -0.262 N 
HETATM   20  C   UNL     1      40.243 -10.692   6.643  1.00  0.00     0.327 C 
HETATM   21  O   UNL     1      39.480 -11.236   5.850  1.00  0.00    -0.261 OA
HETATM   22  H   UNL     1      42.151 -10.545   7.484  1.00  0.00     0.190 HD
BRANCH  20  23
HETATM   23  C   UNL     1      39.686  -9.782   7.755  1.00  0.00     0.311 C 
HETATM   24  N   UNL     1      40.283  -9.986   8.977  1.00  0.00    -0.349 N 
HETATM   25  H   UNL     1      41.062 -10.639   9.015  1.00  0.00     0.163 HD
HETATM   26  O   UNL     1      38.802  -8.971   7.524  1.00  0.00    -0.262 OA
BRANCH  24  27
HETATM   27  C   UNL     1      39.949  -9.186  10.125  1.00  0.00     0.161 C 
BRANCH  27  28
HETATM   28  C   UNL     1      41.174  -8.866  10.939  1.00  0.00    -0.041 A 
HETATM   29  C   UNL     1      42.348  -9.616  10.793  1.00  0.00     0.009 A 
HETATM   30  C   UNL     1      43.477  -9.319  11.561  1.00  0.00     0.001 A 
HETATM   31  C   UNL     1      43.440  -8.277  12.485  1.00  0.00     0.000 A 
HETATM   32  C   UNL     1      42.275  -7.530  12.646  1.00  0.00     0.001 A 
HETATM   33  C   UNL     1      41.147  -7.823  11.878  1.00  0.00     0.009 A 
ENDBRANCH  27  28
ENDBRANCH  24  27
ENDBRANCH  20  23
ENDBRANCH   1  19
TORSDOF 8
ENDMDL
MODEL 10
REMARK VINA RESULT:      -7.8      4.005      8.015
REMARK  8 active torsions:
REMARK  status: ('A' for Active; 'I' for Inactive)
REMARK    1  A    between atoms: C_2  and  N_3 
REMARK    2  A    between atoms: N_3  and  N_4 
REMARK       I    between atoms: N_4  and  C_5 
REMARK    3  A    between atoms: C_5  and  C_6 
REMARK       I    between atoms: C_6  and  N_7 
REMARK    4  A    between atoms: N_7  and  C_8 
REMARK    5  A    between atoms: C_8  and  C_9 
REMARK    6  A    between atoms: C_17  and  C_18 
REMARK       I    between atoms: C_18  and  N_19 
REMARK    7  A    between atoms: N_19  and  C_20 
REMARK    8  A    between atoms: C_21  and  O_22 
ROOT
HETATM    1  N   UNL     1      42.010 -11.804   5.516  1.00  0.00    -0.302 N 
HETATM    2  H   UNL     1      41.103 -11.476   5.870  1.00  0.00     0.186 HD
ENDROOT
BRANCH   1   3
HETATM    3  C   UNL     1      42.525 -12.902   6.184  1.00  0.00     0.027 C 
HETATM    4  C   UNL     1      43.969 -12.720   6.614  1.00  0.00     0.070 C 
HETATM    5  C   UNL     1      41.943 -14.088   6.456  1.00  0.00     0.100 C 
BRANCH   5   6
HETATM    6  C   UNL     1      40.588 -14.561   6.057  1.00  0.00     0.247 C 
HETATM    7  N   UNL     1      40.453 -15.217   4.865  1.00  0.00    -0.321 N 
HETATM    8  H   UNL     1      39.496 -15.206   4.525  1.00  0.00     0.169 HD
HETATM    9  O   UNL     1      39.573 -14.266   6.687  1.00  0.00    -0.268 OA
BRANCH   7  10
HETATM   10  C   UNL     1      41.370 -15.887   4.035  1.00  0.00     0.070 A 
HETATM   11  C   UNL     1      41.213 -15.758   2.645  1.00  0.00     0.095 A 
HETATM   12  C   UNL     1      42.029 -16.461   1.757  1.00  0.00     0.041 A 
HETATM   13  C   UNL     1      43.034 -17.288   2.255  1.00  0.00     0.026 A 
HETATM   14  C   UNL     1      43.195 -17.423   3.632  1.00  0.00     0.036 A 
HETATM   15 CL   UNL     1      44.418 -18.469   4.244  1.00  0.00    -0.084 Cl
HETATM   16  C   UNL     1      42.365 -16.736   4.524  1.00  0.00     0.056 A 
BRANCH  11  17
HETATM   17  O   UNL     1      40.242 -14.952   2.103  1.00  0.00    -0.354 OA
HETATM   18  C   UNL     1      40.087 -15.207   0.704  1.00  0.00     0.210 C 
ENDBRANCH  11  17
ENDBRANCH   7  10
ENDBRANCH   5   6
ENDBRANCH   1   3
BRANCH   1  19
HETATM   19  N   UNL     1      42.119 -11.628   4.134  1.00  0.00    -0.262 N 
HETATM   20  C   UNL     1      40.964 -11.750   3.389  1.00  0.00     0.327 C 
HETATM   21  O   UNL     1      39.896 -12.197   3.798  1.00  0.00    -0.261 OA
HETATM   22  H   UNL     1      42.883 -11.028   3.799  1.00  0.00     0.190 HD
BRANCH  20  23
HETATM   23  C   UNL     1      41.090 -11.251   1.936  1.00  0.00     0.311 C 
HETATM   24  N   UNL     1      39.915 -11.340   1.226  1.00  0.00    -0.349 N 
HETATM   25  H   UNL     1      39.085 -11.645   1.728  1.00  0.00     0.163 HD
HETATM   26  O   UNL     1      42.149 -10.822   1.504  1.00  0.00    -0.262 OA
BRANCH  24  27
HETATM   27  C   UNL     1      39.810 -10.860  -0.126  1.00  0.00     0.161 C 
BRANCH  27  28
HETATM   28  C   UNL     1      39.571 -11.993  -1.088  1.00  0.00    -0.041 A 
HETATM   29  C   UNL     1      40.634 -12.571  -1.794  1.00  0.00     0.009 A 
HETATM   30  C   UNL     1      40.402 -13.614  -2.693  1.00  0.00     0.001 A 
HETATM   31  C   UNL     1      39.107 -14.085  -2.899  1.00  0.00     0.000 A 
HETATM   32  C   UNL     1      38.040 -13.512  -2.209  1.00  0.00     0.001 A 
HETATM   33  C   UNL     1      38.271 -12.472  -1.308  1.00  0.00     0.009 A 
ENDBRANCH  27  28
ENDBRANCH  24  27
ENDBRANCH  20  23
ENDBRANCH   1  19
TORSDOF 8
ENDMDL
