MODEL 1
REMARK VINA RESULT:      -8.2      0.000      0.000
REMARK  8 active torsions:
REMARK  status: ('A' for Active; 'I' for Inactive)
REMARK    1  A    between atoms: O_2  and  C_3 
REMARK    2  A    between atoms: C_4  and  O_5 
REMARK    3  A    between atoms: N_12  and  N_13 
REMARK    4  A    between atoms: N_13  and  C_14 
REMARK    5  A    between atoms: C_14  and  N_15 
REMARK    6  A    between atoms: N_15  and  C_16 
REMARK    7  A    between atoms: C_16  and  C_17 
REMARK    8  A    between atoms: C_17  and  C_18 
ROOT
HETATM    1  C   UNL     1      43.766 -18.489   4.425  1.00  0.00     0.102 A 
HETATM    2  C   UNL     1      43.617 -18.418   3.023  1.00  0.00     0.103 A 
HETATM    3  C   UNL     1      42.809 -17.424   2.457  1.00  0.00     0.070 A 
HETATM    4  C   UNL     1      42.154 -16.510   3.283  1.00  0.00     0.053 A 
HETATM    5  C   UNL     1      42.317 -16.566   4.662  1.00  0.00     0.063 A 
HETATM    6  C   UNL     1      41.623 -15.570   5.504  1.00  0.00     0.281 C 
HETATM    7  O   UNL     1      41.884 -15.485   6.703  1.00  0.00    -0.265 OA
HETATM    8  N   UNL     1      40.714 -14.743   4.835  1.00  0.00    -0.190 N 
HETATM    9  C   UNL     1      40.583 -14.647   3.449  1.00  0.00     0.201 C 
HETATM   10  S   UNL     1      39.624 -13.557   2.606  1.00  0.00    -0.039 SA
HETATM   11  N   UNL     1      41.329 -15.535   2.713  1.00  0.00    -0.331 N 
HETATM   12  C   UNL     1      43.125 -17.550   5.241  1.00  0.00     0.059 A 
HETATM   13  H   UNL     1      41.216 -15.489   1.706  1.00  0.00     0.168 HD
ENDROOT
BRANCH   8  14
HETATM   14  N   UNL     1      39.930 -13.891   5.659  1.00  0.00    -0.264 N 
HETATM   15  H   UNL     1      38.933 -13.992   5.500  1.00  0.00     0.190 HD
BRANCH  14  16
HETATM   16  C   UNL     1      40.362 -12.614   5.939  1.00  0.00     0.187 C 
HETATM   17  S   UNL     1      39.620 -11.179   5.504  1.00  0.00    -0.040 SA
BRANCH  16  18
HETATM   18  N   UNL     1      41.556 -12.532   6.609  1.00  0.00    -0.366 N 
HETATM   19  H   UNL     1      41.406 -12.240   7.570  1.00  0.00     0.161 HD
BRANCH  18  20
HETATM   20  C   UNL     1      42.809 -12.076   6.014  1.00  0.00     0.126 C 
BRANCH  20  21
HETATM   21  C   UNL     1      44.017 -12.494   6.853  1.00  0.00     0.058 C 
BRANCH  21  22
HETATM   22  C   UNL     1      44.623 -11.322   7.583  1.00  0.00    -0.057 A 
HETATM   23  C   UNL     1      45.840 -10.778   7.147  1.00  0.00     0.007 A 
HETATM   24  C   UNL     1      46.425  -9.711   7.830  1.00  0.00     0.001 A 
HETATM   25  C   UNL     1      45.803  -9.181   8.958  1.00  0.00     0.000 A 
HETATM   26  C   UNL     1      44.596  -9.718   9.402  1.00  0.00     0.001 A 
HETATM   27  C   UNL     1      44.008 -10.785   8.720  1.00  0.00     0.007 A 
ENDBRANCH  21  22
ENDBRANCH  20  21
ENDBRANCH  18  20
ENDBRANCH  16  18
ENDBRANCH  14  16
ENDBRANCH   8  14
BRANCH   1  28
HETATM   28  O   UNL     1      44.569 -19.496   4.900  1.00  0.00    -0.353 OA
HETATM   29  C   UNL     1      43.928 -20.599   5.526  1.00  0.00     0.210 C 
ENDBRANCH   1  28
BRANCH   2  30
HETATM   30  O   UNL     1      44.294 -19.369   2.299  1.00  0.00    -0.353 OA
HETATM   31  C   UNL     1      43.548 -20.447   1.753  1.00  0.00     0.210 C 
ENDBRANCH   2  30
TORSDOF 8
ENDMDL
MODEL 2
REMARK VINA RESULT:      -7.9      2.905      6.748
REMARK  8 active torsions:
REMARK  status: ('A' for Active; 'I' for Inactive)
REMARK    1  A    between atoms: O_2  and  C_3 
REMARK    2  A    between atoms: C_4  and  O_5 
REMARK    3  A    between atoms: N_12  and  N_13 
REMARK    4  A    between atoms: N_13  and  C_14 
REMARK    5  A    between atoms: C_14  and  N_15 
REMARK    6  A    between atoms: N_15  and  C_16 
REMARK    7  A    between atoms: C_16  and  C_17 
REMARK    8  A    between atoms: C_17  and  C_18 
ROOT
HETATM    1  C   UNL     1      43.267 -13.151   6.603  1.00  0.00     0.102 A 
HETATM    2  C   UNL     1      44.206 -12.162   6.237  1.00  0.00     0.103 A 
HETATM    3  C   UNL     1      44.005 -11.408   5.074  1.00  0.00     0.070 A 
HETATM    4  C   UNL     1      42.879 -11.638   4.283  1.00  0.00     0.053 A 
HETATM    5  C   UNL     1      41.944 -12.597   4.655  1.00  0.00     0.063 A 
HETATM    6  C   UNL     1      40.754 -12.801   3.804  1.00  0.00     0.281 C 
HETATM    7  O   UNL     1      39.829 -13.511   4.194  1.00  0.00    -0.265 OA
HETATM    8  N   UNL     1      40.757 -12.110   2.587  1.00  0.00    -0.190 N 
HETATM    9  C   UNL     1      41.665 -11.111   2.231  1.00  0.00     0.201 C 
HETATM   10  S   UNL     1      41.609 -10.151   0.855  1.00  0.00    -0.039 SA
HETATM   11  N   UNL     1      42.698 -10.898   3.111  1.00  0.00    -0.331 N 
HETATM   12  C   UNL     1      42.128 -13.355   5.816  1.00  0.00     0.059 A 
HETATM   13  H   UNL     1      43.376 -10.193   2.844  1.00  0.00     0.168 HD
ENDROOT
BRANCH   8  14
HETATM   14  N   UNL     1      39.694 -12.421   1.695  1.00  0.00    -0.264 N 
HETATM   15  H   UNL     1      38.778 -12.282   2.106  1.00  0.00     0.190 HD
BRANCH  14  16
HETATM   16  C   UNL     1      39.807 -13.491   0.836  1.00  0.00     0.187 C 
HETATM   17  S   UNL     1      40.166 -13.440  -0.797  1.00  0.00    -0.040 SA
BRANCH  16  18
HETATM   18  N   UNL     1      39.550 -14.718   1.390  1.00  0.00    -0.366 N 
HETATM   19  H   UNL     1      38.971 -14.622   2.218  1.00  0.00     0.161 HD
BRANCH  18  20
HETATM   20  C   UNL     1      40.502 -15.825   1.428  1.00  0.00     0.126 C 
BRANCH  20  21
HETATM   21  C   UNL     1      41.896 -15.356   1.845  1.00  0.00     0.058 C 
BRANCH  21  22
HETATM   22  C   UNL     1      42.635 -16.417   2.619  1.00  0.00    -0.057 A 
HETATM   23  C   UNL     1      43.182 -16.117   3.876  1.00  0.00     0.007 A 
HETATM   24  C   UNL     1      43.891 -17.083   4.590  1.00  0.00     0.001 A 
HETATM   25  C   UNL     1      44.067 -18.356   4.053  1.00  0.00     0.000 A 
HETATM   26  C   UNL     1      43.532 -18.664   2.803  1.00  0.00     0.001 A 
HETATM   27  C   UNL     1      42.821 -17.699   2.087  1.00  0.00     0.007 A 
ENDBRANCH  21  22
ENDBRANCH  20  21
ENDBRANCH  18  20
ENDBRANCH  16  18
ENDBRANCH  14  16
ENDBRANCH   8  14
BRANCH   1  28
HETATM   28  O   UNL     1      43.540 -13.850   7.753  1.00  0.00    -0.353 OA
HETATM   29  C   UNL     1      43.132 -15.211   7.798  1.00  0.00     0.210 C 
ENDBRANCH   1  28
BRANCH   2  30
HETATM   30  O   UNL     1      45.285 -12.020   7.075  1.00  0.00    -0.353 OA
HETATM   31  C   UNL     1      45.382 -10.827   7.840  1.00  0.00     0.210 C 
ENDBRANCH   2  30
TORSDOF 8
ENDMDL
MODEL 3
REMARK VINA RESULT:      -7.8      3.940      7.595
REMARK  8 active torsions:
REMARK  status: ('A' for Active; 'I' for Inactive)
REMARK    1  A    between atoms: O_2  and  C_3 
REMARK    2  A    between atoms: C_4  and  O_5 
REMARK    3  A    between atoms: N_12  and  N_13 
REMARK    4  A    between atoms: N_13  and  C_14 
REMARK    5  A    between atoms: C_14  and  N_15 
REMARK    6  A    between atoms: N_15  and  C_16 
REMARK    7  A    between atoms: C_16  and  C_17 
REMARK    8  A    between atoms: C_17  and  C_18 
ROOT
HETATM    1  C   UNL     1      39.622 -13.908  -1.128  1.00  0.00     0.102 A 
HETATM    2  C   UNL     1      39.029 -12.629  -1.049  1.00  0.00     0.103 A 
HETATM    3  C   UNL     1      38.911 -11.992   0.192  1.00  0.00     0.070 A 
HETATM    4  C   UNL     1      39.379 -12.625   1.345  1.00  0.00     0.053 A 
HETATM    5  C   UNL     1      39.982 -13.875   1.263  1.00  0.00     0.063 A 
HETATM    6  C   UNL     1      40.483 -14.507   2.501  1.00  0.00     0.281 C 
HETATM    7  O   UNL     1      41.172 -15.524   2.441  1.00  0.00    -0.265 OA
HETATM    8  N   UNL     1      40.152 -13.850   3.691  1.00  0.00    -0.190 N 
HETATM    9  C   UNL     1      39.593 -12.573   3.776  1.00  0.00     0.201 C 
HETATM   10  S   UNL     1      39.329 -11.687   5.178  1.00  0.00    -0.039 SA
HETATM   11  N   UNL     1      39.236 -11.994   2.584  1.00  0.00    -0.331 N 
HETATM   12  C   UNL     1      40.111 -14.521   0.030  1.00  0.00     0.059 A 
HETATM   13  H   UNL     1      38.803 -11.078   2.641  1.00  0.00     0.168 HD
ENDROOT
BRANCH   8  14
HETATM   14  N   UNL     1      40.493 -14.531   4.891  1.00  0.00    -0.264 N 
HETATM   15  H   UNL     1      39.791 -14.434   5.617  1.00  0.00     0.190 HD
BRANCH  14  16
HETATM   16  C   UNL     1      41.799 -14.549   5.324  1.00  0.00     0.187 C 
HETATM   17  S   UNL     1      42.776 -13.228   5.643  1.00  0.00    -0.040 SA
BRANCH  16  18
HETATM   18  N   UNL     1      42.356 -15.795   5.462  1.00  0.00    -0.366 N 
HETATM   19  H   UNL     1      42.094 -16.206   6.352  1.00  0.00     0.161 HD
BRANCH  18  20
HETATM   20  C   UNL     1      43.682 -16.167   4.976  1.00  0.00     0.126 C 
BRANCH  20  21
HETATM   21  C   UNL     1      44.074 -17.573   5.429  1.00  0.00     0.058 C 
BRANCH  21  22
HETATM   22  C   UNL     1      43.855 -18.593   4.342  1.00  0.00    -0.057 A 
HETATM   23  C   UNL     1      44.090 -19.953   4.596  1.00  0.00     0.007 A 
HETATM   24  C   UNL     1      43.916 -20.903   3.590  1.00  0.00     0.001 A 
HETATM   25  C   UNL     1      43.511 -20.505   2.318  1.00  0.00     0.000 A 
HETATM   26  C   UNL     1      43.280 -19.156   2.052  1.00  0.00     0.001 A 
HETATM   27  C   UNL     1      43.452 -18.203   3.059  1.00  0.00     0.007 A 
ENDBRANCH  21  22
ENDBRANCH  20  21
ENDBRANCH  18  20
ENDBRANCH  16  18
ENDBRANCH  14  16
ENDBRANCH   8  14
BRANCH   1  28
HETATM   28  O   UNL     1      39.694 -14.466  -2.381  1.00  0.00    -0.353 OA
HETATM   29  C   UNL     1      38.591 -15.257  -2.804  1.00  0.00     0.210 C 
ENDBRANCH   1  28
BRANCH   2  30
HETATM   30  O   UNL     1      38.591 -12.096  -2.237  1.00  0.00    -0.353 OA
HETATM   31  C   UNL     1      39.092 -10.824  -2.622  1.00  0.00     0.210 C 
ENDBRANCH   2  30
TORSDOF 8
ENDMDL
MODEL 4
REMARK VINA RESULT:      -7.8      2.159      2.871
REMARK  8 active torsions:
REMARK  status: ('A' for Active; 'I' for Inactive)
REMARK    1  A    between atoms: O_2  and  C_3 
REMARK    2  A    between atoms: C_4  and  O_5 
REMARK    3  A    between atoms: N_12  and  N_13 
REMARK    4  A    between atoms: N_13  and  C_14 
REMARK    5  A    between atoms: C_14  and  N_15 
REMARK    6  A    between atoms: N_15  and  C_16 
REMARK    7  A    between atoms: C_16  and  C_17 
REMARK    8  A    between atoms: C_17  and  C_18 
ROOT
HETATM    1  C   UNL     1      44.243 -18.599   4.575  1.00  0.00     0.102 A 
HETATM    2  C   UNL     1      43.889 -18.441   3.218  1.00  0.00     0.103 A 
HETATM    3  C   UNL     1      43.388 -17.213   2.767  1.00  0.00     0.070 A 
HETATM    4  C   UNL     1      43.240 -16.153   3.663  1.00  0.00     0.053 A 
HETATM    5  C   UNL     1      43.609 -16.303   4.995  1.00  0.00     0.063 A 
HETATM    6  C   UNL     1      43.457 -15.153   5.910  1.00  0.00     0.281 C 
HETATM    7  O   UNL     1      43.934 -15.198   7.043  1.00  0.00    -0.265 OA
HETATM    8  N   UNL     1      42.788 -14.044   5.381  1.00  0.00    -0.190 N 
HETATM    9  C   UNL     1      42.461 -13.869   4.035  1.00  0.00     0.201 C 
HETATM   10  S   UNL     1      41.806 -12.491   3.335  1.00  0.00    -0.039 SA
HETATM   11  N   UNL     1      42.716 -14.938   3.212  1.00  0.00    -0.331 N 
HETATM   12  C   UNL     1      44.115 -17.521   5.458  1.00  0.00     0.059 A 
HETATM   13  H   UNL     1      42.455 -14.827   2.238  1.00  0.00     0.168 HD
ENDROOT
BRANCH   8  14
HETATM   14  N   UNL     1      42.499 -12.998   6.299  1.00  0.00    -0.264 N 
HETATM   15  H   UNL     1      41.570 -12.610   6.180  1.00  0.00     0.190 HD
BRANCH  14  16
HETATM   16  C   UNL     1      43.480 -12.098   6.648  1.00  0.00     0.187 C 
HETATM   17  S   UNL     1      44.750 -11.569   5.694  1.00  0.00    -0.040 SA
BRANCH  16  18
HETATM   18  N   UNL     1      43.418 -11.630   7.935  1.00  0.00    -0.366 N 
HETATM   19  H   UNL     1      42.629 -12.039   8.425  1.00  0.00     0.161 HD
BRANCH  18  20
HETATM   20  C   UNL     1      43.756 -10.267   8.337  1.00  0.00     0.126 C 
BRANCH  20  21
HETATM   21  C   UNL     1      44.653 -10.251   9.575  1.00  0.00     0.058 C 
BRANCH  21  22
HETATM   22  C   UNL     1      43.904  -9.803  10.803  1.00  0.00    -0.057 A 
HETATM   23  C   UNL     1      43.694  -8.436  11.038  1.00  0.00     0.007 A 
HETATM   24  C   UNL     1      43.025  -8.008  12.186  1.00  0.00     0.001 A 
HETATM   25  C   UNL     1      42.564  -8.940  13.112  1.00  0.00     0.000 A 
HETATM   26  C   UNL     1      42.771 -10.300  12.891  1.00  0.00     0.001 A 
HETATM   27  C   UNL     1      43.440 -10.732  11.742  1.00  0.00     0.007 A 
ENDBRANCH  21  22
ENDBRANCH  20  21
ENDBRANCH  18  20
ENDBRANCH  16  18
ENDBRANCH  14  16
ENDBRANCH   8  14
BRANCH   1  28
HETATM   28  O   UNL     1      44.720 -19.834   4.937  1.00  0.00    -0.353 OA
HETATM   29  C   UNL     1      43.828 -20.698   5.629  1.00  0.00     0.210 C 
ENDBRANCH   1  28
BRANCH   2  30
HETATM   30  O   UNL     1      44.061 -19.545   2.420  1.00  0.00    -0.353 OA
HETATM   31  C   UNL     1      42.902 -20.174   1.892  1.00  0.00     0.210 C 
ENDBRANCH   2  30
TORSDOF 8
ENDMDL
MODEL 5
REMARK VINA RESULT:      -7.7      3.807      6.973
REMARK  8 active torsions:
REMARK  status: ('A' for Active; 'I' for Inactive)
REMARK    1  A    between atoms: O_2  and  C_3 
REMARK    2  A    between atoms: C_4  and  O_5 
REMARK    3  A    between atoms: N_12  and  N_13 
REMARK    4  A    between atoms: N_13  and  C_14 
REMARK    5  A    between atoms: C_14  and  N_15 
REMARK    6  A    between atoms: N_15  and  C_16 
REMARK    7  A    between atoms: C_16  and  C_17 
REMARK    8  A    between atoms: C_17  and  C_18 
ROOT
HETATM    1  C   UNL     1      43.136 -18.128   2.807  1.00  0.00     0.102 A 
HETATM    2  C   UNL     1      43.607 -17.953   4.126  1.00  0.00     0.103 A 
HETATM    3  C   UNL     1      43.042 -16.965   4.942  1.00  0.00     0.070 A 
HETATM    4  C   UNL     1      42.017 -16.157   4.446  1.00  0.00     0.053 A 
HETATM    5  C   UNL     1      41.539 -16.344   3.154  1.00  0.00     0.063 A 
HETATM    6  C   UNL     1      40.441 -15.484   2.669  1.00  0.00     0.281 C 
HETATM    7  O   UNL     1      39.881 -15.738   1.603  1.00  0.00    -0.265 OA
HETATM    8  N   UNL     1      40.083 -14.427   3.513  1.00  0.00    -0.190 N 
HETATM    9  C   UNL     1      40.523 -14.265   4.828  1.00  0.00     0.201 C 
HETATM   10  S   UNL     1      39.997 -13.106   5.924  1.00  0.00    -0.039 SA
HETATM   11  N   UNL     1      41.475 -15.156   5.257  1.00  0.00    -0.331 N 
HETATM   12  C   UNL     1      42.090 -17.330   2.330  1.00  0.00     0.059 A 
HETATM   13  H   UNL     1      41.819 -15.025   6.203  1.00  0.00     0.168 HD
ENDROOT
BRANCH   8  14
HETATM   14  N   UNL     1      39.138 -13.505   2.987  1.00  0.00    -0.264 N 
HETATM   15  H   UNL     1      38.291 -13.951   2.653  1.00  0.00     0.190 HD
BRANCH  14  16
HETATM   16  C   UNL     1      39.569 -12.421   2.256  1.00  0.00     0.187 C 
HETATM   17  S   UNL     1      39.841 -10.868   2.819  1.00  0.00    -0.040 SA
BRANCH  16  18
HETATM   18  N   UNL     1      39.745 -12.648   0.916  1.00  0.00    -0.366 N 
HETATM   19  H   UNL     1      39.186 -13.440   0.611  1.00  0.00     0.161 HD
BRANCH  18  20
HETATM   20  C   UNL     1      41.009 -12.476   0.206  1.00  0.00     0.126 C 
BRANCH  20  21
HETATM   21  C   UNL     1      40.789 -12.017  -1.236  1.00  0.00     0.058 C 
BRANCH  21  22
HETATM   22  C   UNL     1      39.697 -12.804  -1.913  1.00  0.00    -0.057 A 
HETATM   23  C   UNL     1      39.939 -14.119  -2.337  1.00  0.00     0.007 A 
HETATM   24  C   UNL     1      38.944 -14.848  -2.990  1.00  0.00     0.001 A 
HETATM   25  C   UNL     1      37.700 -14.269  -3.230  1.00  0.00     0.000 A 
HETATM   26  C   UNL     1      37.451 -12.961  -2.818  1.00  0.00     0.001 A 
HETATM   27  C   UNL     1      38.445 -12.229  -2.163  1.00  0.00     0.007 A 
ENDBRANCH  21  22
ENDBRANCH  20  21
ENDBRANCH  18  20
ENDBRANCH  16  18
ENDBRANCH  14  16
ENDBRANCH   8  14
BRANCH   1  28
HETATM   28  O   UNL     1      43.746 -19.113   2.071  1.00  0.00    -0.353 OA
HETATM   29  C   UNL     1      43.002 -20.300   1.830  1.00  0.00     0.210 C 
ENDBRANCH   1  28
BRANCH   2  30
HETATM   30  O   UNL     1      44.624 -18.789   4.516  1.00  0.00    -0.353 OA
HETATM   31  C   UNL     1      44.281 -19.973   5.221  1.00  0.00     0.210 C 
ENDBRANCH   2  30
TORSDOF 8
ENDMDL
MODEL 6
REMARK VINA RESULT:      -7.6      1.590      2.139
REMARK  8 active torsions:
REMARK  status: ('A' for Active; 'I' for Inactive)
REMARK    1  A    between atoms: O_2  and  C_3 
REMARK    2  A    between atoms: C_4  and  O_5 
REMARK    3  A    between atoms: N_12  and  N_13 
REMARK    4  A    between atoms: N_13  and  C_14 
REMARK    5  A    between atoms: C_14  and  N_15 
REMARK    6  A    between atoms: N_15  and  C_16 
REMARK    7  A    between atoms: C_16  and  C_17 
REMARK    8  A    between atoms: C_17  and  C_18 
ROOT
HETATM    1  C   UNL     1      44.182 -18.516   4.537  1.00  0.00     0.102 A 
HETATM    2  C   UNL     1      43.831 -18.393   3.175  1.00  0.00     0.103 A 
HETATM    3  C   UNL     1      43.211 -17.223   2.719  1.00  0.00     0.070 A 
HETATM    4  C   UNL     1      42.943 -16.185   3.613  1.00  0.00     0.053 A 
HETATM    5  C   UNL     1      43.309 -16.298   4.949  1.00  0.00     0.063 A 
HETATM    6  C   UNL     1      43.027 -15.173   5.863  1.00  0.00     0.281 C 
HETATM    7  O   UNL     1      43.491 -15.170   7.002  1.00  0.00    -0.265 OA
HETATM    8  N   UNL     1      42.253 -14.138   5.326  1.00  0.00    -0.190 N 
HETATM    9  C   UNL     1      41.928 -13.995   3.976  1.00  0.00     0.201 C 
HETATM   10  S   UNL     1      41.142 -12.691   3.268  1.00  0.00    -0.039 SA
HETATM   11  N   UNL     1      42.302 -15.030   3.155  1.00  0.00    -0.331 N 
HETATM   12  C   UNL     1      43.932 -17.459   5.418  1.00  0.00     0.059 A 
HETATM   13  H   UNL     1      42.043 -14.945   2.179  1.00  0.00     0.168 HD
ENDROOT
BRANCH   8  14
HETATM   14  N   UNL     1      41.846 -13.129   6.241  1.00  0.00    -0.264 N 
HETATM   15  H   UNL     1      40.839 -13.057   6.331  1.00  0.00     0.190 HD
BRANCH  14  16
HETATM   16  C   UNL     1      42.537 -11.940   6.306  1.00  0.00     0.187 C 
HETATM   17  S   UNL     1      44.101 -11.651   5.786  1.00  0.00    -0.040 SA
BRANCH  16  18
HETATM   18  N   UNL     1      41.868 -10.904   6.904  1.00  0.00    -0.366 N 
HETATM   19  H   UNL     1      40.901 -11.158   7.082  1.00  0.00     0.161 HD
BRANCH  18  20
HETATM   20  C   UNL     1      42.088  -9.492   6.603  1.00  0.00     0.126 C 
BRANCH  20  21
HETATM   21  C   UNL     1      42.157  -8.647   7.876  1.00  0.00     0.058 C 
BRANCH  21  22
HETATM   22  C   UNL     1      43.294  -9.073   8.769  1.00  0.00    -0.057 A 
HETATM   23  C   UNL     1      43.026  -9.609  10.038  1.00  0.00     0.007 A 
HETATM   24  C   UNL     1      44.071  -9.982  10.885  1.00  0.00     0.001 A 
HETATM   25  C   UNL     1      45.392  -9.818  10.475  1.00  0.00     0.000 A 
HETATM   26  C   UNL     1      45.669  -9.282   9.219  1.00  0.00     0.001 A 
HETATM   27  C   UNL     1      44.625  -8.909   8.369  1.00  0.00     0.007 A 
ENDBRANCH  21  22
ENDBRANCH  20  21
ENDBRANCH  18  20
ENDBRANCH  16  18
ENDBRANCH  14  16
ENDBRANCH   8  14
BRANCH   1  28
HETATM   28  O   UNL     1      44.779 -19.697   4.905  1.00  0.00    -0.353 OA
HETATM   29  C   UNL     1      43.960 -20.669   5.540  1.00  0.00     0.210 C 
ENDBRANCH   1  28
BRANCH   2  30
HETATM   30  O   UNL     1      44.127 -19.473   2.379  1.00  0.00    -0.353 OA
HETATM   31  C   UNL     1      43.047 -20.244   1.874  1.00  0.00     0.210 C 
ENDBRANCH   2  30
TORSDOF 8
ENDMDL
MODEL 7
REMARK VINA RESULT:      -7.5      2.180      2.808
REMARK  8 active torsions:
REMARK  status: ('A' for Active; 'I' for Inactive)
REMARK    1  A    between atoms: O_2  and  C_3 
REMARK    2  A    between atoms: C_4  and  O_5 
REMARK    3  A    between atoms: N_12  and  N_13 
REMARK    4  A    between atoms: N_13  and  C_14 
REMARK    5  A    between atoms: C_14  and  N_15 
REMARK    6  A    between atoms: N_15  and  C_16 
REMARK    7  A    between atoms: C_16  and  C_17 
REMARK    8  A    between atoms: C_17  and  C_18 
ROOT
HETATM    1  C   UNL     1      42.968 -17.436   4.782  1.00  0.00     0.102 A 
HETATM    2  C   UNL     1      43.412 -17.859   3.510  1.00  0.00     0.103 A 
HETATM    3  C   UNL     1      42.891 -17.260   2.356  1.00  0.00     0.070 A 
HETATM    4  C   UNL     1      41.934 -16.250   2.470  1.00  0.00     0.053 A 
HETATM    5  C   UNL     1      41.513 -15.820   3.723  1.00  0.00     0.063 A 
HETATM    6  C   UNL     1      40.514 -14.735   3.806  1.00  0.00     0.281 C 
HETATM    7  O   UNL     1      40.253 -14.216   4.890  1.00  0.00    -0.265 OA
HETATM    8  N   UNL     1      39.946 -14.342   2.588  1.00  0.00    -0.190 N 
HETATM    9  C   UNL     1      40.399 -14.733   1.327  1.00  0.00     0.201 C 
HETATM   10  S   UNL     1      39.853 -14.163  -0.154  1.00  0.00    -0.039 SA
HETATM   11  N   UNL     1      41.400 -15.674   1.314  1.00  0.00    -0.331 N 
HETATM   12  C   UNL     1      42.028 -16.405   4.884  1.00  0.00     0.059 A 
HETATM   13  H   UNL     1      41.713 -15.983   0.400  1.00  0.00     0.168 HD
ENDROOT
BRANCH   8  14
HETATM   14  N   UNL     1      38.875 -13.413   2.675  1.00  0.00    -0.264 N 
HETATM   15  H   UNL     1      38.047 -13.713   2.171  1.00  0.00     0.190 HD
BRANCH  14  16
HETATM   16  C   UNL     1      39.132 -12.061   2.648  1.00  0.00     0.187 C 
HETATM   17  S   UNL     1      38.457 -10.926   1.620  1.00  0.00    -0.040 SA
BRANCH  16  18
HETATM   18  N   UNL     1      40.079 -11.625   3.538  1.00  0.00    -0.366 N 
HETATM   19  H   UNL     1      39.648 -11.367   4.420  1.00  0.00     0.161 HD
BRANCH  18  20
HETATM   20  C   UNL     1      41.257 -10.842   3.175  1.00  0.00     0.126 C 
BRANCH  20  21
HETATM   21  C   UNL     1      42.538 -11.672   3.271  1.00  0.00     0.058 C 
BRANCH  21  22
HETATM   22  C   UNL     1      43.026 -11.785   4.692  1.00  0.00    -0.057 A 
HETATM   23  C   UNL     1      43.485 -13.018   5.181  1.00  0.00     0.007 A 
HETATM   24  C   UNL     1      43.915 -13.141   6.502  1.00  0.00     0.001 A 
HETATM   25  C   UNL     1      43.885 -12.037   7.350  1.00  0.00     0.000 A 
HETATM   26  C   UNL     1      43.427 -10.808   6.877  1.00  0.00     0.001 A 
HETATM   27  C   UNL     1      42.998 -10.682   5.554  1.00  0.00     0.007 A 
ENDBRANCH  21  22
ENDBRANCH  20  21
ENDBRANCH  18  20
ENDBRANCH  16  18
ENDBRANCH  14  16
ENDBRANCH   8  14
BRANCH   1  28
HETATM   28  O   UNL     1      43.523 -18.078   5.861  1.00  0.00    -0.353 OA
HETATM   29  C   UNL     1      43.784 -17.295   7.019  1.00  0.00     0.210 C 
ENDBRANCH   1  28
BRANCH   2  30
HETATM   30  O   UNL     1      44.346 -18.865   3.504  1.00  0.00    -0.353 OA
HETATM   31  C   UNL     1      43.949 -20.141   3.022  1.00  0.00     0.210 C 
ENDBRANCH   2  30
TORSDOF 8
ENDMDL
MODEL 8
REMARK VINA RESULT:      -7.5      1.950      3.118
REMARK  8 active torsions:
REMARK  status: ('A' for Active; 'I' for Inactive)
REMARK    1  A    between atoms: O_2  and  C_3 
REMARK    2  A    between atoms: C_4  and  O_5 
REMARK    3  A    between atoms: N_12  and  N_13 
REMARK    4  A    between atoms: N_13  and  C_14 
REMARK    5  A    between atoms: C_14  and  N_15 
REMARK    6  A    between atoms: N_15  and  C_16 
REMARK    7  A    between atoms: C_16  and  C_17 
REMARK    8  A    between atoms: C_17  and  C_18 
ROOT
HETATM    1  C   UNL     1      43.339 -18.158   3.020  1.00  0.00     0.102 A 
HETATM    2  C   UNL     1      43.615 -18.082   4.403  1.00  0.00     0.103 A 
HETATM    3  C   UNL     1      42.981 -17.111   5.187  1.00  0.00     0.070 A 
HETATM    4  C   UNL     1      42.080 -16.223   4.598  1.00  0.00     0.053 A 
HETATM    5  C   UNL     1      41.792 -16.312   3.240  1.00  0.00     0.063 A 
HETATM    6  C   UNL     1      40.819 -15.368   2.654  1.00  0.00     0.281 C 
HETATM    7  O   UNL     1      40.414 -15.531   1.504  1.00  0.00    -0.265 OA
HETATM    8  N   UNL     1      40.388 -14.341   3.502  1.00  0.00    -0.190 N 
HETATM    9  C   UNL     1      40.633 -14.275   4.875  1.00  0.00     0.201 C 
HETATM   10  S   UNL     1      40.003 -13.152   5.952  1.00  0.00    -0.039 SA
HETATM   11  N   UNL     1      41.468 -15.240   5.382  1.00  0.00    -0.331 N 
HETATM   12  C   UNL     1      42.414 -17.280   2.446  1.00  0.00     0.059 A 
HETATM   13  H   UNL     1      41.673 -15.180   6.374  1.00  0.00     0.168 HD
ENDROOT
BRANCH   8  14
HETATM   14  N   UNL     1      39.576 -13.341   2.901  1.00  0.00    -0.264 N 
HETATM   15  H   UNL     1      38.910 -13.717   2.235  1.00  0.00     0.190 HD
BRANCH  14  16
HETATM   16  C   UNL     1      40.117 -12.118   2.577  1.00  0.00     0.187 C 
HETATM   17  S   UNL     1      39.379 -10.621   2.708  1.00  0.00    -0.040 SA
BRANCH  16  18
HETATM   18  N   UNL     1      41.382 -12.155   2.051  1.00  0.00    -0.366 N 
HETATM   19  H   UNL     1      41.605 -13.090   1.723  1.00  0.00     0.161 HD
BRANCH  18  20
HETATM   20  C   UNL     1      42.518 -11.398   2.571  1.00  0.00     0.126 C 
BRANCH  20  21
HETATM   21  C   UNL     1      43.441 -12.275   3.417  1.00  0.00     0.058 C 
BRANCH  21  22
HETATM   22  C   UNL     1      43.431 -11.862   4.867  1.00  0.00    -0.057 A 
HETATM   23  C   UNL     1      42.826 -10.656   5.249  1.00  0.00     0.007 A 
HETATM   24  C   UNL     1      42.834 -10.251   6.584  1.00  0.00     0.001 A 
HETATM   25  C   UNL     1      43.452 -11.043   7.549  1.00  0.00     0.000 A 
HETATM   26  C   UNL     1      44.061 -12.241   7.179  1.00  0.00     0.001 A 
HETATM   27  C   UNL     1      44.053 -12.650   5.844  1.00  0.00     0.007 A 
ENDBRANCH  21  22
ENDBRANCH  20  21
ENDBRANCH  18  20
ENDBRANCH  16  18
ENDBRANCH  14  16
ENDBRANCH   8  14
BRANCH   1  28
HETATM   28  O   UNL     1      44.007 -19.133   2.322  1.00  0.00    -0.353 OA
HETATM   29  C   UNL     1      43.256 -20.267   1.909  1.00  0.00     0.210 C 
ENDBRANCH   1  28
BRANCH   2  30
HETATM   30  O   UNL     1      44.523 -18.993   4.884  1.00  0.00    -0.353 OA
HETATM   31  C   UNL     1      44.027 -20.120   5.591  1.00  0.00     0.210 C 
ENDBRANCH   2  30
TORSDOF 8
ENDMDL
MODEL 9
REMARK VINA RESULT:      -7.2      3.830      6.467
REMARK  8 active torsions:
REMARK  status: ('A' for Active; 'I' for Inactive)
REMARK    1  A    between atoms: O_2  and  C_3 
REMARK    2  A    between atoms: C_4  and  O_5 
REMARK    3  A    between atoms: N_12  and  N_13 
REMARK    4  A    between atoms: N_13  and  C_14 
REMARK    5  A    between atoms: C_14  and  N_15 
REMARK    6  A    between atoms: N_15  and  C_16 
REMARK    7  A    between atoms: C_16  and  C_17 
REMARK    8  A    between atoms: C_17  and  C_18 
ROOT
HETATM    1  C   UNL     1      43.117 -17.377   5.474  1.00  0.00     0.102 A 
HETATM    2  C   UNL     1      43.583 -17.962   4.276  1.00  0.00     0.103 A 
HETATM    3  C   UNL     1      43.052 -17.549   3.048  1.00  0.00     0.070 A 
HETATM    4  C   UNL     1      42.065 -16.563   3.014  1.00  0.00     0.053 A 
HETATM    5  C   UNL     1      41.623 -15.972   4.192  1.00  0.00     0.063 A 
HETATM    6  C   UNL     1      40.591 -14.918   4.118  1.00  0.00     0.281 C 
HETATM    7  O   UNL     1      40.307 -14.259   5.116  1.00  0.00    -0.265 OA
HETATM    8  N   UNL     1      40.020 -14.720   2.855  1.00  0.00    -0.190 N 
HETATM    9  C   UNL     1      40.494 -15.272   1.663  1.00  0.00     0.201 C 
HETATM   10  S   UNL     1      39.941 -14.934   0.114  1.00  0.00    -0.039 SA
HETATM   11  N   UNL     1      41.522 -16.173   1.786  1.00  0.00    -0.331 N 
HETATM   12  C   UNL     1      42.147 -16.371   5.426  1.00  0.00     0.059 A 
HETATM   13  H   UNL     1      41.851 -16.599   0.926  1.00  0.00     0.168 HD
ENDROOT
BRANCH   8  14
HETATM   14  N   UNL     1      38.921 -13.820   2.806  1.00  0.00    -0.264 N 
HETATM   15  H   UNL     1      38.060 -14.262   2.503  1.00  0.00     0.190 HD
BRANCH  14  16
HETATM   16  C   UNL     1      39.109 -12.526   2.378  1.00  0.00     0.187 C 
HETATM   17  S   UNL     1      40.483 -11.590   2.568  1.00  0.00    -0.040 SA
BRANCH  16  18
HETATM   18  N   UNL     1      38.025 -11.943   1.773  1.00  0.00    -0.366 N 
HETATM   19  H   UNL     1      37.380 -12.652   1.438  1.00  0.00     0.161 HD
BRANCH  18  20
HETATM   20  C   UNL     1      38.083 -10.730   0.963  1.00  0.00     0.126 C 
BRANCH  20  21
HETATM   21  C   UNL     1      37.586 -10.978  -0.462  1.00  0.00     0.058 C 
BRANCH  21  22
HETATM   22  C   UNL     1      38.661 -11.573  -1.334  1.00  0.00    -0.057 A 
HETATM   23  C   UNL     1      39.990 -11.142  -1.203  1.00  0.00     0.007 A 
HETATM   24  C   UNL     1      40.989 -11.667  -2.024  1.00  0.00     0.001 A 
HETATM   25  C   UNL     1      40.671 -12.622  -2.986  1.00  0.00     0.000 A 
HETATM   26  C   UNL     1      39.353 -13.054  -3.127  1.00  0.00     0.001 A 
HETATM   27  C   UNL     1      38.351 -12.531  -2.307  1.00  0.00     0.007 A 
ENDBRANCH  21  22
ENDBRANCH  20  21
ENDBRANCH  18  20
ENDBRANCH  16  18
ENDBRANCH  14  16
ENDBRANCH   8  14
BRANCH   1  28
HETATM   28  O   UNL     1      43.684 -17.842   6.635  1.00  0.00    -0.353 OA
HETATM   29  C   UNL     1      43.847 -16.911   7.696  1.00  0.00     0.210 C 
ENDBRANCH   1  28
BRANCH   2  30
HETATM   30  O   UNL     1      44.547 -18.930   4.416  1.00  0.00    -0.353 OA
HETATM   31  C   UNL     1      44.147 -20.289   4.312  1.00  0.00     0.210 C 
ENDBRANCH   2  30
TORSDOF 8
ENDMDL
MODEL 10
REMARK VINA RESULT:      -7.2      1.853      2.163
REMARK  8 active torsions:
REMARK  status: ('A' for Active; 'I' for Inactive)
REMARK    1  A    between atoms: O_2  and  C_3 
REMARK    2  A    between atoms: C_4  and  O_5 
REMARK    3  A    between atoms: N_12  and  N_13 
REMARK    4  A    between atoms: N_13  and  C_14 
REMARK    5  A    between atoms: C_14  and  N_15 
REMARK    6  A    between atoms: N_15  and  C_16 
REMARK    7  A    between atoms: C_16  and  C_17 
REMARK    8  A    between atoms: C_17  and  C_18 
ROOT
HETATM    1  C   UNL     1      43.620 -17.458   4.510  1.00  0.00     0.102 A 
HETATM    2  C   UNL     1      43.377 -17.993   3.226  1.00  0.00     0.103 A 
HETATM    3  C   UNL     1      42.919 -17.158   2.199  1.00  0.00     0.070 A 
HETATM    4  C   UNL     1      42.704 -15.803   2.450  1.00  0.00     0.053 A 
HETATM    5  C   UNL     1      42.964 -15.272   3.708  1.00  0.00     0.063 A 
HETATM    6  C   UNL     1      42.744 -13.829   3.933  1.00  0.00     0.281 C 
HETATM    7  O   UNL     1      43.128 -13.299   4.975  1.00  0.00    -0.265 OA
HETATM    8  N   UNL     1      42.124 -13.142   2.883  1.00  0.00    -0.190 N 
HETATM    9  C   UNL     1      41.908 -13.655   1.603  1.00  0.00     0.201 C 
HETATM   10  S   UNL     1      41.317 -12.817   0.274  1.00  0.00    -0.039 SA
HETATM   11  N   UNL     1      42.224 -14.980   1.427  1.00  0.00    -0.331 N 
HETATM   12  C   UNL     1      43.426 -16.092   4.742  1.00  0.00     0.059 A 
HETATM   13  H   UNL     1      42.042 -15.366   0.507  1.00  0.00     0.168 HD
ENDROOT
BRANCH   8  14
HETATM   14  N   UNL     1      41.767 -11.792   3.150  1.00  0.00    -0.264 N 
HETATM   15  H   UNL     1      42.565 -11.207   3.373  1.00  0.00     0.190 HD
BRANCH  14  16
HETATM   16  C   UNL     1      40.610 -11.510   3.839  1.00  0.00     0.187 C 
HETATM   17  S   UNL     1      39.039 -11.685   3.289  1.00  0.00    -0.040 SA
BRANCH  16  18
HETATM   18  N   UNL     1      40.786 -10.988   5.095  1.00  0.00    -0.366 N 
HETATM   19  H   UNL     1      39.897 -10.690   5.485  1.00  0.00     0.161 HD
BRANCH  18  20
HETATM   20  C   UNL     1      41.939 -10.191   5.506  1.00  0.00     0.126 C 
BRANCH  20  21
HETATM   21  C   UNL     1      42.129 -10.216   7.023  1.00  0.00     0.058 C 
BRANCH  21  22
HETATM   22  C   UNL     1      43.567  -9.983   7.410  1.00  0.00    -0.057 A 
HETATM   23  C   UNL     1      43.917  -8.855   8.167  1.00  0.00     0.007 A 
HETATM   24  C   UNL     1      45.248  -8.615   8.508  1.00  0.00     0.001 A 
HETATM   25  C   UNL     1      46.244  -9.495   8.092  1.00  0.00     0.000 A 
HETATM   26  C   UNL     1      45.908 -10.617   7.336  1.00  0.00     0.001 A 
HETATM   27  C   UNL     1      44.576 -10.860   6.993  1.00  0.00     0.007 A 
ENDBRANCH  21  22
ENDBRANCH  20  21
ENDBRANCH  18  20
ENDBRANCH  16  18
ENDBRANCH  14  16
ENDBRANCH   8  14
BRANCH   1  28
HETATM   28  O   UNL     1      44.061 -18.343   5.462  1.00  0.00    -0.353 OA
HETATM   29  C   UNL     1      43.539 -18.197   6.776  1.00  0.00     0.210 C 
ENDBRANCH   1  28
BRANCH   2  30
HETATM   30  O   UNL     1      43.608 -19.339   3.084  1.00  0.00    -0.353 OA
HETATM   31  C   UNL     1      43.121 -19.979   1.913  1.00  0.00     0.210 C 
ENDBRANCH   2  30
TORSDOF 8
ENDMDL
