MODEL 1
REMARK VINA RESULT:      -6.8      0.000      0.000
REMARK  2 active torsions:
REMARK  status: ('A' for Active; 'I' for Inactive)
REMARK    1  A    between atoms: N_6  and  C_7 
REMARK    2  A    between atoms: C_12  and  N_13 
ROOT
HETATM    1  C   UNL     1      43.363 -16.206   3.647  1.00  0.00     0.070 A 
HETATM    2  C   UNL     1      43.327 -17.377   2.852  1.00  0.00     0.162 A 
HETATM    3  F   UNL     1      43.005 -17.272   1.551  1.00  0.00    -0.202 F 
HETATM    4  C   UNL     1      43.572 -18.657   3.372  1.00  0.00     0.084 A 
HETATM    5 BR   UNL     1      43.521 -20.139   2.187  1.00  0.00    -0.045 Br
HETATM    6  C   UNL     1      43.859 -18.771   4.726  1.00  0.00     0.123 A 
HETATM    7  C   UNL     1      43.922 -17.647   5.553  1.00  0.00     0.040 A 
HETATM    8  C   UNL     1      43.679 -16.381   5.009  1.00  0.00     0.035 A 
ENDROOT
BRANCH   1   9
HETATM    9  N   UNL     1      43.159 -14.912   3.154  1.00  0.00    -0.375 N 
HETATM   10  C   UNL     1      42.867 -13.827   4.116  1.00  0.00     0.150 C 
HETATM   11  C   UNL     1      41.347 -13.561   4.201  1.00  0.00     0.254 C 
HETATM   12  N   UNL     1      40.767 -13.289   2.813  1.00  0.00    -0.072 N 
HETATM   13  C   UNL     1      39.299 -12.987   2.866  1.00  0.00     0.269 C 
HETATM   14  H   UNL     1      41.240 -12.455   2.441  1.00  0.00     0.279 HD
HETATM   15  C   UNL     1      41.078 -14.444   1.853  1.00  0.00     0.254 C 
HETATM   16  C   UNL     1      42.601 -14.694   1.803  1.00  0.00     0.150 C 
ENDBRANCH   1   9
BRANCH   6  17
HETATM   17  N   UNL     1      44.094 -20.060   5.333  1.00  0.00    -0.114 N 
HETATM   18  O   UNL     1      43.298 -20.416   6.211  1.00  0.00    -0.532 OA
HETATM   19  O   UNL     1      45.101 -20.675   4.962  1.00  0.00    -0.532 OA
ENDBRANCH   6  17
TORSDOF 2
ENDMDL
MODEL 2
REMARK VINA RESULT:      -6.7      2.693      3.170
REMARK  2 active torsions:
REMARK  status: ('A' for Active; 'I' for Inactive)
REMARK    1  A    between atoms: N_6  and  C_7 
REMARK    2  A    between atoms: C_12  and  N_13 
ROOT
HETATM    1  C   UNL     1      43.174 -16.766   5.097  1.00  0.00     0.070 A 
HETATM    2  C   UNL     1      43.545 -18.078   5.480  1.00  0.00     0.162 A 
HETATM    3  F   UNL     1      43.807 -18.329   6.775  1.00  0.00    -0.202 F 
HETATM    4  C   UNL     1      43.696 -19.126   4.560  1.00  0.00     0.084 A 
HETATM    5 BR   UNL     1      44.170 -20.843   5.216  1.00  0.00    -0.045 Br
HETATM    6  C   UNL     1      43.470 -18.856   3.216  1.00  0.00     0.123 A 
HETATM    7  C   UNL     1      43.087 -17.584   2.785  1.00  0.00     0.040 A 
HETATM    8  C   UNL     1      42.939 -16.557   3.724  1.00  0.00     0.035 A 
ENDROOT
BRANCH   1   9
HETATM    9  N   UNL     1      42.980 -15.708   5.993  1.00  0.00    -0.375 N 
HETATM   10  C   UNL     1      41.899 -15.821   6.996  1.00  0.00     0.150 C 
HETATM   11  C   UNL     1      40.629 -15.076   6.525  1.00  0.00     0.254 C 
HETATM   12  N   UNL     1      40.955 -13.625   6.170  1.00  0.00    -0.072 N 
HETATM   13  C   UNL     1      39.734 -12.864   5.746  1.00  0.00     0.269 C 
HETATM   14  H   UNL     1      41.319 -13.177   7.020  1.00  0.00     0.279 HD
HETATM   15  C   UNL     1      42.066 -13.554   5.116  1.00  0.00     0.254 C 
HETATM   16  C   UNL     1      43.313 -14.320   5.610  1.00  0.00     0.150 C 
ENDBRANCH   1   9
BRANCH   6  17
HETATM   17  N   UNL     1      43.634 -19.881   2.212  1.00  0.00    -0.114 N 
HETATM   18  O   UNL     1      42.628 -20.540   1.920  1.00  0.00    -0.532 OA
HETATM   19  O   UNL     1      44.776 -20.047   1.768  1.00  0.00    -0.532 OA
ENDBRANCH   6  17
TORSDOF 2
ENDMDL
MODEL 3
REMARK VINA RESULT:      -6.6      2.804      3.639
REMARK  2 active torsions:
REMARK  status: ('A' for Active; 'I' for Inactive)
REMARK    1  A    between atoms: N_6  and  C_7 
REMARK    2  A    between atoms: C_12  and  N_13 
ROOT
HETATM    1  C   UNL     1      42.995 -14.080   3.052  1.00  0.00     0.070 A 
HETATM    2  C   UNL     1      42.970 -14.919   4.193  1.00  0.00     0.162 A 
HETATM    3  F   UNL     1      42.833 -14.361   5.409  1.00  0.00    -0.202 F 
HETATM    4  C   UNL     1      43.127 -16.310   4.117  1.00  0.00     0.084 A 
HETATM    5 BR   UNL     1      43.043 -17.318   5.724  1.00  0.00    -0.045 Br
HETATM    6  C   UNL     1      43.316 -16.882   2.865  1.00  0.00     0.123 A 
HETATM    7  C   UNL     1      43.334 -16.103   1.706  1.00  0.00     0.040 A 
HETATM    8  C   UNL     1      43.170 -14.718   1.808  1.00  0.00     0.035 A 
ENDROOT
BRANCH   1   9
HETATM    9  N   UNL     1      42.806 -12.693   3.089  1.00  0.00    -0.375 N 
HETATM   10  C   UNL     1      43.946 -11.836   3.479  1.00  0.00     0.150 C 
HETATM   11  C   UNL     1      43.858 -11.446   4.972  1.00  0.00     0.254 C 
HETATM   12  N   UNL     1      42.505 -10.806   5.284  1.00  0.00    -0.072 N 
HETATM   13  C   UNL     1      42.403 -10.380   6.718  1.00  0.00     0.269 C 
HETATM   14  H   UNL     1      42.426  -9.960   4.704  1.00  0.00     0.279 HD
HETATM   15  C   UNL     1      41.353 -11.734   4.880  1.00  0.00     0.254 C 
HETATM   16  C   UNL     1      41.479 -12.116   3.390  1.00  0.00     0.150 C 
ENDBRANCH   1   9
BRANCH   6  17
HETATM   17  N   UNL     1      43.512 -18.305   2.716  1.00  0.00    -0.114 N 
HETATM   18  O   UNL     1      44.597 -18.761   3.098  1.00  0.00    -0.532 OA
HETATM   19  O   UNL     1      42.600 -18.939   2.172  1.00  0.00    -0.532 OA
ENDBRANCH   6  17
TORSDOF 2
ENDMDL
MODEL 4
REMARK VINA RESULT:      -6.5      5.581      7.458
REMARK  2 active torsions:
REMARK  status: ('A' for Active; 'I' for Inactive)
REMARK    1  A    between atoms: N_6  and  C_7 
REMARK    2  A    between atoms: C_12  and  N_13 
ROOT
HETATM    1  C   UNL     1      40.942 -13.966   0.930  1.00  0.00     0.070 A 
HETATM    2  C   UNL     1      40.879 -12.736   0.230  1.00  0.00     0.162 A 
HETATM    3  F   UNL     1      41.534 -11.671   0.725  1.00  0.00    -0.202 F 
HETATM    4  C   UNL     1      40.127 -12.564  -0.941  1.00  0.00     0.084 A 
HETATM    5 BR   UNL     1      40.156 -10.868  -1.793  1.00  0.00    -0.045 Br
HETATM    6  C   UNL     1      39.412 -13.652  -1.427  1.00  0.00     0.123 A 
HETATM    7  C   UNL     1      39.450 -14.892  -0.785  1.00  0.00     0.040 A 
HETATM    8  C   UNL     1      40.213 -15.039   0.378  1.00  0.00     0.035 A 
ENDROOT
BRANCH   1   9
HETATM    9  N   UNL     1      41.711 -14.181   2.079  1.00  0.00    -0.375 N 
HETATM   10  C   UNL     1      43.171 -14.361   1.927  1.00  0.00     0.150 C 
HETATM   11  C   UNL     1      43.545 -15.861   1.929  1.00  0.00     0.254 C 
HETATM   12  N   UNL     1      42.991 -16.554   3.174  1.00  0.00    -0.072 N 
HETATM   13  C   UNL     1      43.372 -18.004   3.225  1.00  0.00     0.269 C 
HETATM   14  H   UNL     1      43.413 -16.096   3.993  1.00  0.00     0.279 HD
HETATM   15  C   UNL     1      41.475 -16.357   3.283  1.00  0.00     0.254 C 
HETATM   16  C   UNL     1      41.135 -14.852   3.263  1.00  0.00     0.150 C 
ENDBRANCH   1   9
BRANCH   6  17
HETATM   17  N   UNL     1      38.594 -13.538  -2.612  1.00  0.00    -0.114 N 
HETATM   18  O   UNL     1      37.419 -13.189  -2.445  1.00  0.00    -0.532 OA
HETATM   19  O   UNL     1      39.123 -13.850  -3.685  1.00  0.00    -0.532 OA
ENDBRANCH   6  17
TORSDOF 2
ENDMDL
MODEL 5
REMARK VINA RESULT:      -6.4      2.792      3.582
REMARK  2 active torsions:
REMARK  status: ('A' for Active; 'I' for Inactive)
REMARK    1  A    between atoms: N_6  and  C_7 
REMARK    2  A    between atoms: C_12  and  N_13 
ROOT
HETATM    1  C   UNL     1      41.017 -15.688   3.071  1.00  0.00     0.070 A 
HETATM    2  C   UNL     1      41.139 -15.585   4.478  1.00  0.00     0.162 A 
HETATM    3  F   UNL     1      40.285 -14.792   5.149  1.00  0.00    -0.202 F 
HETATM    4  C   UNL     1      42.141 -16.243   5.205  1.00  0.00     0.084 A 
HETATM    5 BR   UNL     1      42.169 -16.041   7.092  1.00  0.00    -0.045 Br
HETATM    6  C   UNL     1      43.052 -17.026   4.506  1.00  0.00     0.123 A 
HETATM    7  C   UNL     1      42.970 -17.174   3.120  1.00  0.00     0.040 A 
HETATM    8  C   UNL     1      41.957 -16.511   2.419  1.00  0.00     0.035 A 
ENDROOT
BRANCH   1   9
HETATM    9  N   UNL     1      40.008 -15.074   2.319  1.00  0.00    -0.375 N 
HETATM   10  C   UNL     1      39.816 -15.499   0.916  1.00  0.00     0.150 C 
HETATM   11  C   UNL     1      40.524 -14.526  -0.056  1.00  0.00     0.254 C 
HETATM   12  N   UNL     1      40.069 -13.088   0.193  1.00  0.00    -0.072 N 
HETATM   13  C   UNL     1      40.708 -12.124  -0.761  1.00  0.00     0.269 C 
HETATM   14  H   UNL     1      39.054 -13.056   0.031  1.00  0.00     0.279 HD
HETATM   15  C   UNL     1      40.301 -12.685   1.653  1.00  0.00     0.254 C 
HETATM   16  C   UNL     1      39.595 -13.683   2.597  1.00  0.00     0.150 C 
ENDBRANCH   1   9
BRANCH   6  17
HETATM   17  N   UNL     1      44.126 -17.708   5.188  1.00  0.00    -0.114 N 
HETATM   18  O   UNL     1      43.993 -18.927   5.358  1.00  0.00    -0.532 OA
HETATM   19  O   UNL     1      45.063 -17.009   5.591  1.00  0.00    -0.532 OA
ENDBRANCH   6  17
TORSDOF 2
ENDMDL
MODEL 6
REMARK VINA RESULT:      -6.4      4.892      6.732
REMARK  2 active torsions:
REMARK  status: ('A' for Active; 'I' for Inactive)
REMARK    1  A    between atoms: N_6  and  C_7 
REMARK    2  A    between atoms: C_12  and  N_13 
ROOT
HETATM    1  C   UNL     1      40.983 -15.159   1.785  1.00  0.00     0.070 A 
HETATM    2  C   UNL     1      40.173 -15.143   0.624  1.00  0.00     0.162 A 
HETATM    3  F   UNL     1      39.500 -16.257   0.284  1.00  0.00    -0.202 F 
HETATM    4  C   UNL     1      40.073 -14.027  -0.218  1.00  0.00     0.084 A 
HETATM    5 BR   UNL     1      38.926 -14.133  -1.727  1.00  0.00    -0.045 Br
HETATM    6  C   UNL     1      40.805 -12.892   0.107  1.00  0.00     0.123 A 
HETATM    7  C   UNL     1      41.608 -12.848   1.249  1.00  0.00     0.040 A 
HETATM    8  C   UNL     1      41.686 -13.973   2.076  1.00  0.00     0.035 A 
ENDROOT
BRANCH   1   9
HETATM    9  N   UNL     1      41.078 -16.244   2.666  1.00  0.00    -0.375 N 
HETATM   10  C   UNL     1      40.683 -16.043   4.077  1.00  0.00     0.150 C 
HETATM   11  C   UNL     1      41.922 -15.780   4.964  1.00  0.00     0.254 C 
HETATM   12  N   UNL     1      42.955 -16.893   4.793  1.00  0.00    -0.072 N 
HETATM   13  C   UNL     1      44.153 -16.687   5.671  1.00  0.00     0.269 C 
HETATM   14  H   UNL     1      42.508 -17.773   5.082  1.00  0.00     0.279 HD
HETATM   15  C   UNL     1      43.348 -17.055   3.320  1.00  0.00     0.254 C 
HETATM   16  C   UNL     1      42.090 -17.302   2.461  1.00  0.00     0.150 C 
ENDBRANCH   1   9
BRANCH   6  17
HETATM   17  N   UNL     1      40.770 -11.716  -0.730  1.00  0.00    -0.114 N 
HETATM   18  O   UNL     1      41.500 -11.721  -1.729  1.00  0.00    -0.532 OA
HETATM   19  O   UNL     1      40.053 -10.782  -0.350  1.00  0.00    -0.532 OA
ENDBRANCH   6  17
TORSDOF 2
ENDMDL
MODEL 7
REMARK VINA RESULT:      -6.2      2.269      2.899
REMARK  2 active torsions:
REMARK  status: ('A' for Active; 'I' for Inactive)
REMARK    1  A    between atoms: N_6  and  C_7 
REMARK    2  A    between atoms: C_12  and  N_13 
ROOT
HETATM    1  C   UNL     1      43.199 -14.054   5.382  1.00  0.00     0.070 A 
HETATM    2  C   UNL     1      42.857 -14.840   4.254  1.00  0.00     0.162 A 
HETATM    3  F   UNL     1      42.201 -14.261   3.232  1.00  0.00    -0.202 F 
HETATM    4  C   UNL     1      43.134 -16.212   4.170  1.00  0.00     0.084 A 
HETATM    5 BR   UNL     1      42.647 -17.137   2.585  1.00  0.00    -0.045 Br
HETATM    6  C   UNL     1      43.771 -16.819   5.245  1.00  0.00     0.123 A 
HETATM    7  C   UNL     1      44.144 -16.089   6.376  1.00  0.00     0.040 A 
HETATM    8  C   UNL     1      43.860 -14.721   6.432  1.00  0.00     0.035 A 
ENDROOT
BRANCH   1   9
HETATM    9  N   UNL     1      42.969 -12.677   5.483  1.00  0.00    -0.375 N 
HETATM   10  C   UNL     1      41.597 -12.211   5.777  1.00  0.00     0.150 C 
HETATM   11  C   UNL     1      40.867 -11.792   4.480  1.00  0.00     0.254 C 
HETATM   12  N   UNL     1      41.689 -10.760   3.706  1.00  0.00    -0.072 N 
HETATM   13  C   UNL     1      40.988 -10.304   2.461  1.00  0.00     0.269 C 
HETATM   14  H   UNL     1      41.800  -9.940   4.316  1.00  0.00     0.279 HD
HETATM   15  C   UNL     1      43.096 -11.290   3.409  1.00  0.00     0.254 C 
HETATM   16  C   UNL     1      43.790 -11.713   4.721  1.00  0.00     0.150 C 
ENDBRANCH   1   9
BRANCH   6  17
HETATM   17  N   UNL     1      44.062 -18.234   5.237  1.00  0.00    -0.114 N 
HETATM   18  O   UNL     1      44.878 -18.630   4.396  1.00  0.00    -0.532 OA
HETATM   19  O   UNL     1      43.431 -18.936   6.036  1.00  0.00    -0.532 OA
ENDBRANCH   6  17
TORSDOF 2
ENDMDL
MODEL 8
REMARK VINA RESULT:      -6.1      2.403      3.019
REMARK  2 active torsions:
REMARK  status: ('A' for Active; 'I' for Inactive)
REMARK    1  A    between atoms: N_6  and  C_7 
REMARK    2  A    between atoms: C_12  and  N_13 
ROOT
HETATM    1  C   UNL     1      41.776 -15.279   2.835  1.00  0.00     0.070 A 
HETATM    2  C   UNL     1      42.411 -15.074   4.084  1.00  0.00     0.162 A 
HETATM    3  F   UNL     1      42.363 -13.853   4.646  1.00  0.00    -0.202 F 
HETATM    4  C   UNL     1      43.130 -16.079   4.746  1.00  0.00     0.084 A 
HETATM    5 BR   UNL     1      43.908 -15.674   6.430  1.00  0.00    -0.045 Br
HETATM    6  C   UNL     1      43.220 -17.327   4.143  1.00  0.00     0.123 A 
HETATM    7  C   UNL     1      42.600 -17.589   2.919  1.00  0.00     0.040 A 
HETATM    8  C   UNL     1      41.884 -16.570   2.281  1.00  0.00     0.035 A 
ENDROOT
BRANCH   1   9
HETATM    9  N   UNL     1      41.021 -14.309   2.165  1.00  0.00    -0.375 N 
HETATM   10  C   UNL     1      41.736 -13.244   1.427  1.00  0.00     0.150 C 
HETATM   11  C   UNL     1      41.830 -11.954   2.274  1.00  0.00     0.254 C 
HETATM   12  N   UNL     1      40.444 -11.516   2.748  1.00  0.00    -0.072 N 
HETATM   13  C   UNL     1      40.497 -10.244   3.539  1.00  0.00     0.269 C 
HETATM   14  H   UNL     1      39.878 -11.334   1.908  1.00  0.00     0.279 HD
HETATM   15  C   UNL     1      39.747 -12.642   3.520  1.00  0.00     0.254 C 
HETATM   16  C   UNL     1      39.682 -13.918   2.654  1.00  0.00     0.150 C 
ENDBRANCH   1   9
BRANCH   6  17
HETATM   17  N   UNL     1      43.968 -18.400   4.756  1.00  0.00    -0.114 N 
HETATM   18  O   UNL     1      43.496 -18.888   5.790  1.00  0.00    -0.532 OA
HETATM   19  O   UNL     1      45.042 -18.704   4.224  1.00  0.00    -0.532 OA
ENDBRANCH   6  17
TORSDOF 2
ENDMDL
MODEL 9
REMARK VINA RESULT:      -6.1      4.508      6.044
REMARK  2 active torsions:
REMARK  status: ('A' for Active; 'I' for Inactive)
REMARK    1  A    between atoms: N_6  and  C_7 
REMARK    2  A    between atoms: C_12  and  N_13 
ROOT
HETATM    1  C   UNL     1      40.185 -14.099  -0.063  1.00  0.00     0.070 A 
HETATM    2  C   UNL     1      41.037 -13.234   0.666  1.00  0.00     0.162 A 
HETATM    3  F   UNL     1      41.331 -12.026   0.153  1.00  0.00    -0.202 F 
HETATM    4  C   UNL     1      41.628 -13.597   1.884  1.00  0.00     0.084 A 
HETATM    5 BR   UNL     1      42.727 -12.328   2.770  1.00  0.00    -0.045 Br
HETATM    6  C   UNL     1      41.361 -14.863   2.391  1.00  0.00     0.123 A 
HETATM    7  C   UNL     1      40.516 -15.751   1.721  1.00  0.00     0.040 A 
HETATM    8  C   UNL     1      39.935 -15.362   0.509  1.00  0.00     0.035 A 
ENDROOT
BRANCH   1   9
HETATM    9  N   UNL     1      39.551 -13.755  -1.263  1.00  0.00    -0.375 N 
HETATM   10  C   UNL     1      40.319 -13.859  -2.522  1.00  0.00     0.150 C 
HETATM   11  C   UNL     1      40.887 -12.482  -2.937  1.00  0.00     0.254 C 
HETATM   12  N   UNL     1      39.772 -11.438  -3.011  1.00  0.00    -0.072 N 
HETATM   13  C   UNL     1      40.284 -10.099  -3.450  1.00  0.00     0.269 C 
HETATM   14  H   UNL     1      39.099 -11.759  -3.720  1.00  0.00     0.279 HD
HETATM   15  C   UNL     1      39.013 -11.352  -1.682  1.00  0.00     0.254 C 
HETATM   16  C   UNL     1      38.473 -12.743  -1.289  1.00  0.00     0.150 C 
ENDBRANCH   1   9
BRANCH   6  17
HETATM   17  N   UNL     1      41.958 -15.313   3.626  1.00  0.00    -0.114 N 
HETATM   18  O   UNL     1      43.064 -15.862   3.544  1.00  0.00    -0.532 OA
HETATM   19  O   UNL     1      41.290 -15.160   4.655  1.00  0.00    -0.532 OA
ENDBRANCH   6  17
TORSDOF 2
ENDMDL
MODEL 10
REMARK VINA RESULT:      -6.1      6.448      7.673
REMARK  2 active torsions:
REMARK  status: ('A' for Active; 'I' for Inactive)
REMARK    1  A    between atoms: N_6  and  C_7 
REMARK    2  A    between atoms: C_12  and  N_13 
ROOT
HETATM    1  C   UNL     1      43.672 -11.965   6.105  1.00  0.00     0.070 A 
HETATM    2  C   UNL     1      42.857 -10.942   6.650  1.00  0.00     0.162 A 
HETATM    3  F   UNL     1      41.573 -10.855   6.259  1.00  0.00    -0.202 F 
HETATM    4  C   UNL     1      43.341  -9.984   7.551  1.00  0.00     0.084 A 
HETATM    5 BR   UNL     1      42.131  -8.686   8.226  1.00  0.00    -0.045 Br
HETATM    6  C   UNL     1      44.679 -10.046   7.919  1.00  0.00     0.123 A 
HETATM    7  C   UNL     1      45.524 -11.042   7.424  1.00  0.00     0.040 A 
HETATM    8  C   UNL     1      45.015 -11.990   6.530  1.00  0.00     0.035 A 
ENDROOT
BRANCH   1   9
HETATM    9  N   UNL     1      43.212 -12.958   5.231  1.00  0.00    -0.375 N 
HETATM   10  C   UNL     1      43.169 -12.659   3.784  1.00  0.00     0.150 C 
HETATM   11  C   UNL     1      41.747 -12.237   3.350  1.00  0.00     0.254 C 
HETATM   12  N   UNL     1      40.720 -13.290   3.766  1.00  0.00    -0.072 N 
HETATM   13  C   UNL     1      39.334 -12.928   3.324  1.00  0.00     0.269 C 
HETATM   14  H   UNL     1      40.975 -14.168   3.295  1.00  0.00     0.279 HD
HETATM   15  C   UNL     1      40.787 -13.556   5.274  1.00  0.00     0.254 C 
HETATM   16  C   UNL     1      42.222 -13.961   5.676  1.00  0.00     0.150 C 
ENDBRANCH   1   9
BRANCH   6  17
HETATM   17  N   UNL     1      45.251  -9.074   8.822  1.00  0.00    -0.114 N 
HETATM   18  O   UNL     1      45.565  -7.980   8.337  1.00  0.00    -0.532 OA
HETATM   19  O   UNL     1      45.426  -9.437   9.991  1.00  0.00    -0.532 OA
ENDBRANCH   6  17
TORSDOF 2
ENDMDL
