MODEL 1
REMARK VINA RESULT:      -8.8      0.000      0.000
REMARK  3 active torsions:
REMARK  status: ('A' for Active; 'I' for Inactive)
REMARK    1  A    between atoms: C_3  and  C_4 
REMARK    2  A    between atoms: C_11  and  N_12 
REMARK       I    between atoms: N_12  and  C_13 
REMARK       I    between atoms: C_13  and  N_14 
REMARK    3  A    between atoms: N_14  and  C_15 
ROOT
HETATM    1  C   UNL     1      44.619 -11.527   5.329  1.00  0.00     0.001 A 
HETATM    2  C   UNL     1      43.995 -11.688   4.094  1.00  0.00     0.016 A 
HETATM    3  C   UNL     1      42.962 -12.623   3.950  1.00  0.00     0.021 A 
HETATM    4  C   UNL     1      42.553 -13.417   5.039  1.00  0.00     0.049 A 
HETATM    5  C   UNL     1      43.204 -13.257   6.268  1.00  0.00     0.030 A 
HETATM    6  C   UNL     1      44.223 -12.310   6.414  1.00  0.00     0.002 A 
ENDROOT
BRANCH   4   7
HETATM    7  N   UNL     1      41.584 -14.421   4.845  1.00  0.00    -0.308 N 
HETATM    8  C   UNL     1      41.660 -15.676   4.304  1.00  0.00     0.325 C 
HETATM    9  N   UNL     1      42.910 -16.189   4.113  1.00  0.00    -0.306 N 
HETATM   10  O   UNL     1      40.604 -16.286   4.146  1.00  0.00    -0.247 OA
HETATM   11  H   UNL     1      43.698 -15.584   4.303  1.00  0.00     0.171 HD
HETATM   12  H   UNL     1      40.662 -14.252   5.233  1.00  0.00     0.170 HD
BRANCH   9  13
HETATM   13  C   UNL     1      43.262 -17.516   3.784  1.00  0.00     0.075 A 
HETATM   14  C   UNL     1      43.813 -18.300   4.808  1.00  0.00     0.146 A 
HETATM   15  F   UNL     1      44.011 -17.754   6.020  1.00  0.00    -0.204 F 
HETATM   16  C   UNL     1      44.156 -19.631   4.609  1.00  0.00     0.086 A 
HETATM   17  C   UNL     1      43.937 -20.194   3.361  1.00  0.00     0.119 A 
HETATM   18  F   UNL     1      44.245 -21.480   3.153  1.00  0.00    -0.206 F 
HETATM   19  C   UNL     1      43.393 -19.443   2.323  1.00  0.00     0.044 A 
HETATM   20  C   UNL     1      43.061 -18.100   2.531  1.00  0.00     0.036 A 
ENDBRANCH   9  13
ENDBRANCH   4   7
BRANCH   3  21
HETATM   21  C   UNL     1      42.284 -12.683   2.632  1.00  0.00     0.089 A 
HETATM   22  N   UNL     1      42.391 -13.751   1.905  1.00  0.00    -0.171 NA
HETATM   23  N   UNL     1      41.732 -13.742   0.708  1.00  0.00    -0.243 N 
HETATM   24  C   UNL     1      40.968 -12.713   0.217  1.00  0.00     0.261 A 
HETATM   25  H   UNL     1      41.800 -14.583   0.144  1.00  0.00     0.192 HD
HETATM   26  O   UNL     1      40.379 -12.762  -0.857  1.00  0.00    -0.267 OA
HETATM   27  C   UNL     1      40.895 -11.507   1.062  1.00  0.00     0.078 A 
HETATM   28  C   UNL     1      41.535 -11.466   2.232  1.00  0.00     0.040 A 
ENDBRANCH   3  21
TORSDOF 3
ENDMDL
MODEL 2
REMARK VINA RESULT:      -8.5      2.011      2.720
REMARK  3 active torsions:
REMARK  status: ('A' for Active; 'I' for Inactive)
REMARK    1  A    between atoms: C_3  and  C_4 
REMARK    2  A    between atoms: C_11  and  N_12 
REMARK       I    between atoms: N_12  and  C_13 
REMARK       I    between atoms: C_13  and  N_14 
REMARK    3  A    between atoms: N_14  and  C_15 
ROOT
HETATM    1  C   UNL     1      39.495 -12.228   4.678  1.00  0.00     0.001 A 
HETATM    2  C   UNL     1      39.227 -12.539   3.346  1.00  0.00     0.016 A 
HETATM    3  C   UNL     1      40.221 -13.130   2.555  1.00  0.00     0.021 A 
HETATM    4  C   UNL     1      41.496 -13.403   3.086  1.00  0.00     0.049 A 
HETATM    5  C   UNL     1      41.754 -13.066   4.420  1.00  0.00     0.030 A 
HETATM    6  C   UNL     1      40.755 -12.492   5.213  1.00  0.00     0.002 A 
ENDROOT
BRANCH   4   7
HETATM    7  N   UNL     1      42.510 -13.903   2.245  1.00  0.00    -0.308 N 
HETATM    8  C   UNL     1      43.203 -15.083   2.245  1.00  0.00     0.325 C 
HETATM    9  N   UNL     1      42.710 -16.085   3.031  1.00  0.00    -0.306 N 
HETATM   10  O   UNL     1      44.137 -15.189   1.453  1.00  0.00    -0.247 OA
HETATM   11  H   UNL     1      41.919 -15.869   3.622  1.00  0.00     0.171 HD
HETATM   12  H   UNL     1      42.748 -13.346   1.430  1.00  0.00     0.170 HD
BRANCH   9  13
HETATM   13  C   UNL     1      43.095 -17.443   3.046  1.00  0.00     0.075 A 
HETATM   14  C   UNL     1      43.850 -17.877   4.147  1.00  0.00     0.146 A 
HETATM   15  F   UNL     1      44.195 -16.992   5.097  1.00  0.00    -0.204 F 
HETATM   16  C   UNL     1      44.247 -19.201   4.287  1.00  0.00     0.086 A 
HETATM   17  C   UNL     1      43.876 -20.112   3.311  1.00  0.00     0.119 A 
HETATM   18  F   UNL     1      44.235 -21.396   3.435  1.00  0.00    -0.206 F 
HETATM   19  C   UNL     1      43.130 -19.714   2.205  1.00  0.00     0.044 A 
HETATM   20  C   UNL     1      42.743 -18.376   2.069  1.00  0.00     0.036 A 
ENDBRANCH   9  13
ENDBRANCH   4   7
BRANCH   3  21
HETATM   21  C   UNL     1      39.844 -13.514   1.173  1.00  0.00     0.089 A 
HETATM   22  N   UNL     1      39.931 -14.756   0.807  1.00  0.00    -0.171 NA
HETATM   23  N   UNL     1      39.557 -15.040  -0.476  1.00  0.00    -0.243 N 
HETATM   24  C   UNL     1      39.097 -14.136  -1.400  1.00  0.00     0.261 A 
HETATM   25  H   UNL     1      39.608 -16.013  -0.760  1.00  0.00     0.192 HD
HETATM   26  O   UNL     1      38.755 -14.446  -2.536  1.00  0.00    -0.267 OA
HETATM   27  C   UNL     1      39.040 -12.732  -0.953  1.00  0.00     0.078 A 
HETATM   28  C   UNL     1      39.409 -12.406   0.287  1.00  0.00     0.040 A 
ENDBRANCH   3  21
TORSDOF 3
ENDMDL
MODEL 3
REMARK VINA RESULT:      -8.5      2.895      5.957
REMARK  3 active torsions:
REMARK  status: ('A' for Active; 'I' for Inactive)
REMARK    1  A    between atoms: C_3  and  C_4 
REMARK    2  A    between atoms: C_11  and  N_12 
REMARK       I    between atoms: N_12  and  C_13 
REMARK       I    between atoms: C_13  and  N_14 
REMARK    3  A    between atoms: N_14  and  C_15 
ROOT
HETATM    1  C   UNL     1      44.136 -18.567   2.675  1.00  0.00     0.001 A 
HETATM    2  C   UNL     1      43.217 -17.617   2.234  1.00  0.00     0.016 A 
HETATM    3  C   UNL     1      42.448 -16.905   3.165  1.00  0.00     0.021 A 
HETATM    4  C   UNL     1      42.582 -17.148   4.545  1.00  0.00     0.049 A 
HETATM    5  C   UNL     1      43.497 -18.120   4.970  1.00  0.00     0.030 A 
HETATM    6  C   UNL     1      44.275 -18.817   4.040  1.00  0.00     0.002 A 
ENDROOT
BRANCH   4   7
HETATM    7  N   UNL     1      41.728 -16.496   5.455  1.00  0.00    -0.308 N 
HETATM    8  C   UNL     1      41.851 -15.323   6.149  1.00  0.00     0.325 C 
HETATM    9  N   UNL     1      42.851 -14.480   5.758  1.00  0.00    -0.306 N 
HETATM   10  O   UNL     1      40.985 -15.068   6.984  1.00  0.00    -0.247 OA
HETATM   11  H   UNL     1      43.485 -14.806   5.042  1.00  0.00     0.171 HD
HETATM   12  H   UNL     1      40.806 -16.899   5.592  1.00  0.00     0.170 HD
BRANCH   9  13
HETATM   13  C   UNL     1      43.056 -13.139   6.150  1.00  0.00     0.075 A 
HETATM   14  C   UNL     1      42.285 -12.162   5.502  1.00  0.00     0.146 A 
HETATM   15  F   UNL     1      41.431 -12.534   4.535  1.00  0.00    -0.204 F 
HETATM   16  C   UNL     1      42.374 -10.817   5.837  1.00  0.00     0.086 A 
HETATM   17  C   UNL     1      43.247 -10.440   6.846  1.00  0.00     0.119 A 
HETATM   18  F   UNL     1      43.335  -9.150   7.195  1.00  0.00    -0.206 F 
HETATM   19  C   UNL     1      44.028 -11.383   7.508  1.00  0.00     0.044 A 
HETATM   20  C   UNL     1      43.938 -12.735   7.155  1.00  0.00     0.036 A 
ENDBRANCH   9  13
ENDBRANCH   4   7
BRANCH   3  21
HETATM   21  C   UNL     1      41.552 -15.849   2.634  1.00  0.00     0.089 A 
HETATM   22  N   UNL     1      40.281 -15.902   2.887  1.00  0.00    -0.171 NA
HETATM   23  N   UNL     1      39.516 -14.891   2.377  1.00  0.00    -0.243 N 
HETATM   24  C   UNL     1      39.973 -13.833   1.632  1.00  0.00     0.261 A 
HETATM   25  H   UNL     1      38.524 -14.920   2.587  1.00  0.00     0.192 HD
HETATM   26  O   UNL     1      39.246 -12.939   1.212  1.00  0.00    -0.267 OA
HETATM   27  C   UNL     1      41.419 -13.826   1.343  1.00  0.00     0.078 A 
HETATM   28  C   UNL     1      42.201 -14.801   1.809  1.00  0.00     0.040 A 
ENDBRANCH   3  21
TORSDOF 3
ENDMDL
MODEL 4
REMARK VINA RESULT:      -8.2      2.469      3.833
REMARK  3 active torsions:
REMARK  status: ('A' for Active; 'I' for Inactive)
REMARK    1  A    between atoms: C_3  and  C_4 
REMARK    2  A    between atoms: C_11  and  N_12 
REMARK       I    between atoms: N_12  and  C_13 
REMARK       I    between atoms: C_13  and  N_14 
REMARK    3  A    between atoms: N_14  and  C_15 
ROOT
HETATM    1  C   UNL     1      41.319 -10.004   1.124  1.00  0.00     0.001 A 
HETATM    2  C   UNL     1      40.775 -10.776   0.100  1.00  0.00     0.016 A 
HETATM    3  C   UNL     1      40.177 -12.008   0.397  1.00  0.00     0.021 A 
HETATM    4  C   UNL     1      40.130 -12.484   1.722  1.00  0.00     0.049 A 
HETATM    5  C   UNL     1      40.699 -11.704   2.736  1.00  0.00     0.030 A 
HETATM    6  C   UNL     1      41.280 -10.466   2.439  1.00  0.00     0.002 A 
ENDROOT
BRANCH   4   7
HETATM    7  N   UNL     1      39.617 -13.769   1.983  1.00  0.00    -0.308 N 
HETATM    8  C   UNL     1      40.227 -14.975   2.196  1.00  0.00     0.325 C 
HETATM    9  N   UNL     1      41.571 -14.949   2.439  1.00  0.00    -0.306 N 
HETATM   10  O   UNL     1      39.506 -15.967   2.271  1.00  0.00    -0.247 OA
HETATM   11  H   UNL     1      42.042 -14.058   2.366  1.00  0.00     0.171 HD
HETATM   12  H   UNL     1      38.614 -13.845   2.122  1.00  0.00     0.170 HD
BRANCH   9  13
HETATM   13  C   UNL     1      42.389 -16.004   2.899  1.00  0.00     0.075 A 
HETATM   14  C   UNL     1      42.817 -15.941   4.234  1.00  0.00     0.146 A 
HETATM   15  F   UNL     1      42.467 -14.886   4.987  1.00  0.00    -0.204 F 
HETATM   16  C   UNL     1      43.589 -16.945   4.803  1.00  0.00     0.086 A 
HETATM   17  C   UNL     1      43.936 -18.039   4.026  1.00  0.00     0.119 A 
HETATM   18  F   UNL     1      44.666 -19.025   4.561  1.00  0.00    -0.206 F 
HETATM   19  C   UNL     1      43.529 -18.131   2.698  1.00  0.00     0.044 A 
HETATM   20  C   UNL     1      42.760 -17.109   2.130  1.00  0.00     0.036 A 
ENDBRANCH   9  13
ENDBRANCH   4   7
BRANCH   3  21
HETATM   21  C   UNL     1      39.542 -12.739  -0.726  1.00  0.00     0.089 A 
HETATM   22  N   UNL     1      38.250 -12.759  -0.827  1.00  0.00    -0.171 NA
HETATM   23  N   UNL     1      37.733 -13.442  -1.892  1.00  0.00    -0.243 N 
HETATM   24  C   UNL     1      38.455 -14.097  -2.857  1.00  0.00     0.261 A 
HETATM   25  H   UNL     1      36.722 -13.446  -1.984  1.00  0.00     0.192 HD
HETATM   26  O   UNL     1      37.943 -14.680  -3.806  1.00  0.00    -0.267 OA
HETATM   27  C   UNL     1      39.920 -14.073  -2.690  1.00  0.00     0.078 A 
HETATM   28  C   UNL     1      40.468 -13.431  -1.657  1.00  0.00     0.040 A 
ENDBRANCH   3  21
TORSDOF 3
ENDMDL
MODEL 5
REMARK VINA RESULT:      -8.1      2.083      4.189
REMARK  3 active torsions:
REMARK  status: ('A' for Active; 'I' for Inactive)
REMARK    1  A    between atoms: C_3  and  C_4 
REMARK    2  A    between atoms: C_11  and  N_12 
REMARK       I    between atoms: N_12  and  C_13 
REMARK       I    between atoms: C_13  and  N_14 
REMARK    3  A    between atoms: N_14  and  C_15 
ROOT
HETATM    1  C   UNL     1      40.824 -12.119  -1.261  1.00  0.00     0.001 A 
HETATM    2  C   UNL     1      41.152 -11.763   0.045  1.00  0.00     0.016 A 
HETATM    3  C   UNL     1      40.849 -12.631   1.102  1.00  0.00     0.021 A 
HETATM    4  C   UNL     1      40.203 -13.859   0.862  1.00  0.00     0.049 A 
HETATM    5  C   UNL     1      39.864 -14.193  -0.455  1.00  0.00     0.030 A 
HETATM    6  C   UNL     1      40.182 -13.332  -1.510  1.00  0.00     0.002 A 
ENDROOT
BRANCH   4   7
HETATM    7  N   UNL     1      39.818 -14.669   1.948  1.00  0.00    -0.308 N 
HETATM    8  C   UNL     1      40.393 -15.771   2.520  1.00  0.00     0.325 C 
HETATM    9  N   UNL     1      41.684 -16.042   2.169  1.00  0.00    -0.306 N 
HETATM   10  O   UNL     1      39.750 -16.356   3.389  1.00  0.00    -0.247 OA
HETATM   11  H   UNL     1      42.105 -15.467   1.452  1.00  0.00     0.171 HD
HETATM   12  H   UNL     1      39.006 -14.370   2.480  1.00  0.00     0.170 HD
BRANCH   9  13
HETATM   13  C   UNL     1      42.568 -16.968   2.765  1.00  0.00     0.075 A 
HETATM   14  C   UNL     1      43.182 -16.579   3.965  1.00  0.00     0.146 A 
HETATM   15  F   UNL     1      42.935 -15.356   4.463  1.00  0.00    -0.204 F 
HETATM   16  C   UNL     1      44.037 -17.426   4.659  1.00  0.00     0.086 A 
HETATM   17  C   UNL     1      44.277 -18.692   4.148  1.00  0.00     0.119 A 
HETATM   18  F   UNL     1      45.084 -19.529   4.810  1.00  0.00    -0.206 F 
HETATM   19  C   UNL     1      43.685 -19.108   2.959  1.00  0.00     0.044 A 
HETATM   20  C   UNL     1      42.834 -18.243   2.262  1.00  0.00     0.036 A 
ENDBRANCH   9  13
ENDBRANCH   4   7
BRANCH   3  21
HETATM   21  C   UNL     1      41.302 -12.231   2.456  1.00  0.00     0.089 A 
HETATM   22  N   UNL     1      40.440 -11.768   3.308  1.00  0.00    -0.171 NA
HETATM   23  N   UNL     1      40.924 -11.429   4.540  1.00  0.00    -0.243 N 
HETATM   24  C   UNL     1      42.227 -11.540   4.952  1.00  0.00     0.261 A 
HETATM   25  H   UNL     1      40.249 -11.082   5.214  1.00  0.00     0.192 HD
HETATM   26  O   UNL     1      42.608 -11.239   6.078  1.00  0.00    -0.267 OA
HETATM   27  C   UNL     1      43.179 -12.044   3.945  1.00  0.00     0.078 A 
HETATM   28  C   UNL     1      42.754 -12.373   2.724  1.00  0.00     0.040 A 
ENDBRANCH   3  21
TORSDOF 3
ENDMDL
MODEL 6
REMARK VINA RESULT:      -8.0     14.586     16.221
REMARK  3 active torsions:
REMARK  status: ('A' for Active; 'I' for Inactive)
REMARK    1  A    between atoms: C_3  and  C_4 
REMARK    2  A    between atoms: C_11  and  N_12 
REMARK       I    between atoms: N_12  and  C_13 
REMARK       I    between atoms: C_13  and  N_14 
REMARK    3  A    between atoms: N_14  and  C_15 
ROOT
HETATM    1  C   UNL     1      44.317 -29.410  -3.719  1.00  0.00     0.001 A 
HETATM    2  C   UNL     1      43.736 -29.850  -2.532  1.00  0.00     0.016 A 
HETATM    3  C   UNL     1      44.170 -29.327  -1.307  1.00  0.00     0.021 A 
HETATM    4  C   UNL     1      45.199 -28.367  -1.258  1.00  0.00     0.049 A 
HETATM    5  C   UNL     1      45.785 -27.950  -2.459  1.00  0.00     0.030 A 
HETATM    6  C   UNL     1      45.339 -28.461  -3.682  1.00  0.00     0.002 A 
ENDROOT
BRANCH   4   7
HETATM    7  N   UNL     1      45.689 -27.931  -0.011  1.00  0.00    -0.308 N 
HETATM    8  C   UNL     1      46.473 -28.541   0.930  1.00  0.00     0.325 C 
HETATM    9  N   UNL     1      47.115 -29.684   0.548  1.00  0.00    -0.306 N 
HETATM   10  O   UNL     1      46.632 -27.953   1.998  1.00  0.00    -0.247 OA
HETATM   11  H   UNL     1      46.909 -30.051  -0.370  1.00  0.00     0.171 HD
HETATM   12  H   UNL     1      45.512 -26.964   0.241  1.00  0.00     0.170 HD
BRANCH   9  13
HETATM   13  C   UNL     1      48.135 -30.376   1.237  1.00  0.00     0.075 A 
HETATM   14  C   UNL     1      49.451 -30.176   0.791  1.00  0.00     0.146 A 
HETATM   15  F   UNL     1      49.672 -29.382  -0.269  1.00  0.00    -0.204 F 
HETATM   16  C   UNL     1      50.536 -30.773   1.420  1.00  0.00     0.086 A 
HETATM   17  C   UNL     1      50.303 -31.580   2.523  1.00  0.00     0.119 A 
HETATM   18  F   UNL     1      51.337 -32.151   3.153  1.00  0.00    -0.206 F 
HETATM   19  C   UNL     1      49.011 -31.801   2.989  1.00  0.00     0.044 A 
HETATM   20  C   UNL     1      47.923 -31.203   2.342  1.00  0.00     0.036 A 
ENDBRANCH   9  13
ENDBRANCH   4   7
BRANCH   3  21
HETATM   21  C   UNL     1      43.451 -29.774  -0.089  1.00  0.00     0.089 A 
HETATM   22  N   UNL     1      42.664 -28.949   0.529  1.00  0.00    -0.171 NA
HETATM   23  N   UNL     1      42.026 -29.431   1.637  1.00  0.00    -0.243 N 
HETATM   24  C   UNL     1      42.140 -30.701   2.144  1.00  0.00     0.261 A 
HETATM   25  H   UNL     1      41.396 -28.794   2.113  1.00  0.00     0.192 HD
HETATM   26  O   UNL     1      41.529 -31.091   3.133  1.00  0.00    -0.267 OA
HETATM   27  C   UNL     1      43.066 -31.598   1.429  1.00  0.00     0.078 A 
HETATM   28  C   UNL     1      43.722 -31.166   0.350  1.00  0.00     0.040 A 
ENDBRANCH   3  21
TORSDOF 3
ENDMDL
MODEL 7
REMARK VINA RESULT:      -7.9      2.596      5.863
REMARK  3 active torsions:
REMARK  status: ('A' for Active; 'I' for Inactive)
REMARK    1  A    between atoms: C_3  and  C_4 
REMARK    2  A    between atoms: C_11  and  N_12 
REMARK       I    between atoms: N_12  and  C_13 
REMARK       I    between atoms: C_13  and  N_14 
REMARK    3  A    between atoms: N_14  and  C_15 
ROOT
HETATM    1  C   UNL     1      43.628 -17.792   2.665  1.00  0.00     0.001 A 
HETATM    2  C   UNL     1      42.973 -16.826   1.904  1.00  0.00     0.016 A 
HETATM    3  C   UNL     1      42.125 -15.902   2.529  1.00  0.00     0.021 A 
HETATM    4  C   UNL     1      41.914 -15.945   3.921  1.00  0.00     0.049 A 
HETATM    5  C   UNL     1      42.566 -16.935   4.668  1.00  0.00     0.030 A 
HETATM    6  C   UNL     1      43.425 -17.845   4.043  1.00  0.00     0.002 A 
ENDROOT
BRANCH   4   7
HETATM    7  N   UNL     1      40.980 -15.073   4.513  1.00  0.00    -0.308 N 
HETATM    8  C   UNL     1      41.126 -14.025   5.381  1.00  0.00     0.325 C 
HETATM    9  N   UNL     1      42.392 -13.547   5.560  1.00  0.00    -0.306 N 
HETATM   10  O   UNL     1      40.101 -13.523   5.836  1.00  0.00    -0.247 OA
HETATM   11  H   UNL     1      43.148 -14.044   5.108  1.00  0.00     0.171 HD
HETATM   12  H   UNL     1      40.016 -15.155   4.208  1.00  0.00     0.170 HD
BRANCH   9  13
HETATM   13  C   UNL     1      42.786 -12.359   6.214  1.00  0.00     0.075 A 
HETATM   14  C   UNL     1      44.035 -12.369   6.853  1.00  0.00     0.146 A 
HETATM   15  F   UNL     1      44.768 -13.494   6.844  1.00  0.00    -0.204 F 
HETATM   16  C   UNL     1      44.541 -11.244   7.491  1.00  0.00     0.086 A 
HETATM   17  C   UNL     1      43.786 -10.081   7.485  1.00  0.00     0.119 A 
HETATM   18  F   UNL     1      44.263  -8.981   8.080  1.00  0.00    -0.206 F 
HETATM   19  C   UNL     1      42.542 -10.038   6.862  1.00  0.00     0.044 A 
HETATM   20  C   UNL     1      42.037 -11.180   6.231  1.00  0.00     0.036 A 
ENDBRANCH   9  13
ENDBRANCH   4   7
BRANCH   3  21
HETATM   21  C   UNL     1      41.527 -14.847   1.675  1.00  0.00     0.089 A 
HETATM   22  N   UNL     1      41.948 -13.625   1.779  1.00  0.00    -0.171 NA
HETATM   23  N   UNL     1      41.361 -12.707   0.954  1.00  0.00    -0.243 N 
HETATM   24  C   UNL     1      40.380 -12.965   0.030  1.00  0.00     0.261 A 
HETATM   25  H   UNL     1      41.699 -11.752   1.021  1.00  0.00     0.192 HD
HETATM   26  O   UNL     1      39.899 -12.108  -0.702  1.00  0.00    -0.267 OA
HETATM   27  C   UNL     1      39.911 -14.362  -0.037  1.00  0.00     0.078 A 
HETATM   28  C   UNL     1      40.446 -15.289   0.760  1.00  0.00     0.040 A 
ENDBRANCH   3  21
TORSDOF 3
ENDMDL
MODEL 8
REMARK VINA RESULT:      -7.7      3.807      6.412
REMARK  3 active torsions:
REMARK  status: ('A' for Active; 'I' for Inactive)
REMARK    1  A    between atoms: C_3  and  C_4 
REMARK    2  A    between atoms: C_11  and  N_12 
REMARK       I    between atoms: N_12  and  C_13 
REMARK       I    between atoms: C_13  and  N_14 
REMARK    3  A    between atoms: N_14  and  C_15 
ROOT
HETATM    1  C   UNL     1      41.174 -16.765   4.783  1.00  0.00     0.001 A 
HETATM    2  C   UNL     1      40.603 -16.022   3.752  1.00  0.00     0.016 A 
HETATM    3  C   UNL     1      41.259 -14.883   3.266  1.00  0.00     0.021 A 
HETATM    4  C   UNL     1      42.487 -14.470   3.817  1.00  0.00     0.049 A 
HETATM    5  C   UNL     1      43.037 -15.218   4.866  1.00  0.00     0.030 A 
HETATM    6  C   UNL     1      42.388 -16.363   5.338  1.00  0.00     0.002 A 
ENDROOT
BRANCH   4   7
HETATM    7  N   UNL     1      43.078 -13.267   3.383  1.00  0.00    -0.308 N 
HETATM    8  C   UNL     1      43.527 -12.169   4.064  1.00  0.00     0.325 C 
HETATM    9  N   UNL     1      43.667 -12.298   5.416  1.00  0.00    -0.306 N 
HETATM   10  O   UNL     1      43.881 -11.198   3.398  1.00  0.00    -0.247 OA
HETATM   11  H   UNL     1      43.354 -13.161   5.838  1.00  0.00     0.171 HD
HETATM   12  H   UNL     1      43.297 -13.192   2.395  1.00  0.00     0.170 HD
BRANCH   9  13
HETATM   13  C   UNL     1      44.306 -11.411   6.310  1.00  0.00     0.075 A 
HETATM   14  C   UNL     1      43.488 -10.497   6.991  1.00  0.00     0.146 A 
HETATM   15  F   UNL     1      42.168 -10.482   6.741  1.00  0.00    -0.204 F 
HETATM   16  C   UNL     1      44.004  -9.607   7.925  1.00  0.00     0.086 A 
HETATM   17  C   UNL     1      45.364  -9.636   8.190  1.00  0.00     0.119 A 
HETATM   18  F   UNL     1      45.878  -8.798   9.098  1.00  0.00    -0.206 F 
HETATM   19  C   UNL     1      46.203 -10.529   7.529  1.00  0.00     0.044 A 
HETATM   20  C   UNL     1      45.675 -11.414   6.583  1.00  0.00     0.036 A 
ENDBRANCH   9  13
ENDBRANCH   4   7
BRANCH   3  21
HETATM   21  C   UNL     1      40.640 -14.188   2.111  1.00  0.00     0.089 A 
HETATM   22  N   UNL     1      40.237 -12.962   2.244  1.00  0.00    -0.171 NA
HETATM   23  N   UNL     1      39.687 -12.380   1.137  1.00  0.00    -0.243 N 
HETATM   24  C   UNL     1      39.531 -12.970  -0.091  1.00  0.00     0.261 A 
HETATM   25  H   UNL     1      39.386 -11.415   1.232  1.00  0.00     0.192 HD
HETATM   26  O   UNL     1      39.048 -12.396  -1.061  1.00  0.00    -0.267 OA
HETATM   27  C   UNL     1      39.976 -14.373  -0.192  1.00  0.00     0.078 A 
HETATM   28  C   UNL     1      40.507 -14.986   0.868  1.00  0.00     0.040 A 
ENDBRANCH   3  21
TORSDOF 3
ENDMDL
MODEL 9
REMARK VINA RESULT:      -7.7      6.265      9.397
REMARK  3 active torsions:
REMARK  status: ('A' for Active; 'I' for Inactive)
REMARK    1  A    between atoms: C_3  and  C_4 
REMARK    2  A    between atoms: C_11  and  N_12 
REMARK       I    between atoms: N_12  and  C_13 
REMARK       I    between atoms: C_13  and  N_14 
REMARK    3  A    between atoms: N_14  and  C_15 
ROOT
HETATM    1  C   UNL     1      46.629 -10.351   7.514  1.00  0.00     0.001 A 
HETATM    2  C   UNL     1      45.622 -11.212   7.082  1.00  0.00     0.016 A 
HETATM    3  C   UNL     1      44.278 -10.866   7.274  1.00  0.00     0.021 A 
HETATM    4  C   UNL     1      43.930  -9.660   7.913  1.00  0.00     0.049 A 
HETATM    5  C   UNL     1      44.954  -8.816   8.358  1.00  0.00     0.030 A 
HETATM    6  C   UNL     1      46.295  -9.156   8.150  1.00  0.00     0.002 A 
ENDROOT
BRANCH   4   7
HETATM    7  N   UNL     1      42.576  -9.382   8.186  1.00  0.00    -0.308 N 
HETATM    8  C   UNL     1      41.847  -9.425   9.343  1.00  0.00     0.325 C 
HETATM    9  N   UNL     1      42.550  -9.523  10.510  1.00  0.00    -0.306 N 
HETATM   10  O   UNL     1      40.633  -9.251   9.252  1.00  0.00    -0.247 OA
HETATM   11  H   UNL     1      43.551  -9.641  10.444  1.00  0.00     0.171 HD
HETATM   12  H   UNL     1      42.021  -9.004   7.425  1.00  0.00     0.170 HD
BRANCH   9  13
HETATM   13  C   UNL     1      42.068  -9.368  11.828  1.00  0.00     0.075 A 
HETATM   14  C   UNL     1      42.876  -8.646  12.719  1.00  0.00     0.146 A 
HETATM   15  F   UNL     1      44.062  -8.177  12.298  1.00  0.00    -0.204 F 
HETATM   16  C   UNL     1      42.482  -8.396  14.027  1.00  0.00     0.086 A 
HETATM   17  C   UNL     1      41.251  -8.870  14.453  1.00  0.00     0.119 A 
HETATM   18  F   UNL     1      40.846  -8.626  15.705  1.00  0.00    -0.206 F 
HETATM   19  C   UNL     1      40.426  -9.592  13.595  1.00  0.00     0.044 A 
HETATM   20  C   UNL     1      40.837  -9.847  12.281  1.00  0.00     0.036 A 
ENDBRANCH   9  13
ENDBRANCH   4   7
BRANCH   3  21
HETATM   21  C   UNL     1      43.258 -11.785   6.714  1.00  0.00     0.089 A 
HETATM   22  N   UNL     1      42.254 -11.299   6.051  1.00  0.00    -0.171 NA
HETATM   23  N   UNL     1      41.358 -12.203   5.554  1.00  0.00    -0.243 N 
HETATM   24  C   UNL     1      41.430 -13.566   5.689  1.00  0.00     0.261 A 
HETATM   25  H   UNL     1      40.581 -11.827   5.020  1.00  0.00     0.192 HD
HETATM   26  O   UNL     1      40.608 -14.337   5.206  1.00  0.00    -0.267 OA
HETATM   27  C   UNL     1      42.570 -14.075   6.473  1.00  0.00     0.078 A 
HETATM   28  C   UNL     1      43.462 -13.228   6.989  1.00  0.00     0.040 A 
ENDBRANCH   3  21
TORSDOF 3
ENDMDL
MODEL 10
REMARK VINA RESULT:      -7.6      3.855      6.912
REMARK  3 active torsions:
REMARK  status: ('A' for Active; 'I' for Inactive)
REMARK    1  A    between atoms: C_3  and  C_4 
REMARK    2  A    between atoms: C_11  and  N_12 
REMARK       I    between atoms: N_12  and  C_13 
REMARK       I    between atoms: C_13  and  N_14 
REMARK    3  A    between atoms: N_14  and  C_15 
ROOT
HETATM    1  C   UNL     1      43.420 -17.094   3.395  1.00  0.00     0.001 A 
HETATM    2  C   UNL     1      43.396 -15.882   4.082  1.00  0.00     0.016 A 
HETATM    3  C   UNL     1      42.268 -15.056   4.001  1.00  0.00     0.021 A 
HETATM    4  C   UNL     1      41.157 -15.430   3.219  1.00  0.00     0.049 A 
HETATM    5  C   UNL     1      41.205 -16.642   2.520  1.00  0.00     0.030 A 
HETATM    6  C   UNL     1      42.326 -17.473   2.617  1.00  0.00     0.002 A 
ENDROOT
BRANCH   4   7
HETATM    7  N   UNL     1      40.077 -14.538   3.071  1.00  0.00    -0.308 N 
HETATM    8  C   UNL     1      39.827 -13.544   2.164  1.00  0.00     0.325 C 
HETATM    9  N   UNL     1      40.612 -13.518   1.048  1.00  0.00    -0.306 N 
HETATM   10  O   UNL     1      38.845 -12.832   2.365  1.00  0.00    -0.247 OA
HETATM   11  H   UNL     1      41.377 -14.177   0.999  1.00  0.00     0.171 HD
HETATM   12  H   UNL     1      39.280 -14.673   3.685  1.00  0.00     0.170 HD
BRANCH   9  13
HETATM   13  C   UNL     1      40.428 -12.752  -0.124  1.00  0.00     0.075 A 
HETATM   14  C   UNL     1      39.679 -13.338  -1.155  1.00  0.00     0.146 A 
HETATM   15  F   UNL     1      39.211 -14.588  -0.999  1.00  0.00    -0.204 F 
HETATM   16  C   UNL     1      39.400 -12.660  -2.335  1.00  0.00     0.086 A 
HETATM   17  C   UNL     1      39.873 -11.366  -2.485  1.00  0.00     0.119 A 
HETATM   18  F   UNL     1      39.601 -10.689  -3.607  1.00  0.00    -0.206 F 
HETATM   19  C   UNL     1      40.621 -10.756  -1.482  1.00  0.00     0.044 A 
HETATM   20  C   UNL     1      40.906 -11.452  -0.302  1.00  0.00     0.036 A 
ENDBRANCH   9  13
ENDBRANCH   4   7
BRANCH   3  21
HETATM   21  C   UNL     1      42.273 -13.823   4.824  1.00  0.00     0.089 A 
HETATM   22  N   UNL     1      41.480 -13.732   5.846  1.00  0.00    -0.171 NA
HETATM   23  N   UNL     1      41.545 -12.572   6.566  1.00  0.00    -0.243 N 
HETATM   24  C   UNL     1      42.373 -11.509   6.307  1.00  0.00     0.261 A 
HETATM   25  H   UNL     1      40.938 -12.504   7.376  1.00  0.00     0.192 HD
HETATM   26  O   UNL     1      42.407 -10.496   6.997  1.00  0.00    -0.267 OA
HETATM   27  C   UNL     1      43.238 -11.641   5.121  1.00  0.00     0.078 A 
HETATM   28  C   UNL     1      43.198 -12.750   4.380  1.00  0.00     0.040 A 
ENDBRANCH   3  21
TORSDOF 3
ENDMDL
