MODEL 1
REMARK VINA RESULT:      -8.1      0.000      0.000
REMARK  9 active torsions:
REMARK  status: ('A' for Active; 'I' for Inactive)
REMARK    1  A    between atoms: C_2  and  C_3 
REMARK    2  A    between atoms: C_4  and  N_5 
REMARK    3  A    between atoms: C_6  and  S_7 
REMARK    4  A    between atoms: S_7  and  C_8 
REMARK    5  A    between atoms: C_8  and  C_9 
REMARK       I    between atoms: C_9  and  N_10 
REMARK    6  A    between atoms: N_10  and  C_11 
REMARK    7  A    between atoms: C_12  and  O_13 
REMARK    8  A    between atoms: C_16  and  O_17 
REMARK    9  A    between atoms: C_26  and  N_27 
ROOT
HETATM    1  N   UNL     1      40.678 -10.752  -1.532  1.00  0.00    -0.275 N 
HETATM    2  C   UNL     1      41.271 -10.543  -0.258  1.00  0.00     0.177 A 
HETATM    3  N   UNL     1      42.099  -9.575   0.052  1.00  0.00    -0.204 NA
HETATM    4  C   UNL     1      42.302  -8.689  -0.950  1.00  0.00     0.162 A 
HETATM    5  C   UNL     1      41.814  -8.702  -2.229  1.00  0.00     0.081 A 
HETATM    6  C   UNL     1      40.987  -9.812  -2.598  1.00  0.00     0.124 A 
HETATM    7  N   UNL     1      42.999  -7.520  -0.848  1.00  0.00    -0.260 N 
HETATM    8  H   UNL     1      43.468  -7.141  -0.033  1.00  0.00     0.191 HD
HETATM    9  N   UNL     1      43.007  -6.808  -1.995  1.00  0.00    -0.177 NA
HETATM   10  C   UNL     1      42.250  -7.520  -2.844  1.00  0.00     0.068 A 
HETATM   11  C   UNL     1      41.974  -6.989  -4.199  1.00  0.00     0.073 C 
ENDROOT
BRANCH   2  12
HETATM   12  S   UNL     1      40.838 -11.622   1.082  1.00  0.00    -0.082 SA
BRANCH  12  13
HETATM   13  C   UNL     1      41.816 -10.932   2.437  1.00  0.00     0.185 C 
BRANCH  13  14
HETATM   14  C   UNL     1      42.755 -11.972   3.030  1.00  0.00     0.232 C 
HETATM   15  N   UNL     1      42.087 -13.056   3.577  1.00  0.00    -0.324 N 
HETATM   16  H   UNL     1      41.083 -12.956   3.672  1.00  0.00     0.169 HD
HETATM   17  O   UNL     1      43.965 -11.765   3.082  1.00  0.00    -0.272 OA
BRANCH  15  18
HETATM   18  C   UNL     1      42.673 -14.189   4.183  1.00  0.00     0.070 A 
HETATM   19  C   UNL     1      43.066 -14.257   5.533  1.00  0.00     0.097 A 
HETATM   20  C   UNL     1      43.577 -15.461   6.044  1.00  0.00     0.077 A 
HETATM   21  C   UNL     1      43.726 -16.583   5.220  1.00  0.00     0.092 A 
HETATM   22  C   UNL     1      43.419 -16.474   3.860  1.00  0.00     0.069 A 
HETATM   23 CL   UNL     1      43.643 -17.799   2.773  1.00  0.00    -0.081 Cl
HETATM   24  C   UNL     1      42.900 -15.286   3.344  1.00  0.00     0.059 A 
BRANCH  19  25
HETATM   25  O   UNL     1      43.074 -13.084   6.241  1.00  0.00    -0.354 OA
HETATM   26  C   UNL     1      44.334 -12.552   6.625  1.00  0.00     0.210 C 
ENDBRANCH  19  25
BRANCH  21  27
HETATM   27  O   UNL     1      44.235 -17.777   5.661  1.00  0.00    -0.354 OA
HETATM   28  C   UNL     1      43.359 -18.568   6.458  1.00  0.00     0.210 C 
ENDBRANCH  21  27
ENDBRANCH  15  18
ENDBRANCH  13  14
ENDBRANCH  12  13
ENDBRANCH   2  12
BRANCH   1  29
HETATM   29  C   UNL     1      39.878 -11.903  -1.807  1.00  0.00     0.049 A 
HETATM   30  C   UNL     1      38.468 -11.861  -1.718  1.00  0.00    -0.031 A 
HETATM   31  C   UNL     1      37.733 -12.997  -2.103  1.00  0.00     0.009 A 
HETATM   32  C   UNL     1      38.373 -14.151  -2.554  1.00  0.00     0.001 A 
HETATM   33  C   UNL     1      39.760 -14.192  -2.634  1.00  0.00     0.002 A 
HETATM   34  C   UNL     1      40.509 -13.073  -2.271  1.00  0.00     0.031 A 
BRANCH  30  35
HETATM   35  C   UNL     1      37.712 -10.654  -1.204  1.00  0.00     0.036 C 
HETATM   36  C   UNL     1      37.222 -10.830   0.226  1.00  0.00     0.010 C 
ENDBRANCH  30  35
ENDBRANCH   1  29
BRANCH   6  37
HETATM   37  N   UNL     1      40.565  -9.971  -3.837  1.00  0.00    -0.384 N 
HETATM   38  H   UNL     1      40.593 -10.866  -4.303  1.00  0.00     0.157 HD
HETATM   39  H   UNL     1      40.175  -9.181  -4.338  1.00  0.00     0.157 HD
ENDBRANCH   6  37
TORSDOF 9
ENDMDL
MODEL 2
REMARK VINA RESULT:      -8.0      5.357      8.665
REMARK  9 active torsions:
REMARK  status: ('A' for Active; 'I' for Inactive)
REMARK    1  A    between atoms: C_2  and  C_3 
REMARK    2  A    between atoms: C_4  and  N_5 
REMARK    3  A    between atoms: C_6  and  S_7 
REMARK    4  A    between atoms: S_7  and  C_8 
REMARK    5  A    between atoms: C_8  and  C_9 
REMARK       I    between atoms: C_9  and  N_10 
REMARK    6  A    between atoms: N_10  and  C_11 
REMARK    7  A    between atoms: C_12  and  O_13 
REMARK    8  A    between atoms: C_16  and  O_17 
REMARK    9  A    between atoms: C_26  and  N_27 
ROOT
HETATM    1  N   UNL     1      42.050 -15.185   3.984  1.00  0.00    -0.275 N 
HETATM    2  C   UNL     1      42.563 -15.200   5.309  1.00  0.00     0.177 A 
HETATM    3  N   UNL     1      43.163 -16.213   5.887  1.00  0.00    -0.204 NA
HETATM    4  C   UNL     1      43.348 -17.275   5.069  1.00  0.00     0.162 A 
HETATM    5  C   UNL     1      42.950 -17.448   3.770  1.00  0.00     0.081 A 
HETATM    6  C   UNL     1      42.209 -16.380   3.170  1.00  0.00     0.124 A 
HETATM    7  N   UNL     1      44.066 -18.395   5.373  1.00  0.00    -0.260 N 
HETATM    8  H   UNL     1      44.558 -18.609   6.234  1.00  0.00     0.191 HD
HETATM    9  N   UNL     1      44.122 -19.280   4.353  1.00  0.00    -0.177 NA
HETATM   10  C   UNL     1      43.458 -18.685   3.350  1.00  0.00     0.068 A 
HETATM   11  C   UNL     1      43.384 -19.351   2.028  1.00  0.00     0.073 C 
ENDROOT
BRANCH   2  12
HETATM   12  S   UNL     1      42.463 -13.725   6.290  1.00  0.00    -0.082 SA
BRANCH  12  13
HETATM   13  C   UNL     1      44.191 -13.483   6.762  1.00  0.00     0.185 C 
BRANCH  13  14
HETATM   14  C   UNL     1      44.460 -12.041   7.167  1.00  0.00     0.232 C 
HETATM   15  N   UNL     1      43.416 -11.475   7.881  1.00  0.00    -0.324 N 
HETATM   16  H   UNL     1      42.555 -12.008   7.903  1.00  0.00     0.169 HD
HETATM   17  O   UNL     1      45.472 -11.461   6.779  1.00  0.00    -0.272 OA
BRANCH  15  18
HETATM   18  C   UNL     1      43.370 -10.167   8.411  1.00  0.00     0.070 A 
HETATM   19  C   UNL     1      43.834  -9.809   9.691  1.00  0.00     0.097 A 
HETATM   20  C   UNL     1      43.800  -8.462  10.086  1.00  0.00     0.077 A 
HETATM   21  C   UNL     1      43.284  -7.478   9.234  1.00  0.00     0.092 A 
HETATM   22  C   UNL     1      42.742  -7.861   8.003  1.00  0.00     0.069 A 
HETATM   23 CL   UNL     1      42.029  -6.707   6.931  1.00  0.00    -0.081 Cl
HETATM   24  C   UNL     1      42.781  -9.194   7.595  1.00  0.00     0.059 A 
BRANCH  19  25
HETATM   25  O   UNL     1      44.151 -10.829  10.548  1.00  0.00    -0.354 OA
HETATM   26  C   UNL     1      43.534 -10.834  11.828  1.00  0.00     0.210 C 
ENDBRANCH  19  25
BRANCH  21  27
HETATM   27  O   UNL     1      43.211  -6.152   9.575  1.00  0.00    -0.354 OA
HETATM   28  C   UNL     1      42.319  -5.834  10.639  1.00  0.00     0.210 C 
ENDBRANCH  21  27
ENDBRANCH  15  18
ENDBRANCH  13  14
ENDBRANCH  12  13
ENDBRANCH   2  12
BRANCH   1  29
HETATM   29  C   UNL     1      41.308 -14.073   3.480  1.00  0.00     0.049 A 
HETATM   30  C   UNL     1      41.947 -12.987   2.840  1.00  0.00    -0.031 A 
HETATM   31  C   UNL     1      41.152 -11.975   2.273  1.00  0.00     0.009 A 
HETATM   32  C   UNL     1      39.759 -12.026   2.346  1.00  0.00     0.001 A 
HETATM   33  C   UNL     1      39.134 -13.092   2.982  1.00  0.00     0.002 A 
HETATM   34  C   UNL     1      39.902 -14.114   3.538  1.00  0.00     0.031 A 
BRANCH  30  35
HETATM   35  C   UNL     1      43.453 -12.852   2.757  1.00  0.00     0.036 C 
HETATM   36  C   UNL     1      43.981 -11.656   3.537  1.00  0.00     0.010 C 
ENDBRANCH  30  35
ENDBRANCH   1  29
BRANCH   6  37
HETATM   37  N   UNL     1      41.687 -16.499   1.966  1.00  0.00    -0.384 N 
HETATM   38  H   UNL     1      41.056 -15.810   1.583  1.00  0.00     0.157 HD
HETATM   39  H   UNL     1      41.939 -17.293   1.388  1.00  0.00     0.157 HD
ENDBRANCH   6  37
TORSDOF 9
ENDMDL
MODEL 3
REMARK VINA RESULT:      -7.9      4.899      7.402
REMARK  9 active torsions:
REMARK  status: ('A' for Active; 'I' for Inactive)
REMARK    1  A    between atoms: C_2  and  C_3 
REMARK    2  A    between atoms: C_4  and  N_5 
REMARK    3  A    between atoms: C_6  and  S_7 
REMARK    4  A    between atoms: S_7  and  C_8 
REMARK    5  A    between atoms: C_8  and  C_9 
REMARK       I    between atoms: C_9  and  N_10 
REMARK    6  A    between atoms: N_10  and  C_11 
REMARK    7  A    between atoms: C_12  and  O_13 
REMARK    8  A    between atoms: C_16  and  O_17 
REMARK    9  A    between atoms: C_26  and  N_27 
ROOT
HETATM    1  N   UNL     1      41.194 -13.474   3.133  1.00  0.00    -0.275 N 
HETATM    2  C   UNL     1      41.658 -12.605   4.157  1.00  0.00     0.177 A 
HETATM    3  N   UNL     1      41.168 -11.421   4.438  1.00  0.00    -0.204 NA
HETATM    4  C   UNL     1      40.079 -11.095   3.704  1.00  0.00     0.162 A 
HETATM    5  C   UNL     1      39.472 -11.794   2.696  1.00  0.00     0.081 A 
HETATM    6  C   UNL     1      40.065 -13.043   2.323  1.00  0.00     0.124 A 
HETATM    7  N   UNL     1      39.296  -9.992   3.892  1.00  0.00    -0.260 N 
HETATM    8  H   UNL     1      39.404  -9.260   4.586  1.00  0.00     0.191 HD
HETATM    9  N   UNL     1      38.248  -9.937   3.043  1.00  0.00    -0.177 NA
HETATM   10  C   UNL     1      38.335 -11.065   2.321  1.00  0.00     0.068 A 
HETATM   11  C   UNL     1      37.284 -11.377   1.324  1.00  0.00     0.073 C 
ENDROOT
BRANCH   2  12
HETATM   12  S   UNL     1      42.973 -13.146   5.218  1.00  0.00    -0.082 SA
BRANCH  12  13
HETATM   13  C   UNL     1      43.859 -11.599   5.518  1.00  0.00     0.185 C 
BRANCH  13  14
HETATM   14  C   UNL     1      43.752 -11.172   6.975  1.00  0.00     0.232 C 
HETATM   15  N   UNL     1      43.283  -9.876   7.125  1.00  0.00    -0.324 N 
HETATM   16  H   UNL     1      43.230  -9.323   6.279  1.00  0.00     0.169 HD
HETATM   17  O   UNL     1      44.155 -11.906   7.873  1.00  0.00    -0.272 OA
BRANCH  15  18
HETATM   18  C   UNL     1      43.055  -9.199   8.344  1.00  0.00     0.070 A 
HETATM   19  C   UNL     1      43.894  -8.197   8.867  1.00  0.00     0.097 A 
HETATM   20  C   UNL     1      43.532  -7.544  10.056  1.00  0.00     0.077 A 
HETATM   21  C   UNL     1      42.363  -7.897  10.740  1.00  0.00     0.092 A 
HETATM   22  C   UNL     1      41.587  -8.957  10.259  1.00  0.00     0.069 A 
HETATM   23 CL   UNL     1      40.168  -9.490  11.090  1.00  0.00    -0.081 Cl
HETATM   24  C   UNL     1      41.932  -9.606   9.073  1.00  0.00     0.059 A 
BRANCH  19  25
HETATM   25  O   UNL     1      45.111  -8.024   8.262  1.00  0.00    -0.354 OA
HETATM   26  C   UNL     1      46.115  -8.999   8.504  1.00  0.00     0.210 C 
ENDBRANCH  19  25
BRANCH  21  27
HETATM   27  O   UNL     1      41.970  -7.306  11.913  1.00  0.00    -0.354 OA
HETATM   28  C   UNL     1      42.706  -7.681  13.073  1.00  0.00     0.210 C 
ENDBRANCH  21  27
ENDBRANCH  15  18
ENDBRANCH  13  14
ENDBRANCH  12  13
ENDBRANCH   2  12
BRANCH   1  29
HETATM   29  C   UNL     1      41.866 -14.696   2.826  1.00  0.00     0.049 A 
HETATM   30  C   UNL     1      41.441 -15.930   3.368  1.00  0.00    -0.031 A 
HETATM   31  C   UNL     1      42.079 -17.110   2.945  1.00  0.00     0.009 A 
HETATM   32  C   UNL     1      43.119 -17.073   2.016  1.00  0.00     0.001 A 
HETATM   33  C   UNL     1      43.540 -15.858   1.489  1.00  0.00     0.002 A 
HETATM   34  C   UNL     1      42.913 -14.677   1.884  1.00  0.00     0.031 A 
BRANCH  30  35
HETATM   35  C   UNL     1      40.343 -16.038   4.406  1.00  0.00     0.036 C 
HETATM   36  C   UNL     1      40.879 -16.291   5.808  1.00  0.00     0.010 C 
ENDBRANCH  30  35
ENDBRANCH   1  29
BRANCH   6  37
HETATM   37  N   UNL     1      39.622 -13.733   1.291  1.00  0.00    -0.384 N 
HETATM   38  H   UNL     1      39.646 -13.366   0.350  1.00  0.00     0.157 HD
HETATM   39  H   UNL     1      39.264 -14.671   1.432  1.00  0.00     0.157 HD
ENDBRANCH   6  37
TORSDOF 9
ENDMDL
MODEL 4
REMARK VINA RESULT:      -7.9      4.992      6.832
REMARK  9 active torsions:
REMARK  status: ('A' for Active; 'I' for Inactive)
REMARK    1  A    between atoms: C_2  and  C_3 
REMARK    2  A    between atoms: C_4  and  N_5 
REMARK    3  A    between atoms: C_6  and  S_7 
REMARK    4  A    between atoms: S_7  and  C_8 
REMARK    5  A    between atoms: C_8  and  C_9 
REMARK       I    between atoms: C_9  and  N_10 
REMARK    6  A    between atoms: N_10  and  C_11 
REMARK    7  A    between atoms: C_12  and  O_13 
REMARK    8  A    between atoms: C_16  and  O_17 
REMARK    9  A    between atoms: C_26  and  N_27 
ROOT
HETATM    1  N   UNL     1      42.017 -10.094   5.533  1.00  0.00    -0.275 N 
HETATM    2  C   UNL     1      42.900 -10.726   4.617  1.00  0.00     0.177 A 
HETATM    3  N   UNL     1      44.111 -11.150   4.888  1.00  0.00    -0.204 NA
HETATM    4  C   UNL     1      44.457 -11.014   6.189  1.00  0.00     0.162 A 
HETATM    5  C   UNL     1      43.749 -10.456   7.220  1.00  0.00     0.081 A 
HETATM    6  C   UNL     1      42.466  -9.906   6.904  1.00  0.00     0.124 A 
HETATM    7  N   UNL     1      45.595 -11.501   6.763  1.00  0.00    -0.260 N 
HETATM    8  H   UNL     1      46.345 -12.022   6.321  1.00  0.00     0.191 HD
HETATM    9  N   UNL     1      45.664 -11.258   8.089  1.00  0.00    -0.177 NA
HETATM   10  C   UNL     1      44.511 -10.638   8.382  1.00  0.00     0.068 A 
HETATM   11  C   UNL     1      44.209 -10.284   9.789  1.00  0.00     0.073 C 
ENDROOT
BRANCH   2  12
HETATM   12  S   UNL     1      42.341 -11.050   2.964  1.00  0.00    -0.082 SA
BRANCH  12  13
HETATM   13  C   UNL     1      41.510 -12.643   3.166  1.00  0.00     0.185 C 
BRANCH  13  14
HETATM   14  C   UNL     1      42.508 -13.792   3.184  1.00  0.00     0.232 C 
HETATM   15  N   UNL     1      42.138 -14.817   4.040  1.00  0.00    -0.324 N 
HETATM   16  H   UNL     1      41.364 -14.617   4.662  1.00  0.00     0.169 HD
HETATM   17  O   UNL     1      43.566 -13.712   2.564  1.00  0.00    -0.272 OA
BRANCH  15  18
HETATM   18  C   UNL     1      42.840 -16.022   4.264  1.00  0.00     0.070 A 
HETATM   19  C   UNL     1      43.578 -16.310   5.427  1.00  0.00     0.097 A 
HETATM   20  C   UNL     1      44.180 -17.571   5.569  1.00  0.00     0.077 A 
HETATM   21  C   UNL     1      44.077 -18.532   4.557  1.00  0.00     0.092 A 
HETATM   22  C   UNL     1      43.419 -18.200   3.368  1.00  0.00     0.069 A 
HETATM   23 CL   UNL     1      43.314 -19.315   2.051  1.00  0.00    -0.081 Cl
HETATM   24  C   UNL     1      42.808 -16.955   3.221  1.00  0.00     0.059 A 
BRANCH  19  25
HETATM   25  O   UNL     1      43.802 -15.275   6.296  1.00  0.00    -0.354 OA
HETATM   26  C   UNL     1      43.062 -15.256   7.508  1.00  0.00     0.210 C 
ENDBRANCH  19  25
BRANCH  21  27
HETATM   27  O   UNL     1      44.659 -19.771   4.635  1.00  0.00    -0.354 OA
HETATM   28  C   UNL     1      43.977 -20.725   5.443  1.00  0.00     0.210 C 
ENDBRANCH  21  27
ENDBRANCH  15  18
ENDBRANCH  13  14
ENDBRANCH  12  13
ENDBRANCH   2  12
BRANCH   1  29
HETATM   29  C   UNL     1      40.758  -9.562   5.116  1.00  0.00     0.049 A 
HETATM   30  C   UNL     1      39.538 -10.158   5.505  1.00  0.00    -0.031 A 
HETATM   31  C   UNL     1      38.333  -9.526   5.149  1.00  0.00     0.009 A 
HETATM   32  C   UNL     1      38.331  -8.338   4.416  1.00  0.00     0.001 A 
HETATM   33  C   UNL     1      39.533  -7.758   4.028  1.00  0.00     0.002 A 
HETATM   34  C   UNL     1      40.740  -8.360   4.383  1.00  0.00     0.031 A 
BRANCH  30  35
HETATM   35  C   UNL     1      39.467 -11.463   6.270  1.00  0.00     0.036 C 
HETATM   36  C   UNL     1      39.207 -12.662   5.369  1.00  0.00     0.010 C 
ENDBRANCH  30  35
ENDBRANCH   1  29
BRANCH   6  37
HETATM   37  N   UNL     1      41.761  -9.247   7.803  1.00  0.00    -0.384 N 
HETATM   38  H   UNL     1      40.765  -9.379   7.906  1.00  0.00     0.157 HD
HETATM   39  H   UNL     1      42.228  -8.603   8.431  1.00  0.00     0.157 HD
ENDBRANCH   6  37
TORSDOF 9
ENDMDL
MODEL 5
REMARK VINA RESULT:      -7.7      5.202      7.780
REMARK  9 active torsions:
REMARK  status: ('A' for Active; 'I' for Inactive)
REMARK    1  A    between atoms: C_2  and  C_3 
REMARK    2  A    between atoms: C_4  and  N_5 
REMARK    3  A    between atoms: C_6  and  S_7 
REMARK    4  A    between atoms: S_7  and  C_8 
REMARK    5  A    between atoms: C_8  and  C_9 
REMARK       I    between atoms: C_9  and  N_10 
REMARK    6  A    between atoms: N_10  and  C_11 
REMARK    7  A    between atoms: C_12  and  O_13 
REMARK    8  A    between atoms: C_16  and  O_17 
REMARK    9  A    between atoms: C_26  and  N_27 
ROOT
HETATM    1  N   UNL     1      42.515 -10.647   6.648  1.00  0.00    -0.275 N 
HETATM    2  C   UNL     1      43.471 -11.619   7.048  1.00  0.00     0.177 A 
HETATM    3  N   UNL     1      44.225 -11.558   8.119  1.00  0.00    -0.204 NA
HETATM    4  C   UNL     1      43.963 -10.492   8.909  1.00  0.00     0.162 A 
HETATM    5  C   UNL     1      43.077  -9.465   8.714  1.00  0.00     0.081 A 
HETATM    6  C   UNL     1      42.324  -9.481   7.496  1.00  0.00     0.124 A 
HETATM    7  N   UNL     1      44.498 -10.268  10.144  1.00  0.00    -0.260 N 
HETATM    8  H   UNL     1      45.162 -10.842  10.652  1.00  0.00     0.191 HD
HETATM    9  N   UNL     1      44.027  -9.145  10.729  1.00  0.00    -0.177 NA
HETATM   10  C   UNL     1      43.126  -8.661   9.860  1.00  0.00     0.068 A 
HETATM   11  C   UNL     1      42.344  -7.454  10.217  1.00  0.00     0.073 C 
ENDROOT
BRANCH   2  12
HETATM   12  S   UNL     1      43.657 -13.095   6.079  1.00  0.00    -0.082 SA
BRANCH  12  13
HETATM   13  C   UNL     1      43.271 -14.378   7.292  1.00  0.00     0.185 C 
BRANCH  13  14
HETATM   14  C   UNL     1      42.904 -15.690   6.615  1.00  0.00     0.232 C 
HETATM   15  N   UNL     1      43.770 -16.031   5.588  1.00  0.00    -0.324 N 
HETATM   16  H   UNL     1      44.423 -15.311   5.302  1.00  0.00     0.169 HD
HETATM   17  O   UNL     1      41.873 -16.286   6.922  1.00  0.00    -0.272 OA
BRANCH  15  18
HETATM   18  C   UNL     1      43.710 -17.191   4.785  1.00  0.00     0.070 A 
HETATM   19  C   UNL     1      43.364 -17.198   3.421  1.00  0.00     0.097 A 
HETATM   20  C   UNL     1      43.403 -18.405   2.704  1.00  0.00     0.077 A 
HETATM   21  C   UNL     1      43.755 -19.603   3.337  1.00  0.00     0.092 A 
HETATM   22  C   UNL     1      44.006 -19.597   4.713  1.00  0.00     0.069 A 
HETATM   23 CL   UNL     1      44.380 -21.050   5.571  1.00  0.00    -0.081 Cl
HETATM   24  C   UNL     1      43.981 -18.402   5.432  1.00  0.00     0.059 A 
BRANCH  19  25
HETATM   25  O   UNL     1      42.849 -16.040   2.901  1.00  0.00    -0.354 OA
HETATM   26  C   UNL     1      42.963 -15.835   1.500  1.00  0.00     0.210 C 
ENDBRANCH  19  25
BRANCH  21  27
HETATM   27  O   UNL     1      43.793 -20.812   2.692  1.00  0.00    -0.354 OA
HETATM   28  C   UNL     1      43.695 -20.759   1.272  1.00  0.00     0.210 C 
ENDBRANCH  21  27
ENDBRANCH  15  18
ENDBRANCH  13  14
ENDBRANCH  12  13
ENDBRANCH   2  12
BRANCH   1  29
HETATM   29  C   UNL     1      41.823 -10.744   5.402  1.00  0.00     0.049 A 
HETATM   30  C   UNL     1      40.544 -11.337   5.312  1.00  0.00    -0.031 A 
HETATM   31  C   UNL     1      39.871 -11.307   4.077  1.00  0.00     0.009 A 
HETATM   32  C   UNL     1      40.451 -10.716   2.954  1.00  0.00     0.001 A 
HETATM   33  C   UNL     1      41.712 -10.139   3.044  1.00  0.00     0.002 A 
HETATM   34  C   UNL     1      42.391 -10.144   4.262  1.00  0.00     0.031 A 
BRANCH  30  35
HETATM   35  C   UNL     1      39.872 -12.027   6.481  1.00  0.00     0.036 C 
HETATM   36  C   UNL     1      39.789 -13.537   6.307  1.00  0.00     0.010 C 
ENDBRANCH  30  35
ENDBRANCH   1  29
BRANCH   6  37
HETATM   37  N   UNL     1      41.532  -8.479   7.166  1.00  0.00    -0.384 N 
HETATM   38  H   UNL     1      41.669  -7.943   6.322  1.00  0.00     0.157 HD
HETATM   39  H   UNL     1      40.745  -8.247   7.761  1.00  0.00     0.157 HD
ENDBRANCH   6  37
TORSDOF 9
ENDMDL
MODEL 6
REMARK VINA RESULT:      -7.7      3.752      9.948
REMARK  9 active torsions:
REMARK  status: ('A' for Active; 'I' for Inactive)
REMARK    1  A    between atoms: C_2  and  C_3 
REMARK    2  A    between atoms: C_4  and  N_5 
REMARK    3  A    between atoms: C_6  and  S_7 
REMARK    4  A    between atoms: S_7  and  C_8 
REMARK    5  A    between atoms: C_8  and  C_9 
REMARK       I    between atoms: C_9  and  N_10 
REMARK    6  A    between atoms: N_10  and  C_11 
REMARK    7  A    between atoms: C_12  and  O_13 
REMARK    8  A    between atoms: C_16  and  O_17 
REMARK    9  A    between atoms: C_26  and  N_27 
ROOT
HETATM    1  N   UNL     1      42.410 -15.241   4.909  1.00  0.00    -0.275 N 
HETATM    2  C   UNL     1      42.944 -15.349   3.597  1.00  0.00     0.177 A 
HETATM    3  N   UNL     1      43.641 -16.360   3.135  1.00  0.00    -0.204 NA
HETATM    4  C   UNL     1      43.755 -17.387   4.007  1.00  0.00     0.162 A 
HETATM    5  C   UNL     1      43.300 -17.485   5.295  1.00  0.00     0.081 A 
HETATM    6  C   UNL     1      42.624 -16.343   5.833  1.00  0.00     0.124 A 
HETATM    7  N   UNL     1      44.301 -18.607   3.731  1.00  0.00    -0.260 N 
HETATM    8  H   UNL     1      44.702 -18.929   2.857  1.00  0.00     0.191 HD
HETATM    9  N   UNL     1      44.246 -19.460   4.776  1.00  0.00    -0.177 NA
HETATM   10  C   UNL     1      43.601 -18.780   5.737  1.00  0.00     0.068 A 
HETATM   11  C   UNL     1      43.291 -19.449   7.022  1.00  0.00     0.073 C 
ENDROOT
BRANCH   2  12
HETATM   12  S   UNL     1      42.618 -14.059   2.423  1.00  0.00    -0.082 SA
BRANCH  12  13
HETATM   13  C   UNL     1      41.278 -14.783   1.449  1.00  0.00     0.185 C 
BRANCH  13  14
HETATM   14  C   UNL     1      40.533 -13.721   0.655  1.00  0.00     0.232 C 
HETATM   15  N   UNL     1      41.284 -13.194  -0.385  1.00  0.00    -0.324 N 
HETATM   16  H   UNL     1      42.266 -13.442  -0.391  1.00  0.00     0.169 HD
HETATM   17  O   UNL     1      39.421 -13.337   1.013  1.00  0.00    -0.272 OA
BRANCH  15  18
HETATM   18  C   UNL     1      40.869 -12.211  -1.310  1.00  0.00     0.070 A 
HETATM   19  C   UNL     1      40.261 -12.489  -2.549  1.00  0.00     0.097 A 
HETATM   20  C   UNL     1      39.827 -11.427  -3.359  1.00  0.00     0.077 A 
HETATM   21  C   UNL     1      40.018 -10.099  -2.962  1.00  0.00     0.092 A 
HETATM   22  C   UNL     1      40.706  -9.837  -1.773  1.00  0.00     0.069 A 
HETATM   23 CL   UNL     1      41.034  -8.220  -1.256  1.00  0.00    -0.081 Cl
HETATM   24  C   UNL     1      41.131 -10.883  -0.954  1.00  0.00     0.059 A 
BRANCH  19  25
HETATM   25  O   UNL     1      40.270 -13.793  -2.970  1.00  0.00    -0.354 OA
HETATM   26  C   UNL     1      39.054 -14.523  -2.889  1.00  0.00     0.210 C 
ENDBRANCH  19  25
BRANCH  21  27
HETATM   27  O   UNL     1      39.631  -9.025  -3.720  1.00  0.00    -0.354 OA
HETATM   28  C   UNL     1      40.469  -8.715  -4.829  1.00  0.00     0.210 C 
ENDBRANCH  21  27
ENDBRANCH  15  18
ENDBRANCH  13  14
ENDBRANCH  12  13
ENDBRANCH   2  12
BRANCH   1  29
HETATM   29  C   UNL     1      41.763 -14.049   5.359  1.00  0.00     0.049 A 
HETATM   30  C   UNL     1      42.494 -12.977   5.920  1.00  0.00    -0.031 A 
HETATM   31  C   UNL     1      41.812 -11.792   6.246  1.00  0.00     0.009 A 
HETATM   32  C   UNL     1      40.438 -11.668   6.034  1.00  0.00     0.001 A 
HETATM   33  C   UNL     1      39.720 -12.726   5.489  1.00  0.00     0.002 A 
HETATM   34  C   UNL     1      40.379 -13.906   5.145  1.00  0.00     0.031 A 
BRANCH  30  35
HETATM   35  C   UNL     1      43.979 -13.057   6.208  1.00  0.00     0.036 C 
HETATM   36  C   UNL     1      44.464 -11.936   7.115  1.00  0.00     0.010 C 
ENDBRANCH  30  35
ENDBRANCH   1  29
BRANCH   6  37
HETATM   37  N   UNL     1      42.251 -16.299   7.097  1.00  0.00    -0.384 N 
HETATM   38  H   UNL     1      42.877 -16.544   7.850  1.00  0.00     0.157 HD
HETATM   39  H   UNL     1      41.315 -15.988   7.332  1.00  0.00     0.157 HD
ENDBRANCH   6  37
TORSDOF 9
ENDMDL
MODEL 7
REMARK VINA RESULT:      -7.7      4.035     10.141
REMARK  9 active torsions:
REMARK  status: ('A' for Active; 'I' for Inactive)
REMARK    1  A    between atoms: C_2  and  C_3 
REMARK    2  A    between atoms: C_4  and  N_5 
REMARK    3  A    between atoms: C_6  and  S_7 
REMARK    4  A    between atoms: S_7  and  C_8 
REMARK    5  A    between atoms: C_8  and  C_9 
REMARK       I    between atoms: C_9  and  N_10 
REMARK    6  A    between atoms: N_10  and  C_11 
REMARK    7  A    between atoms: C_12  and  O_13 
REMARK    8  A    between atoms: C_16  and  O_17 
REMARK    9  A    between atoms: C_26  and  N_27 
ROOT
HETATM    1  N   UNL     1      43.255 -16.501   4.280  1.00  0.00    -0.275 N 
HETATM    2  C   UNL     1      43.266 -16.444   2.861  1.00  0.00     0.177 A 
HETATM    3  N   UNL     1      43.515 -17.450   2.056  1.00  0.00    -0.204 NA
HETATM    4  C   UNL     1      43.690 -18.629   2.696  1.00  0.00     0.162 A 
HETATM    5  C   UNL     1      43.698 -18.893   4.039  1.00  0.00     0.081 A 
HETATM    6  C   UNL     1      43.523 -17.778   4.921  1.00  0.00     0.124 A 
HETATM    7  N   UNL     1      43.819 -19.847   2.094  1.00  0.00    -0.260 N 
HETATM    8  H   UNL     1      43.811 -20.058   1.102  1.00  0.00     0.191 HD
HETATM    9  N   UNL     1      43.939 -20.862   2.976  1.00  0.00    -0.177 NA
HETATM   10  C   UNL     1      43.835 -20.281   4.181  1.00  0.00     0.068 A 
HETATM   11  C   UNL     1      43.846 -21.121   5.401  1.00  0.00     0.073 C 
ENDROOT
BRANCH   2  12
HETATM   12  S   UNL     1      42.852 -14.919   2.055  1.00  0.00    -0.082 SA
BRANCH  12  13
HETATM   13  C   UNL     1      41.290 -15.343   1.250  1.00  0.00     0.185 C 
BRANCH  13  14
HETATM   14  C   UNL     1      40.541 -14.098   0.799  1.00  0.00     0.232 C 
HETATM   15  N   UNL     1      40.820 -13.744  -0.512  1.00  0.00    -0.324 N 
HETATM   16  H   UNL     1      41.591 -14.234  -0.949  1.00  0.00     0.169 HD
HETATM   17  O   UNL     1      39.857 -13.457   1.593  1.00  0.00    -0.272 OA
BRANCH  15  18
HETATM   18  C   UNL     1      40.272 -12.655  -1.225  1.00  0.00     0.070 A 
HETATM   19  C   UNL     1      39.022 -12.675  -1.874  1.00  0.00     0.097 A 
HETATM   20  C   UNL     1      38.548 -11.509  -2.495  1.00  0.00     0.077 A 
HETATM   21  C   UNL     1      39.315 -10.338  -2.502  1.00  0.00     0.092 A 
HETATM   22  C   UNL     1      40.593 -10.359  -1.935  1.00  0.00     0.069 A 
HETATM   23 CL   UNL     1      41.620  -8.968  -1.968  1.00  0.00    -0.081 Cl
HETATM   24  C   UNL     1      41.070 -11.509  -1.305  1.00  0.00     0.059 A 
BRANCH  19  25
HETATM   25  O   UNL     1      38.403 -13.891  -1.998  1.00  0.00    -0.354 OA
HETATM   26  C   UNL     1      38.310 -14.457  -3.298  1.00  0.00     0.210 C 
ENDBRANCH  19  25
BRANCH  21  27
HETATM   27  O   UNL     1      38.910  -9.177  -3.108  1.00  0.00    -0.354 OA
HETATM   28  C   UNL     1      38.641  -9.268  -4.504  1.00  0.00     0.210 C 
ENDBRANCH  21  27
ENDBRANCH  15  18
ENDBRANCH  13  14
ENDBRANCH  12  13
ENDBRANCH   2  12
BRANCH   1  29
HETATM   29  C   UNL     1      43.087 -15.326   5.076  1.00  0.00     0.049 A 
HETATM   30  C   UNL     1      41.806 -14.877   5.470  1.00  0.00    -0.031 A 
HETATM   31  C   UNL     1      41.715 -13.775   6.340  1.00  0.00     0.009 A 
HETATM   32  C   UNL     1      42.859 -13.124   6.801  1.00  0.00     0.001 A 
HETATM   33  C   UNL     1      44.117 -13.563   6.406  1.00  0.00     0.002 A 
HETATM   34  C   UNL     1      44.232 -14.662   5.556  1.00  0.00     0.031 A 
BRANCH  30  35
HETATM   35  C   UNL     1      40.524 -15.515   4.979  1.00  0.00     0.036 C 
HETATM   36  C   UNL     1      39.954 -16.527   5.963  1.00  0.00     0.010 C 
ENDBRANCH  30  35
ENDBRANCH   1  29
BRANCH   6  37
HETATM   37  N   UNL     1      43.629 -17.915   6.228  1.00  0.00    -0.384 N 
HETATM   38  H   UNL     1      44.403 -17.525   6.747  1.00  0.00     0.157 HD
HETATM   39  H   UNL     1      42.904 -18.404   6.741  1.00  0.00     0.157 HD
ENDBRANCH   6  37
TORSDOF 9
ENDMDL
MODEL 8
REMARK VINA RESULT:      -7.5      3.962      7.073
REMARK  9 active torsions:
REMARK  status: ('A' for Active; 'I' for Inactive)
REMARK    1  A    between atoms: C_2  and  C_3 
REMARK    2  A    between atoms: C_4  and  N_5 
REMARK    3  A    between atoms: C_6  and  S_7 
REMARK    4  A    between atoms: S_7  and  C_8 
REMARK    5  A    between atoms: C_8  and  C_9 
REMARK       I    between atoms: C_9  and  N_10 
REMARK    6  A    between atoms: N_10  and  C_11 
REMARK    7  A    between atoms: C_12  and  O_13 
REMARK    8  A    between atoms: C_16  and  O_17 
REMARK    9  A    between atoms: C_26  and  N_27 
ROOT
HETATM    1  N   UNL     1      41.187 -14.139   2.280  1.00  0.00    -0.275 N 
HETATM    2  C   UNL     1      41.887 -12.907   2.187  1.00  0.00     0.177 A 
HETATM    3  N   UNL     1      41.938 -12.133   1.129  1.00  0.00    -0.204 NA
HETATM    4  C   UNL     1      41.172 -12.564   0.101  1.00  0.00     0.162 A 
HETATM    5  C   UNL     1      40.416 -13.701   0.001  1.00  0.00     0.081 A 
HETATM    6  C   UNL     1      40.437 -14.595   1.120  1.00  0.00     0.124 A 
HETATM    7  N   UNL     1      40.934 -11.877  -1.054  1.00  0.00    -0.260 N 
HETATM    8  H   UNL     1      41.286 -10.965  -1.323  1.00  0.00     0.191 HD
HETATM    9  N   UNL     1      40.096 -12.526  -1.892  1.00  0.00    -0.177 NA
HETATM   10  C   UNL     1      39.750 -13.641  -1.230  1.00  0.00     0.068 A 
HETATM   11  C   UNL     1      38.764 -14.569  -1.831  1.00  0.00     0.073 C 
ENDROOT
BRANCH   2  12
HETATM   12  S   UNL     1      42.733 -12.285   3.617  1.00  0.00    -0.082 SA
BRANCH  12  13
HETATM   13  C   UNL     1      41.592 -11.004   4.187  1.00  0.00     0.185 C 
BRANCH  13  14
HETATM   14  C   UNL     1      41.500 -10.977   5.706  1.00  0.00     0.232 C 
HETATM   15  N   UNL     1      42.279  -9.983   6.278  1.00  0.00    -0.324 N 
HETATM   16  H   UNL     1      42.929  -9.517   5.656  1.00  0.00     0.169 HD
HETATM   17  O   UNL     1      40.868 -11.841   6.310  1.00  0.00    -0.272 OA
BRANCH  15  18
HETATM   18  C   UNL     1      42.393  -9.690   7.655  1.00  0.00     0.070 A 
HETATM   19  C   UNL     1      41.364  -9.136   8.439  1.00  0.00     0.097 A 
HETATM   20  C   UNL     1      41.568  -8.951   9.816  1.00  0.00     0.077 A 
HETATM   21  C   UNL     1      42.791  -9.284  10.410  1.00  0.00     0.092 A 
HETATM   22  C   UNL     1      43.835  -9.747   9.603  1.00  0.00     0.069 A 
HETATM   23 CL   UNL     1      45.392 -10.114  10.260  1.00  0.00    -0.081 Cl
HETATM   24  C   UNL     1      43.640  -9.946   8.236  1.00  0.00     0.059 A 
BRANCH  19  25
HETATM   25  O   UNL     1      40.264  -8.657   7.778  1.00  0.00    -0.354 OA
HETATM   26  C   UNL     1      39.308  -7.922   8.529  1.00  0.00     0.210 C 
ENDBRANCH  19  25
BRANCH  21  27
HETATM   27  O   UNL     1      43.051  -9.108  11.744  1.00  0.00    -0.354 OA
HETATM   28  C   UNL     1      42.551 -10.121  12.612  1.00  0.00     0.210 C 
ENDBRANCH  21  27
ENDBRANCH  15  18
ENDBRANCH  13  14
ENDBRANCH  12  13
ENDBRANCH   2  12
BRANCH   1  29
HETATM   29  C   UNL     1      41.285 -14.972   3.437  1.00  0.00     0.049 A 
HETATM   30  C   UNL     1      42.272 -15.978   3.543  1.00  0.00    -0.031 A 
HETATM   31  C   UNL     1      42.382 -16.692   4.749  1.00  0.00     0.009 A 
HETATM   32  C   UNL     1      41.531 -16.429   5.823  1.00  0.00     0.001 A 
HETATM   33  C   UNL     1      40.557 -15.444   5.714  1.00  0.00     0.002 A 
HETATM   34  C   UNL     1      40.439 -14.713   4.532  1.00  0.00     0.031 A 
BRANCH  30  35
HETATM   35  C   UNL     1      43.204 -16.338   2.404  1.00  0.00     0.036 C 
HETATM   36  C   UNL     1      43.273 -17.838   2.151  1.00  0.00     0.010 C 
ENDBRANCH  30  35
ENDBRANCH   1  29
BRANCH   6  37
HETATM   37  N   UNL     1      39.834 -15.767   1.073  1.00  0.00    -0.384 N 
HETATM   38  H   UNL     1      38.829 -15.854   1.089  1.00  0.00     0.157 HD
HETATM   39  H   UNL     1      40.388 -16.612   0.995  1.00  0.00     0.157 HD
ENDBRANCH   6  37
TORSDOF 9
ENDMDL
MODEL 9
REMARK VINA RESULT:      -7.4      5.471      8.800
REMARK  9 active torsions:
REMARK  status: ('A' for Active; 'I' for Inactive)
REMARK    1  A    between atoms: C_2  and  C_3 
REMARK    2  A    between atoms: C_4  and  N_5 
REMARK    3  A    between atoms: C_6  and  S_7 
REMARK    4  A    between atoms: S_7  and  C_8 
REMARK    5  A    between atoms: C_8  and  C_9 
REMARK       I    between atoms: C_9  and  N_10 
REMARK    6  A    between atoms: N_10  and  C_11 
REMARK    7  A    between atoms: C_12  and  O_13 
REMARK    8  A    between atoms: C_16  and  O_17 
REMARK    9  A    between atoms: C_26  and  N_27 
ROOT
HETATM    1  N   UNL     1      41.788  -9.181   8.078  1.00  0.00    -0.275 N 
HETATM    2  C   UNL     1      41.399 -10.254   7.232  1.00  0.00     0.177 A 
HETATM    3  N   UNL     1      42.212 -11.031   6.557  1.00  0.00    -0.204 NA
HETATM    4  C   UNL     1      43.521 -10.786   6.794  1.00  0.00     0.162 A 
HETATM    5  C   UNL     1      44.095  -9.823   7.580  1.00  0.00     0.081 A 
HETATM    6  C   UNL     1      43.208  -8.912   8.241  1.00  0.00     0.124 A 
HETATM    7  N   UNL     1      44.565 -11.537   6.335  1.00  0.00    -0.260 N 
HETATM    8  H   UNL     1      44.530 -12.369   5.757  1.00  0.00     0.191 HD
HETATM    9  N   UNL     1      45.766 -11.087   6.760  1.00  0.00    -0.177 NA
HETATM   10  C   UNL     1      45.478 -10.045   7.554  1.00  0.00     0.068 A 
HETATM   11  C   UNL     1      46.573  -9.344   8.265  1.00  0.00     0.073 C 
ENDROOT
BRANCH   2  12
HETATM   12  S   UNL     1      39.678 -10.660   7.090  1.00  0.00    -0.082 SA
BRANCH  12  13
HETATM   13  C   UNL     1      39.630 -11.490   5.485  1.00  0.00     0.185 C 
BRANCH  13  14
HETATM   14  C   UNL     1      40.106 -12.932   5.591  1.00  0.00     0.232 C 
HETATM   15  N   UNL     1      41.055 -13.260   4.635  1.00  0.00    -0.324 N 
HETATM   16  H   UNL     1      41.192 -12.582   3.895  1.00  0.00     0.169 HD
HETATM   17  O   UNL     1      39.587 -13.704   6.393  1.00  0.00    -0.272 OA
BRANCH  15  18
HETATM   18  C   UNL     1      41.701 -14.507   4.484  1.00  0.00     0.070 A 
HETATM   19  C   UNL     1      41.340 -15.481   3.535  1.00  0.00     0.097 A 
HETATM   20  C   UNL     1      42.099 -16.658   3.430  1.00  0.00     0.077 A 
HETATM   21  C   UNL     1      43.191 -16.885   4.276  1.00  0.00     0.092 A 
HETATM   22  C   UNL     1      43.481 -15.951   5.276  1.00  0.00     0.069 A 
HETATM   23 CL   UNL     1      44.773 -16.199   6.398  1.00  0.00    -0.081 Cl
HETATM   24  C   UNL     1      42.741 -14.773   5.382  1.00  0.00     0.059 A 
BRANCH  19  25
HETATM   25  O   UNL     1      40.160 -15.294   2.865  1.00  0.00    -0.354 OA
HETATM   26  C   UNL     1      40.167 -15.450   1.454  1.00  0.00     0.210 C 
ENDBRANCH  19  25
BRANCH  21  27
HETATM   27  O   UNL     1      43.955 -18.022   4.230  1.00  0.00    -0.354 OA
HETATM   28  C   UNL     1      43.895 -18.759   3.013  1.00  0.00     0.210 C 
ENDBRANCH  21  27
ENDBRANCH  15  18
ENDBRANCH  13  14
ENDBRANCH  12  13
ENDBRANCH   2  12
BRANCH   1  29
HETATM   29  C   UNL     1      40.825  -8.315   8.682  1.00  0.00     0.049 A 
HETATM   30  C   UNL     1      40.391  -8.507  10.013  1.00  0.00    -0.031 A 
HETATM   31  C   UNL     1      39.522  -7.560  10.583  1.00  0.00     0.009 A 
HETATM   32  C   UNL     1      39.082  -6.454   9.854  1.00  0.00     0.001 A 
HETATM   33  C   UNL     1      39.505  -6.271   8.543  1.00  0.00     0.002 A 
HETATM   34  C   UNL     1      40.379  -7.190   7.962  1.00  0.00     0.031 A 
BRANCH  30  35
HETATM   35  C   UNL     1      40.801  -9.702  10.847  1.00  0.00     0.036 C 
HETATM   36  C   UNL     1      41.925  -9.383  11.823  1.00  0.00     0.010 C 
ENDBRANCH  30  35
ENDBRANCH   1  29
BRANCH   6  37
HETATM   37  N   UNL     1      43.668  -7.883   8.926  1.00  0.00    -0.384 N 
HETATM   38  H   UNL     1      44.404  -7.289   8.573  1.00  0.00     0.157 HD
HETATM   39  H   UNL     1      43.259  -7.659   9.826  1.00  0.00     0.157 HD
ENDBRANCH   6  37
TORSDOF 9
ENDMDL
MODEL 10
REMARK VINA RESULT:      -7.4      3.524      8.389
REMARK  9 active torsions:
REMARK  status: ('A' for Active; 'I' for Inactive)
REMARK    1  A    between atoms: C_2  and  C_3 
REMARK    2  A    between atoms: C_4  and  N_5 
REMARK    3  A    between atoms: C_6  and  S_7 
REMARK    4  A    between atoms: S_7  and  C_8 
REMARK    5  A    between atoms: C_8  and  C_9 
REMARK       I    between atoms: C_9  and  N_10 
REMARK    6  A    between atoms: N_10  and  C_11 
REMARK    7  A    between atoms: C_12  and  O_13 
REMARK    8  A    between atoms: C_16  and  O_17 
REMARK    9  A    between atoms: C_26  and  N_27 
ROOT
HETATM    1  N   UNL     1      41.843 -12.551   4.747  1.00  0.00    -0.275 N 
HETATM    2  C   UNL     1      42.247 -12.514   3.386  1.00  0.00     0.177 A 
HETATM    3  N   UNL     1      42.065 -11.512   2.559  1.00  0.00    -0.204 NA
HETATM    4  C   UNL     1      41.510 -10.422   3.139  1.00  0.00     0.162 A 
HETATM    5  C   UNL     1      41.074 -10.252   4.426  1.00  0.00     0.081 A 
HETATM    6  C   UNL     1      41.184 -11.379   5.302  1.00  0.00     0.124 A 
HETATM    7  N   UNL     1      41.345  -9.204   2.545  1.00  0.00    -0.260 N 
HETATM    8  H   UNL     1      41.598  -8.929   1.602  1.00  0.00     0.191 HD
HETATM    9  N   UNL     1      40.803  -8.283   3.370  1.00  0.00    -0.177 NA
HETATM   10  C   UNL     1      40.661  -8.918   4.544  1.00  0.00     0.068 A 
HETATM   11  C   UNL     1      40.155  -8.174   5.720  1.00  0.00     0.073 C 
ENDROOT
BRANCH   2  12
HETATM   12  S   UNL     1      43.134 -13.894   2.711  1.00  0.00    -0.082 SA
BRANCH  12  13
HETATM   13  C   UNL     1      41.786 -14.928   2.092  1.00  0.00     0.185 C 
BRANCH  13  14
HETATM   14  C   UNL     1      40.763 -14.105   1.323  1.00  0.00     0.232 C 
HETATM   15  N   UNL     1      41.273 -13.563   0.154  1.00  0.00    -0.324 N 
HETATM   16  H   UNL     1      42.276 -13.630   0.035  1.00  0.00     0.169 HD
HETATM   17  O   UNL     1      39.649 -13.892   1.796  1.00  0.00    -0.272 OA
BRANCH  15  18
HETATM   18  C   UNL     1      40.572 -12.772  -0.783  1.00  0.00     0.070 A 
HETATM   19  C   UNL     1      39.525 -13.242  -1.598  1.00  0.00     0.097 A 
HETATM   20  C   UNL     1      38.854 -12.345  -2.446  1.00  0.00     0.077 A 
HETATM   21  C   UNL     1      39.233 -10.999  -2.510  1.00  0.00     0.092 A 
HETATM   22  C   UNL     1      40.334 -10.567  -1.764  1.00  0.00     0.069 A 
HETATM   23 CL   UNL     1      40.897  -8.934  -1.847  1.00  0.00    -0.081 Cl
HETATM   24  C   UNL     1      41.001 -11.446  -0.910  1.00  0.00     0.059 A 
BRANCH  19  25
HETATM   25  O   UNL     1      39.322 -14.596  -1.634  1.00  0.00    -0.354 OA
HETATM   26  C   UNL     1      38.684 -15.139  -2.781  1.00  0.00     0.210 C 
ENDBRANCH  19  25
BRANCH  21  27
HETATM   27  O   UNL     1      38.625 -10.086  -3.332  1.00  0.00    -0.354 OA
HETATM   28  C   UNL     1      37.201 -10.099  -3.326  1.00  0.00     0.210 C 
ENDBRANCH  21  27
ENDBRANCH  15  18
ENDBRANCH  13  14
ENDBRANCH  12  13
ENDBRANCH   2  12
BRANCH   1  29
HETATM   29  C   UNL     1      41.981 -13.733   5.538  1.00  0.00     0.049 A 
HETATM   30  C   UNL     1      43.087 -13.921   6.398  1.00  0.00    -0.031 A 
HETATM   31  C   UNL     1      43.111 -15.057   7.228  1.00  0.00     0.009 A 
HETATM   32  C   UNL     1      42.075 -15.991   7.202  1.00  0.00     0.001 A 
HETATM   33  C   UNL     1      40.992 -15.806   6.351  1.00  0.00     0.002 A 
HETATM   34  C   UNL     1      40.940 -14.680   5.530  1.00  0.00     0.031 A 
BRANCH  30  35
HETATM   35  C   UNL     1      44.261 -12.966   6.449  1.00  0.00     0.036 C 
HETATM   36  C   UNL     1      44.108 -11.901   7.526  1.00  0.00     0.010 C 
ENDBRANCH  30  35
ENDBRANCH   1  29
BRANCH   6  37
HETATM   37  N   UNL     1      40.688 -11.350   6.524  1.00  0.00    -0.384 N 
HETATM   38  H   UNL     1      39.697 -11.424   6.702  1.00  0.00     0.157 HD
HETATM   39  H   UNL     1      41.315 -11.273   7.316  1.00  0.00     0.157 HD
ENDBRANCH   6  37
TORSDOF 9
ENDMDL
