MODEL 1
REMARK VINA RESULT:      -8.8      0.000      0.000
REMARK  6 active torsions:
REMARK  status: ('A' for Active; 'I' for Inactive)
REMARK    1  A    between atoms: C_4  and  C_5 
REMARK    2  A    between atoms: C_5  and  N_6 
REMARK    3  A    between atoms: C_5  and  C_25 
REMARK    4  A    between atoms: N_10  and  C_11 
REMARK    5  A    between atoms: C_15  and  C_16 
REMARK       I    between atoms: C_25  and  N_26 
REMARK    6  A    between atoms: N_26  and  C_27 
ROOT
HETATM    1  N   UNL     1      41.756 -12.213   3.205  1.00  0.00    -0.051 N 
HETATM    2  H   UNL     1      40.752 -11.968   3.113  1.00  0.00     0.281 HD
HETATM    3  C   UNL     1      41.841 -13.038   4.478  1.00  0.00     0.256 C 
HETATM    4  C   UNL     1      41.301 -12.215   5.668  1.00  0.00     0.152 C 
HETATM    5  N   UNL     1      41.962 -10.897   5.786  1.00  0.00    -0.363 N 
HETATM    6  C   UNL     1      42.146 -10.109   4.543  1.00  0.00     0.152 C 
HETATM    7  C   UNL     1      42.561 -10.944   3.301  1.00  0.00     0.256 C 
ENDROOT
BRANCH   1   8
HETATM    8  C   UNL     1      41.985 -13.026   1.892  1.00  0.00     0.312 C 
BRANCH   8   9
HETATM    9  C   UNL     1      42.153 -14.515   2.118  1.00  0.00    -0.018 A 
HETATM   10  C   UNL     1      43.400 -15.154   1.991  1.00  0.00     0.010 A 
HETATM   11  C   UNL     1      43.513 -16.534   2.165  1.00  0.00     0.001 A 
HETATM   12  C   UNL     1      42.388 -17.294   2.470  1.00  0.00     0.000 A 
HETATM   13  C   UNL     1      41.147 -16.677   2.606  1.00  0.00     0.001 A 
HETATM   14  C   UNL     1      41.029 -15.299   2.430  1.00  0.00     0.010 A 
ENDBRANCH   8   9
BRANCH   8  15
HETATM   15  C   UNL     1      40.883 -12.623   0.880  1.00  0.00     0.259 C 
HETATM   16  N   UNL     1      41.086 -13.005  -0.422  1.00  0.00    -0.304 N 
HETATM   17  H   UNL     1      41.880 -13.558  -0.724  1.00  0.00     0.171 HD
HETATM   18  O   UNL     1      39.956 -11.943   1.334  1.00  0.00    -0.270 OA
BRANCH  16  19
HETATM   19  C   UNL     1      40.187 -12.688  -1.403  1.00  0.00     0.172 A 
HETATM   20  S   UNL     1      39.085 -13.934  -1.778  1.00  0.00    -0.062 SA
HETATM   21  C   UNL     1      38.372 -12.913  -2.959  1.00  0.00     0.072 A 
HETATM   22  C   UNL     1      39.026 -11.698  -2.972  1.00  0.00     0.126 A 
HETATM   23  N   UNL     1      40.068 -11.572  -2.070  1.00  0.00    -0.236 NA
ENDBRANCH  16  19
ENDBRANCH   8  15
ENDBRANCH   1   8
BRANCH   5  24
HETATM   24  C   UNL     1      42.737 -10.660   6.899  1.00  0.00     0.125 A 
HETATM   25  N   UNL     1      42.105 -10.066   7.932  1.00  0.00    -0.350 N 
HETATM   26  H   UNL     1      41.128  -9.816   7.783  1.00  0.00     0.166 HD
HETATM   27  C   UNL     1      42.688  -9.760   9.103  1.00  0.00     0.106 A 
HETATM   28  C   UNL     1      44.027 -10.065   9.317  1.00  0.00     0.065 A 
HETATM   29  C   UNL     1      44.741 -10.668   8.278  1.00  0.00     0.045 A 
HETATM   30  C   UNL     1      44.102 -10.972   7.074  1.00  0.00     0.078 A 
HETATM   31 CL   UNL     1      45.019 -11.788   5.867  1.00  0.00    -0.080 Cl
BRANCH  28  32
HETATM   32  C   UNL     1      44.671  -9.707  10.631  1.00  0.00     0.418 C 
HETATM   33  F   UNL     1      44.570 -10.725  11.523  1.00  0.00    -0.166 F 
HETATM   34  F   UNL     1      45.987  -9.420  10.508  1.00  0.00    -0.166 F 
HETATM   35  F   UNL     1      44.074  -8.633  11.197  1.00  0.00    -0.166 F 
ENDBRANCH  28  32
ENDBRANCH   5  24
TORSDOF 6
ENDMDL
MODEL 2
REMARK VINA RESULT:      -8.6      6.041      9.360
REMARK  6 active torsions:
REMARK  status: ('A' for Active; 'I' for Inactive)
REMARK    1  A    between atoms: C_4  and  C_5 
REMARK    2  A    between atoms: C_5  and  N_6 
REMARK    3  A    between atoms: C_5  and  C_25 
REMARK    4  A    between atoms: N_10  and  C_11 
REMARK    5  A    between atoms: C_15  and  C_16 
REMARK       I    between atoms: C_25  and  N_26 
REMARK    6  A    between atoms: N_26  and  C_27 
ROOT
HETATM    1  N   UNL     1      41.688 -12.853   4.761  1.00  0.00    -0.051 N 
HETATM    2  H   UNL     1      41.571 -11.860   5.036  1.00  0.00     0.281 HD
HETATM    3  C   UNL     1      42.426 -12.805   3.434  1.00  0.00     0.256 C 
HETATM    4  C   UNL     1      41.609 -11.981   2.414  1.00  0.00     0.152 C 
HETATM    5  N   UNL     1      40.218 -12.465   2.287  1.00  0.00    -0.363 N 
HETATM    6  C   UNL     1      39.483 -12.775   3.537  1.00  0.00     0.152 C 
HETATM    7  C   UNL     1      40.329 -13.487   4.627  1.00  0.00     0.256 C 
ENDROOT
BRANCH   1   8
HETATM    8  C   UNL     1      42.539 -13.393   5.954  1.00  0.00     0.312 C 
BRANCH   8   9
HETATM    9  C   UNL     1      43.196 -14.730   5.679  1.00  0.00    -0.018 A 
HETATM   10  C   UNL     1      42.935 -15.465   4.507  1.00  0.00     0.010 A 
HETATM   11  C   UNL     1      43.525 -16.713   4.304  1.00  0.00     0.001 A 
HETATM   12  C   UNL     1      44.382 -17.244   5.262  1.00  0.00     0.000 A 
HETATM   13  C   UNL     1      44.656 -16.530   6.425  1.00  0.00     0.001 A 
HETATM   14  C   UNL     1      44.067 -15.283   6.634  1.00  0.00     0.010 A 
ENDBRANCH   8   9
BRANCH   8  15
HETATM   15  C   UNL     1      43.492 -12.261   6.413  1.00  0.00     0.259 C 
HETATM   16  N   UNL     1      43.274 -11.758   7.671  1.00  0.00    -0.304 N 
HETATM   17  H   UNL     1      42.566 -12.118   8.301  1.00  0.00     0.171 HD
HETATM   18  O   UNL     1      44.319 -11.880   5.578  1.00  0.00    -0.270 OA
BRANCH  16  19
HETATM   19  C   UNL     1      44.044 -10.745   8.173  1.00  0.00     0.172 A 
HETATM   20  S   UNL     1      43.362  -9.191   8.003  1.00  0.00    -0.062 SA
HETATM   21  C   UNL     1      44.750  -8.528   8.766  1.00  0.00     0.072 A 
HETATM   22  C   UNL     1      45.623  -9.544   9.096  1.00  0.00     0.126 A 
HETATM   23  N   UNL     1      45.210 -10.820   8.757  1.00  0.00    -0.236 NA
ENDBRANCH  16  19
ENDBRANCH   8  15
ENDBRANCH   1   8
BRANCH   5  24
HETATM   24  C   UNL     1      39.829 -13.006   1.081  1.00  0.00     0.125 A 
HETATM   25  N   UNL     1      39.108 -12.190   0.284  1.00  0.00    -0.350 N 
HETATM   26  H   UNL     1      38.887 -11.268   0.659  1.00  0.00     0.166 HD
HETATM   27  C   UNL     1      38.644 -12.532  -0.930  1.00  0.00     0.106 A 
HETATM   28  C   UNL     1      38.908 -13.795  -1.447  1.00  0.00     0.065 A 
HETATM   29  C   UNL     1      39.639 -14.691  -0.663  1.00  0.00     0.045 A 
HETATM   30  C   UNL     1      40.104 -14.301   0.595  1.00  0.00     0.078 A 
HETATM   31 CL   UNL     1      41.067 -15.425   1.473  1.00  0.00    -0.080 Cl
BRANCH  28  32
HETATM   32  C   UNL     1      38.374 -14.169  -2.806  1.00  0.00     0.418 C 
HETATM   33  F   UNL     1      38.366 -15.515  -2.980  1.00  0.00    -0.166 F 
HETATM   34  F   UNL     1      37.108 -13.738  -3.007  1.00  0.00    -0.166 F 
HETATM   35  F   UNL     1      39.139 -13.653  -3.796  1.00  0.00    -0.166 F 
ENDBRANCH  28  32
ENDBRANCH   5  24
TORSDOF 6
ENDMDL
MODEL 3
REMARK VINA RESULT:      -8.4      5.718      8.927
REMARK  6 active torsions:
REMARK  status: ('A' for Active; 'I' for Inactive)
REMARK    1  A    between atoms: C_4  and  C_5 
REMARK    2  A    between atoms: C_5  and  N_6 
REMARK    3  A    between atoms: C_5  and  C_25 
REMARK    4  A    between atoms: N_10  and  C_11 
REMARK    5  A    between atoms: C_15  and  C_16 
REMARK       I    between atoms: C_25  and  N_26 
REMARK    6  A    between atoms: N_26  and  C_27 
ROOT
HETATM    1  N   UNL     1      41.208 -15.202   2.615  1.00  0.00    -0.051 N 
HETATM    2  H   UNL     1      41.911 -15.755   2.090  1.00  0.00     0.281 HD
HETATM    3  C   UNL     1      39.871 -15.600   2.013  1.00  0.00     0.256 C 
HETATM    4  C   UNL     1      39.875 -15.305   0.497  1.00  0.00     0.152 C 
HETATM    5  N   UNL     1      40.251 -13.907   0.198  1.00  0.00    -0.363 N 
HETATM    6  C   UNL     1      41.413 -13.340   0.924  1.00  0.00     0.152 C 
HETATM    7  C   UNL     1      41.497 -13.736   2.423  1.00  0.00     0.256 C 
ENDROOT
BRANCH   1   8
HETATM    8  C   UNL     1      41.443 -15.723   4.068  1.00  0.00     0.312 C 
BRANCH   8   9
HETATM    9  C   UNL     1      42.449 -16.853   4.155  1.00  0.00    -0.018 A 
HETATM   10  C   UNL     1      42.908 -17.352   5.388  1.00  0.00     0.010 A 
HETATM   11  C   UNL     1      43.865 -18.366   5.432  1.00  0.00     0.001 A 
HETATM   12  C   UNL     1      44.376 -18.897   4.252  1.00  0.00     0.000 A 
HETATM   13  C   UNL     1      43.929 -18.420   3.023  1.00  0.00     0.001 A 
HETATM   14  C   UNL     1      42.973 -17.405   2.973  1.00  0.00     0.010 A 
ENDBRANCH   8   9
BRANCH   8  15
HETATM   15  C   UNL     1      41.730 -14.500   4.975  1.00  0.00     0.259 C 
HETATM   16  N   UNL     1      43.043 -14.112   5.071  1.00  0.00    -0.304 N 
HETATM   17  H   UNL     1      43.795 -14.553   4.555  1.00  0.00     0.171 HD
HETATM   18  O   UNL     1      40.755 -14.030   5.572  1.00  0.00    -0.270 OA
BRANCH  16  19
HETATM   19  C   UNL     1      43.413 -13.055   5.858  1.00  0.00     0.172 A 
HETATM   20  S   UNL     1      43.422 -11.550   5.057  1.00  0.00    -0.062 SA
HETATM   21  C   UNL     1      43.938 -10.806   6.516  1.00  0.00     0.072 A 
HETATM   22  C   UNL     1      44.059 -11.764   7.502  1.00  0.00     0.126 A 
HETATM   23  N   UNL     1      43.751 -13.057   7.119  1.00  0.00    -0.236 NA
ENDBRANCH  16  19
ENDBRANCH   8  15
ENDBRANCH   1   8
BRANCH   5  24
HETATM   24  C   UNL     1      39.300 -13.089  -0.372  1.00  0.00     0.125 A 
HETATM   25  N   UNL     1      38.763 -12.163   0.448  1.00  0.00    -0.350 N 
HETATM   26  H   UNL     1      39.081 -12.176   1.417  1.00  0.00     0.166 HD
HETATM   27  C   UNL     1      37.829 -11.272   0.078  1.00  0.00     0.106 A 
HETATM   28  C   UNL     1      37.360 -11.256  -1.231  1.00  0.00     0.065 A 
HETATM   29  C   UNL     1      37.868 -12.201  -2.126  1.00  0.00     0.045 A 
HETATM   30  C   UNL     1      38.838 -13.113  -1.704  1.00  0.00     0.078 A 
HETATM   31 CL   UNL     1      39.480 -14.196  -2.879  1.00  0.00    -0.080 Cl
BRANCH  28  32
HETATM   32  C   UNL     1      36.304 -10.258  -1.631  1.00  0.00     0.418 C 
HETATM   33  F   UNL     1      35.529 -10.736  -2.637  1.00  0.00    -0.166 F 
HETATM   34  F   UNL     1      35.475  -9.937  -0.612  1.00  0.00    -0.166 F 
HETATM   35  F   UNL     1      36.858  -9.108  -2.080  1.00  0.00    -0.166 F 
ENDBRANCH  28  32
ENDBRANCH   5  24
TORSDOF 6
ENDMDL
MODEL 4
REMARK VINA RESULT:      -8.3      2.505      4.580
REMARK  6 active torsions:
REMARK  status: ('A' for Active; 'I' for Inactive)
REMARK    1  A    between atoms: C_4  and  C_5 
REMARK    2  A    between atoms: C_5  and  N_6 
REMARK    3  A    between atoms: C_5  and  C_25 
REMARK    4  A    between atoms: N_10  and  C_11 
REMARK    5  A    between atoms: C_15  and  C_16 
REMARK       I    between atoms: C_25  and  N_26 
REMARK    6  A    between atoms: N_26  and  C_27 
ROOT
HETATM    1  N   UNL     1      41.443 -12.836   2.983  1.00  0.00    -0.051 N 
HETATM    2  H   UNL     1      40.974 -12.084   2.444  1.00  0.00     0.281 HD
HETATM    3  C   UNL     1      40.794 -12.794   4.356  1.00  0.00     0.256 C 
HETATM    4  C   UNL     1      40.980 -11.391   4.976  1.00  0.00     0.152 C 
HETATM    5  N   UNL     1      42.397 -10.967   4.990  1.00  0.00    -0.363 N 
HETATM    6  C   UNL     1      43.192 -11.191   3.759  1.00  0.00     0.152 C 
HETATM    7  C   UNL     1      42.919 -12.544   3.048  1.00  0.00     0.256 C 
ENDROOT
BRANCH   1   8
HETATM    8  C   UNL     1      41.068 -14.090   2.130  1.00  0.00     0.312 C 
BRANCH   8   9
HETATM    9  C   UNL     1      40.719 -13.766   0.692  1.00  0.00    -0.018 A 
HETATM   10  C   UNL     1      41.054 -12.535   0.100  1.00  0.00     0.010 A 
HETATM   11  C   UNL     1      40.681 -12.253  -1.215  1.00  0.00     0.001 A 
HETATM   12  C   UNL     1      39.971 -13.193  -1.956  1.00  0.00     0.000 A 
HETATM   13  C   UNL     1      39.636 -14.418  -1.389  1.00  0.00     0.001 A 
HETATM   14  C   UNL     1      40.005 -14.704  -0.074  1.00  0.00     0.010 A 
ENDBRANCH   8   9
BRANCH   8  15
HETATM   15  C   UNL     1      42.178 -15.152   2.327  1.00  0.00     0.259 C 
HETATM   16  N   UNL     1      41.928 -16.124   3.263  1.00  0.00    -0.304 N 
HETATM   17  H   UNL     1      41.058 -16.193   3.777  1.00  0.00     0.171 HD
HETATM   18  O   UNL     1      43.208 -14.986   1.664  1.00  0.00    -0.270 OA
BRANCH  16  19
HETATM   19  C   UNL     1      42.846 -17.103   3.531  1.00  0.00     0.172 A 
HETATM   20  S   UNL     1      43.639 -16.933   5.031  1.00  0.00    -0.062 SA
HETATM   21  C   UNL     1      44.537 -18.355   4.688  1.00  0.00     0.072 A 
HETATM   22  C   UNL     1      44.157 -18.854   3.458  1.00  0.00     0.126 A 
HETATM   23  N   UNL     1      43.180 -18.130   2.798  1.00  0.00    -0.236 NA
ENDBRANCH  16  19
ENDBRANCH   8  15
ENDBRANCH   1   8
BRANCH   5  24
HETATM   24  C   UNL     1      43.010 -10.803   6.213  1.00  0.00     0.125 A 
HETATM   25  N   UNL     1      42.900  -9.574   6.758  1.00  0.00    -0.350 N 
HETATM   26  H   UNL     1      42.407  -8.874   6.204  1.00  0.00     0.166 HD
HETATM   27  C   UNL     1      43.423  -9.221   7.944  1.00  0.00     0.106 A 
HETATM   28  C   UNL     1      44.124 -10.152   8.703  1.00  0.00     0.065 A 
HETATM   29  C   UNL     1      44.285 -11.440   8.184  1.00  0.00     0.045 A 
HETATM   30  C   UNL     1      43.728 -11.771   6.947  1.00  0.00     0.078 A 
HETATM   31 CL   UNL     1      43.894 -13.396   6.406  1.00  0.00    -0.080 Cl
BRANCH  28  32
HETATM   32  C   UNL     1      44.713  -9.740  10.027  1.00  0.00     0.418 C 
HETATM   33  F   UNL     1      43.990  -8.746  10.601  1.00  0.00    -0.166 F 
HETATM   34  F   UNL     1      44.760 -10.758  10.917  1.00  0.00    -0.166 F 
HETATM   35  F   UNL     1      45.974  -9.271   9.881  1.00  0.00    -0.166 F 
ENDBRANCH  28  32
ENDBRANCH   5  24
TORSDOF 6
ENDMDL
MODEL 5
REMARK VINA RESULT:      -8.3      5.192      7.366
REMARK  6 active torsions:
REMARK  status: ('A' for Active; 'I' for Inactive)
REMARK    1  A    between atoms: C_4  and  C_5 
REMARK    2  A    between atoms: C_5  and  N_6 
REMARK    3  A    between atoms: C_5  and  C_25 
REMARK    4  A    between atoms: N_10  and  C_11 
REMARK    5  A    between atoms: C_15  and  C_16 
REMARK       I    between atoms: C_25  and  N_26 
REMARK    6  A    between atoms: N_26  and  C_27 
ROOT
HETATM    1  N   UNL     1      41.023 -12.573   3.390  1.00  0.00    -0.051 N 
HETATM    2  H   UNL     1      41.515 -11.983   4.088  1.00  0.00     0.281 HD
HETATM    3  C   UNL     1      40.522 -13.772   4.177  1.00  0.00     0.256 C 
HETATM    4  C   UNL     1      41.715 -14.487   4.848  1.00  0.00     0.152 C 
HETATM    5  N   UNL     1      42.780 -14.832   3.882  1.00  0.00    -0.363 N 
HETATM    6  C   UNL     1      43.176 -13.793   2.901  1.00  0.00     0.152 C 
HETATM    7  C   UNL     1      41.997 -12.972   2.313  1.00  0.00     0.256 C 
ENDROOT
BRANCH   1   8
HETATM    8  C   UNL     1      39.900 -11.596   2.917  1.00  0.00     0.312 C 
BRANCH   8   9
HETATM    9  C   UNL     1      40.026 -10.198   3.489  1.00  0.00    -0.018 A 
HETATM   10  C   UNL     1      41.254  -9.687   3.949  1.00  0.00     0.010 A 
HETATM   11  C   UNL     1      41.327  -8.410   4.508  1.00  0.00     0.001 A 
HETATM   12  C   UNL     1      40.182  -7.627   4.614  1.00  0.00     0.000 A 
HETATM   13  C   UNL     1      38.961  -8.115   4.159  1.00  0.00     0.001 A 
HETATM   14  C   UNL     1      38.881  -9.391   3.602  1.00  0.00     0.010 A 
ENDBRANCH   8   9
BRANCH   8  15
HETATM   15  C   UNL     1      39.809 -11.682   1.373  1.00  0.00     0.259 C 
HETATM   16  N   UNL     1      39.086 -12.732   0.866  1.00  0.00    -0.304 N 
HETATM   17  H   UNL     1      38.592 -13.400   1.445  1.00  0.00     0.171 HD
HETATM   18  O   UNL     1      40.449 -10.830   0.747  1.00  0.00    -0.270 OA
BRANCH  16  19
HETATM   19  C   UNL     1      38.954 -12.915  -0.483  1.00  0.00     0.172 A 
HETATM   20  S   UNL     1      39.959 -14.132  -1.130  1.00  0.00    -0.062 SA
HETATM   21  C   UNL     1      39.310 -13.804  -2.686  1.00  0.00     0.072 A 
HETATM   22  C   UNL     1      38.373 -12.795  -2.590  1.00  0.00     0.126 A 
HETATM   23  N   UNL     1      38.168 -12.290  -1.318  1.00  0.00    -0.236 NA
ENDBRANCH  16  19
ENDBRANCH   8  15
ENDBRANCH   1   8
BRANCH   5  24
HETATM   24  C   UNL     1      43.035 -16.165   3.648  1.00  0.00     0.125 A 
HETATM   25  N   UNL     1      42.509 -16.667   2.512  1.00  0.00    -0.350 N 
HETATM   26  H   UNL     1      41.945 -16.028   1.952  1.00  0.00     0.166 HD
HETATM   27  C   UNL     1      42.653 -17.940   2.108  1.00  0.00     0.106 A 
HETATM   28  C   UNL     1      43.393 -18.835   2.871  1.00  0.00     0.065 A 
HETATM   29  C   UNL     1      43.952 -18.379   4.068  1.00  0.00     0.045 A 
HETATM   30  C   UNL     1      43.780 -17.048   4.457  1.00  0.00     0.078 A 
HETATM   31 CL   UNL     1      44.564 -16.532   5.900  1.00  0.00    -0.080 Cl
BRANCH  28  32
HETATM   32  C   UNL     1      43.538 -20.263   2.411  1.00  0.00     0.418 C 
HETATM   33  F   UNL     1      42.431 -20.683   1.749  1.00  0.00    -0.166 F 
HETATM   34  F   UNL     1      44.587 -20.438   1.575  1.00  0.00    -0.166 F 
HETATM   35  F   UNL     1      43.709 -21.104   3.457  1.00  0.00    -0.166 F 
ENDBRANCH  28  32
ENDBRANCH   5  24
TORSDOF 6
ENDMDL
MODEL 6
REMARK VINA RESULT:      -8.3      3.006      4.769
REMARK  6 active torsions:
REMARK  status: ('A' for Active; 'I' for Inactive)
REMARK    1  A    between atoms: C_4  and  C_5 
REMARK    2  A    between atoms: C_5  and  N_6 
REMARK    3  A    between atoms: C_5  and  C_25 
REMARK    4  A    between atoms: N_10  and  C_11 
REMARK    5  A    between atoms: C_15  and  C_16 
REMARK       I    between atoms: C_25  and  N_26 
REMARK    6  A    between atoms: N_26  and  C_27 
ROOT
HETATM    1  N   UNL     1      42.138 -13.166   4.861  1.00  0.00    -0.051 N 
HETATM    2  H   UNL     1      42.939 -13.314   4.217  1.00  0.00     0.281 HD
HETATM    3  C   UNL     1      41.921 -11.663   4.874  1.00  0.00     0.256 C 
HETATM    4  C   UNL     1      43.213 -10.955   5.334  1.00  0.00     0.152 C 
HETATM    5  N   UNL     1      43.713 -11.479   6.624  1.00  0.00    -0.363 N 
HETATM    6  C   UNL     1      43.737 -12.951   6.801  1.00  0.00     0.152 C 
HETATM    7  C   UNL     1      42.502 -13.694   6.223  1.00  0.00     0.256 C 
ENDROOT
BRANCH   1   8
HETATM    8  C   UNL     1      41.019 -13.975   4.132  1.00  0.00     0.312 C 
BRANCH   8   9
HETATM    9  C   UNL     1      40.575 -13.356   2.821  1.00  0.00    -0.018 A 
HETATM   10  C   UNL     1      41.417 -13.307   1.695  1.00  0.00     0.010 A 
HETATM   11  C   UNL     1      40.991 -12.693   0.516  1.00  0.00     0.001 A 
HETATM   12  C   UNL     1      39.724 -12.124   0.443  1.00  0.00     0.000 A 
HETATM   13  C   UNL     1      38.875 -12.169   1.545  1.00  0.00     0.001 A 
HETATM   14  C   UNL     1      39.297 -12.779   2.727  1.00  0.00     0.010 A 
ENDBRANCH   8   9
BRANCH   8  15
HETATM   15  C   UNL     1      41.469 -15.454   4.055  1.00  0.00     0.259 C 
HETATM   16  N   UNL     1      42.782 -15.672   3.721  1.00  0.00    -0.304 N 
HETATM   17  H   UNL     1      43.451 -14.926   3.573  1.00  0.00     0.171 HD
HETATM   18  O   UNL     1      40.586 -16.298   4.242  1.00  0.00    -0.270 OA
BRANCH  16  19
HETATM   19  C   UNL     1      43.284 -16.940   3.607  1.00  0.00     0.172 A 
HETATM   20  S   UNL     1      43.979 -17.553   5.038  1.00  0.00    -0.062 SA
HETATM   21  C   UNL     1      44.352 -19.006   4.204  1.00  0.00     0.072 A 
HETATM   22  C   UNL     1      43.912 -18.913   2.899  1.00  0.00     0.126 A 
HETATM   23  N   UNL     1      43.294 -17.722   2.562  1.00  0.00    -0.236 NA
ENDBRANCH  16  19
ENDBRANCH   8  15
ENDBRANCH   1   8
BRANCH   5  24
HETATM   24  C   UNL     1      43.714 -10.632   7.710  1.00  0.00     0.125 A 
HETATM   25  N   UNL     1      42.500 -10.340   8.220  1.00  0.00    -0.350 N 
HETATM   26  H   UNL     1      41.696 -10.740   7.737  1.00  0.00     0.166 HD
HETATM   27  C   UNL     1      42.295  -9.540   9.280  1.00  0.00     0.106 A 
HETATM   28  C   UNL     1      43.375  -8.959   9.935  1.00  0.00     0.065 A 
HETATM   29  C   UNL     1      44.659  -9.213   9.444  1.00  0.00     0.045 A 
HETATM   30  C   UNL     1      44.833 -10.049   8.339  1.00  0.00     0.078 A 
HETATM   31 CL   UNL     1      46.446 -10.384   7.839  1.00  0.00    -0.080 Cl
BRANCH  28  32
HETATM   32  C   UNL     1      43.131  -8.056  11.116  1.00  0.00     0.418 C 
HETATM   33  F   UNL     1      44.018  -8.299  12.114  1.00  0.00    -0.166 F 
HETATM   34  F   UNL     1      43.240  -6.745  10.803  1.00  0.00    -0.166 F 
HETATM   35  F   UNL     1      41.897  -8.247  11.637  1.00  0.00    -0.166 F 
ENDBRANCH  28  32
ENDBRANCH   5  24
TORSDOF 6
ENDMDL
MODEL 7
REMARK VINA RESULT:      -8.1      6.075      9.199
REMARK  6 active torsions:
REMARK  status: ('A' for Active; 'I' for Inactive)
REMARK    1  A    between atoms: C_4  and  C_5 
REMARK    2  A    between atoms: C_5  and  N_6 
REMARK    3  A    between atoms: C_5  and  C_25 
REMARK    4  A    between atoms: N_10  and  C_11 
REMARK    5  A    between atoms: C_15  and  C_16 
REMARK       I    between atoms: C_25  and  N_26 
REMARK    6  A    between atoms: N_26  and  C_27 
ROOT
HETATM    1  N   UNL     1      41.717 -13.195   5.316  1.00  0.00    -0.051 N 
HETATM    2  H   UNL     1      41.654 -12.228   5.688  1.00  0.00     0.281 HD
HETATM    3  C   UNL     1      42.511 -13.066   4.027  1.00  0.00     0.256 C 
HETATM    4  C   UNL     1      41.793 -12.089   3.070  1.00  0.00     0.152 C 
HETATM    5  N   UNL     1      40.379 -12.460   2.846  1.00  0.00    -0.363 N 
HETATM    6  C   UNL     1      39.574 -12.841   4.031  1.00  0.00     0.152 C 
HETATM    7  C   UNL     1      40.326 -13.716   5.071  1.00  0.00     0.256 C 
ENDROOT
BRANCH   1   8
HETATM    8  C   UNL     1      42.481 -13.909   6.476  1.00  0.00     0.312 C 
BRANCH   8   9
HETATM    9  C   UNL     1      42.847 -15.347   6.170  1.00  0.00    -0.018 A 
HETATM   10  C   UNL     1      42.842 -16.347   7.161  1.00  0.00     0.010 A 
HETATM   11  C   UNL     1      43.224 -17.653   6.854  1.00  0.00     0.001 A 
HETATM   12  C   UNL     1      43.614 -17.981   5.559  1.00  0.00     0.000 A 
HETATM   13  C   UNL     1      43.619 -17.007   4.566  1.00  0.00     0.001 A 
HETATM   14  C   UNL     1      43.240 -15.699   4.867  1.00  0.00     0.010 A 
ENDBRANCH   8   9
BRANCH   8  15
HETATM   15  C   UNL     1      43.655 -12.997   6.910  1.00  0.00     0.259 C 
HETATM   16  N   UNL     1      43.312 -11.785   7.454  1.00  0.00    -0.304 N 
HETATM   17  H   UNL     1      42.355 -11.497   7.616  1.00  0.00     0.171 HD
HETATM   18  O   UNL     1      44.789 -13.425   6.668  1.00  0.00    -0.270 OA
BRANCH  16  19
HETATM   19  C   UNL     1      44.268 -10.893   7.856  1.00  0.00     0.172 A 
HETATM   20  S   UNL     1      44.091 -10.347   9.462  1.00  0.00    -0.062 SA
HETATM   21  C   UNL     1      45.485  -9.367   9.256  1.00  0.00     0.072 A 
HETATM   22  C   UNL     1      45.982  -9.537   7.979  1.00  0.00     0.126 A 
HETATM   23  N   UNL     1      45.279 -10.420   7.178  1.00  0.00    -0.236 NA
ENDBRANCH  16  19
ENDBRANCH   8  15
ENDBRANCH   1   8
BRANCH   5  24
HETATM   24  C   UNL     1      40.006 -12.848   1.578  1.00  0.00     0.125 A 
HETATM   25  N   UNL     1      40.275 -14.131   1.261  1.00  0.00    -0.350 N 
HETATM   26  H   UNL     1      40.758 -14.682   1.969  1.00  0.00     0.166 HD
HETATM   27  C   UNL     1      39.981 -14.697   0.078  1.00  0.00     0.106 A 
HETATM   28  C   UNL     1      39.349 -13.955  -0.913  1.00  0.00     0.065 A 
HETATM   29  C   UNL     1      39.056 -12.614  -0.649  1.00  0.00     0.045 A 
HETATM   30  C   UNL     1      39.377 -12.059   0.592  1.00  0.00     0.078 A 
HETATM   31 CL   UNL     1      38.915 -10.426   0.879  1.00  0.00    -0.080 Cl
BRANCH  28  32
HETATM   32  C   UNL     1      39.034 -14.599  -2.238  1.00  0.00     0.418 C 
HETATM   33  F   UNL     1      38.809 -15.931  -2.099  1.00  0.00    -0.166 F 
HETATM   34  F   UNL     1      37.935 -14.073  -2.827  1.00  0.00    -0.166 F 
HETATM   35  F   UNL     1      40.062 -14.467  -3.108  1.00  0.00    -0.166 F 
ENDBRANCH  28  32
ENDBRANCH   5  24
TORSDOF 6
ENDMDL
MODEL 8
REMARK VINA RESULT:      -8.1     17.993     19.421
REMARK  6 active torsions:
REMARK  status: ('A' for Active; 'I' for Inactive)
REMARK    1  A    between atoms: C_4  and  C_5 
REMARK    2  A    between atoms: C_5  and  N_6 
REMARK    3  A    between atoms: C_5  and  C_25 
REMARK    4  A    between atoms: N_10  and  C_11 
REMARK    5  A    between atoms: C_15  and  C_16 
REMARK       I    between atoms: C_25  and  N_26 
REMARK    6  A    between atoms: N_26  and  C_27 
ROOT
HETATM    1  N   UNL     1      45.995 -28.894   0.275  1.00  0.00    -0.051 N 
HETATM    2  H   UNL     1      46.380 -28.052  -0.194  1.00  0.00     0.281 HD
HETATM    3  C   UNL     1      46.032 -28.566   1.757  1.00  0.00     0.256 C 
HETATM    4  C   UNL     1      47.480 -28.239   2.181  1.00  0.00     0.152 C 
HETATM    5  N   UNL     1      48.432 -29.305   1.799  1.00  0.00    -0.363 N 
HETATM    6  C   UNL     1      48.318 -29.867   0.432  1.00  0.00     0.152 C 
HETATM    7  C   UNL     1      46.861 -30.079  -0.062  1.00  0.00     0.256 C 
ENDROOT
BRANCH   1   8
HETATM    8  C   UNL     1      44.560 -28.946  -0.340  1.00  0.00     0.312 C 
BRANCH   8   9
HETATM    9  C   UNL     1      44.547 -29.132  -1.843  1.00  0.00    -0.018 A 
HETATM   10  C   UNL     1      44.046 -30.300  -2.448  1.00  0.00     0.010 A 
HETATM   11  C   UNL     1      44.087 -30.456  -3.834  1.00  0.00     0.001 A 
HETATM   12  C   UNL     1      44.624 -29.453  -4.635  1.00  0.00     0.000 A 
HETATM   13  C   UNL     1      45.119 -28.289  -4.055  1.00  0.00     0.001 A 
HETATM   14  C   UNL     1      45.083 -28.129  -2.670  1.00  0.00     0.010 A 
ENDBRANCH   8   9
BRANCH   8  15
HETATM   15  C   UNL     1      43.729 -29.973   0.469  1.00  0.00     0.259 C 
HETATM   16  N   UNL     1      42.570 -29.504   1.034  1.00  0.00    -0.304 N 
HETATM   17  H   UNL     1      42.230 -28.558   0.907  1.00  0.00     0.171 HD
HETATM   18  O   UNL     1      44.223 -31.100   0.578  1.00  0.00    -0.270 OA
BRANCH  16  19
HETATM   19  C   UNL     1      41.766 -30.319   1.784  1.00  0.00     0.172 A 
HETATM   20  S   UNL     1      42.037 -30.221   3.464  1.00  0.00    -0.062 SA
HETATM   21  C   UNL     1      40.810 -31.397   3.704  1.00  0.00     0.072 A 
HETATM   22  C   UNL     1      40.284 -31.769   2.483  1.00  0.00     0.126 A 
HETATM   23  N   UNL     1      40.836 -31.141   1.380  1.00  0.00    -0.236 NA
ENDBRANCH  16  19
ENDBRANCH   8  15
ENDBRANCH   1   8
BRANCH   5  24
HETATM   24  C   UNL     1      49.056 -30.006   2.808  1.00  0.00     0.125 A 
HETATM   25  N   UNL     1      50.361 -29.722   2.991  1.00  0.00    -0.350 N 
HETATM   26  H   UNL     1      50.774 -29.045   2.350  1.00  0.00     0.166 HD
HETATM   27  C   UNL     1      51.138 -30.295   3.926  1.00  0.00     0.106 A 
HETATM   28  C   UNL     1      50.604 -31.242   4.792  1.00  0.00     0.065 A 
HETATM   29  C   UNL     1      49.258 -31.590   4.643  1.00  0.00     0.045 A 
HETATM   30  C   UNL     1      48.482 -30.973   3.659  1.00  0.00     0.078 A 
HETATM   31 CL   UNL     1      46.813 -31.389   3.583  1.00  0.00    -0.080 Cl
BRANCH  28  32
HETATM   32  C   UNL     1      51.488 -31.884   5.830  1.00  0.00     0.418 C 
HETATM   33  F   UNL     1      52.289 -30.968   6.431  1.00  0.00    -0.166 F 
HETATM   34  F   UNL     1      50.784 -32.495   6.810  1.00  0.00    -0.166 F 
HETATM   35  F   UNL     1      52.303 -32.812   5.277  1.00  0.00    -0.166 F 
ENDBRANCH  28  32
ENDBRANCH   5  24
TORSDOF 6
ENDMDL
MODEL 9
REMARK VINA RESULT:      -7.8      5.499      8.281
REMARK  6 active torsions:
REMARK  status: ('A' for Active; 'I' for Inactive)
REMARK    1  A    between atoms: C_4  and  C_5 
REMARK    2  A    between atoms: C_5  and  N_6 
REMARK    3  A    between atoms: C_5  and  C_25 
REMARK    4  A    between atoms: N_10  and  C_11 
REMARK    5  A    between atoms: C_15  and  C_16 
REMARK       I    between atoms: C_25  and  N_26 
REMARK    6  A    between atoms: N_26  and  C_27 
ROOT
HETATM    1  N   UNL     1      42.043 -12.259   5.618  1.00  0.00    -0.051 N 
HETATM    2  H   UNL     1      41.751 -12.056   6.593  1.00  0.00     0.281 HD
HETATM    3  C   UNL     1      41.129 -13.383   5.162  1.00  0.00     0.256 C 
HETATM    4  C   UNL     1      41.280 -14.593   6.110  1.00  0.00     0.152 C 
HETATM    5  N   UNL     1      42.689 -15.017   6.259  1.00  0.00    -0.363 N 
HETATM    6  C   UNL     1      43.704 -13.957   6.470  1.00  0.00     0.152 C 
HETATM    7  C   UNL     1      43.490 -12.676   5.619  1.00  0.00     0.256 C 
ENDROOT
BRANCH   1   8
HETATM    8  C   UNL     1      41.767 -10.883   4.934  1.00  0.00     0.312 C 
BRANCH   8   9
HETATM    9  C   UNL     1      40.916 -10.984   3.684  1.00  0.00    -0.018 A 
HETATM   10  C   UNL     1      39.512 -10.908   3.727  1.00  0.00     0.010 A 
HETATM   11  C   UNL     1      38.756 -11.046   2.562  1.00  0.00     0.001 A 
HETATM   12  C   UNL     1      39.388 -11.258   1.341  1.00  0.00     0.000 A 
HETATM   13  C   UNL     1      40.777 -11.330   1.278  1.00  0.00     0.001 A 
HETATM   14  C   UNL     1      41.537 -11.195   2.440  1.00  0.00     0.010 A 
ENDBRANCH   8   9
BRANCH   8  15
HETATM   15  C   UNL     1      41.251  -9.904   6.017  1.00  0.00     0.259 C 
HETATM   16  N   UNL     1      40.820 -10.470   7.191  1.00  0.00    -0.304 N 
HETATM   17  H   UNL     1      40.867 -11.464   7.381  1.00  0.00     0.171 HD
HETATM   18  O   UNL     1      41.221  -8.711   5.697  1.00  0.00    -0.270 OA
BRANCH  16  19
HETATM   19  C   UNL     1      40.328  -9.701   8.210  1.00  0.00     0.172 A 
HETATM   20  S   UNL     1      41.520  -9.065   9.250  1.00  0.00    -0.062 SA
HETATM   21  C   UNL     1      40.279  -8.315  10.170  1.00  0.00     0.072 A 
HETATM   22  C   UNL     1      39.052  -8.603   9.608  1.00  0.00     0.126 A 
HETATM   23  N   UNL     1      39.086  -9.399   8.477  1.00  0.00    -0.236 NA
ENDBRANCH  16  19
ENDBRANCH   8  15
ENDBRANCH   1   8
BRANCH   5  24
HETATM   24  C   UNL     1      43.046 -16.258   5.780  1.00  0.00     0.125 A 
HETATM   25  N   UNL     1      43.081 -17.247   6.696  1.00  0.00    -0.350 N 
HETATM   26  H   UNL     1      42.877 -16.981   7.660  1.00  0.00     0.166 HD
HETATM   27  C   UNL     1      43.399 -18.523   6.423  1.00  0.00     0.106 A 
HETATM   28  C   UNL     1      43.709 -18.902   5.122  1.00  0.00     0.065 A 
HETATM   29  C   UNL     1      43.703 -17.918   4.128  1.00  0.00     0.045 A 
HETATM   30  C   UNL     1      43.368 -16.601   4.450  1.00  0.00     0.078 A 
HETATM   31 CL   UNL     1      43.301 -15.458   3.165  1.00  0.00    -0.080 Cl
BRANCH  28  32
HETATM   32  C   UNL     1      44.073 -20.335   4.830  1.00  0.00     0.418 C 
HETATM   33  F   UNL     1      43.997 -20.602   3.501  1.00  0.00    -0.166 F 
HETATM   34  F   UNL     1      45.329 -20.645   5.224  1.00  0.00    -0.166 F 
HETATM   35  F   UNL     1      43.230 -21.193   5.449  1.00  0.00    -0.166 F 
ENDBRANCH  28  32
ENDBRANCH   5  24
TORSDOF 6
ENDMDL
MODEL 10
REMARK VINA RESULT:      -7.6      5.074      7.458
REMARK  6 active torsions:
REMARK  status: ('A' for Active; 'I' for Inactive)
REMARK    1  A    between atoms: C_4  and  C_5 
REMARK    2  A    between atoms: C_5  and  N_6 
REMARK    3  A    between atoms: C_5  and  C_25 
REMARK    4  A    between atoms: N_10  and  C_11 
REMARK    5  A    between atoms: C_15  and  C_16 
REMARK       I    between atoms: C_25  and  N_26 
REMARK    6  A    between atoms: N_26  and  C_27 
ROOT
HETATM    1  N   UNL     1      40.927 -12.494   4.562  1.00  0.00    -0.051 N 
HETATM    2  H   UNL     1      41.504 -11.954   5.235  1.00  0.00     0.281 HD
HETATM    3  C   UNL     1      40.575 -13.777   5.294  1.00  0.00     0.256 C 
HETATM    4  C   UNL     1      41.869 -14.508   5.713  1.00  0.00     0.152 C 
HETATM    5  N   UNL     1      42.787 -14.724   4.574  1.00  0.00    -0.363 N 
HETATM    6  C   UNL     1      43.012 -13.586   3.651  1.00  0.00     0.152 C 
HETATM    7  C   UNL     1      41.740 -12.757   3.322  1.00  0.00     0.256 C 
ENDROOT
BRANCH   1   8
HETATM    8  C   UNL     1      39.726 -11.519   4.353  1.00  0.00     0.312 C 
BRANCH   8   9
HETATM    9  C   UNL     1      39.962 -10.131   4.912  1.00  0.00    -0.018 A 
HETATM   10  C   UNL     1      38.914  -9.208   5.090  1.00  0.00     0.010 A 
HETATM   11  C   UNL     1      39.173  -7.923   5.569  1.00  0.00     0.001 A 
HETATM   12  C   UNL     1      40.475  -7.541   5.878  1.00  0.00     0.000 A 
HETATM   13  C   UNL     1      41.522  -8.443   5.714  1.00  0.00     0.001 A 
HETATM   14  C   UNL     1      41.270  -9.727   5.233  1.00  0.00     0.010 A 
ENDBRANCH   8   9
BRANCH   8  15
HETATM   15  C   UNL     1      39.315 -11.578   2.861  1.00  0.00     0.259 C 
HETATM   16  N   UNL     1      39.861 -10.621   2.043  1.00  0.00    -0.304 N 
HETATM   17  H   UNL     1      40.532  -9.932   2.361  1.00  0.00     0.171 HD
HETATM   18  O   UNL     1      38.486 -12.446   2.563  1.00  0.00    -0.270 OA
BRANCH  16  19
HETATM   19  C   UNL     1      39.554 -10.568   0.710  1.00  0.00     0.172 A 
HETATM   20  S   UNL     1      40.623 -11.438  -0.293  1.00  0.00    -0.062 SA
HETATM   21  C   UNL     1      39.703 -10.946  -1.656  1.00  0.00     0.072 A 
HETATM   22  C   UNL     1      38.647 -10.160  -1.239  1.00  0.00     0.126 A 
HETATM   23  N   UNL     1      38.564  -9.949   0.126  1.00  0.00    -0.236 NA
ENDBRANCH  16  19
ENDBRANCH   8  15
ENDBRANCH   1   8
BRANCH   5  24
HETATM   24  C   UNL     1      43.035 -16.020   4.179  1.00  0.00     0.125 A 
HETATM   25  N   UNL     1      42.388 -16.421   3.066  1.00  0.00    -0.350 N 
HETATM   26  H   UNL     1      41.752 -15.746   2.642  1.00  0.00     0.166 HD
HETATM   27  C   UNL     1      42.504 -17.643   2.520  1.00  0.00     0.106 A 
HETATM   28  C   UNL     1      43.342 -18.589   3.099  1.00  0.00     0.065 A 
HETATM   29  C   UNL     1      44.030 -18.238   4.264  1.00  0.00     0.045 A 
HETATM   30  C   UNL     1      43.884 -16.957   4.803  1.00  0.00     0.078 A 
HETATM   31 CL   UNL     1      44.823 -16.565   6.191  1.00  0.00    -0.080 Cl
BRANCH  28  32
HETATM   32  C   UNL     1      43.456 -19.960   2.483  1.00  0.00     0.418 C 
HETATM   33  F   UNL     1      42.359 -20.260   1.742  1.00  0.00    -0.166 F 
HETATM   34  F   UNL     1      44.528 -20.078   1.666  1.00  0.00    -0.166 F 
HETATM   35  F   UNL     1      43.561 -20.919   3.431  1.00  0.00    -0.166 F 
ENDBRANCH  28  32
ENDBRANCH   5  24
TORSDOF 6
ENDMDL
