MODEL 1
REMARK VINA RESULT:      -9.0      0.000      0.000
REMARK  5 active torsions:
REMARK  status: ('A' for Active; 'I' for Inactive)
REMARK    1  A    between atoms: C_7  and  C_8 
REMARK    2  A    between atoms: N_9  and  N_10 
REMARK       I    between atoms: N_10  and  C_11 
REMARK    3  A    between atoms: C_11  and  C_12 
REMARK    4  A    between atoms: C_12  and  N_13 
REMARK       I    between atoms: N_13  and  C_14 
REMARK    5  A    between atoms: C_14  and  C_15 
ROOT
HETATM    1  N   UNL     1      40.510 -14.212   2.953  1.00  0.00    -0.246 N 
HETATM    2  C   UNL     1      39.954 -13.145   3.644  1.00  0.00     0.255 C 
HETATM    3  O   UNL     1      39.948 -13.007   4.866  1.00  0.00    -0.270 OA
HETATM    4  H   UNL     1      40.470 -14.217   1.929  1.00  0.00     0.192 HD
ENDROOT
BRANCH   1   5
HETATM    5  N   UNL     1      41.090 -15.243   3.631  1.00  0.00    -0.184 NA
HETATM    6  C   UNL     1      42.339 -15.454   3.366  1.00  0.00     0.153 C 
BRANCH   6   7
HETATM    7  C   UNL     1      43.048 -16.541   4.019  1.00  0.00     0.018 A 
HETATM    8  C   UNL     1      43.663 -16.508   5.265  1.00  0.00     0.018 A 
HETATM    9  C   UNL     1      43.788 -15.415   6.267  1.00  0.00     0.069 C 
HETATM   10  N   UNL     1      44.204 -17.747   5.499  1.00  0.00    -0.358 N 
HETATM   11  H   UNL     1      44.709 -18.010   6.333  1.00  0.00     0.166 HD
HETATM   12  C   UNL     1      43.959 -18.591   4.442  1.00  0.00     0.043 A 
HETATM   13  C   UNL     1      43.238 -17.864   3.496  1.00  0.00     0.004 A 
HETATM   14  C   UNL     1      44.319 -19.932   4.263  1.00  0.00     0.030 A 
HETATM   15  C   UNL     1      42.856 -18.519   2.304  1.00  0.00     0.014 A 
HETATM   16  C   UNL     1      43.206 -19.860   2.108  1.00  0.00     0.001 A 
HETATM   17  C   UNL     1      43.926 -20.555   3.076  1.00  0.00     0.002 A 
ENDBRANCH   6   7
ENDBRANCH   1   5
BRANCH   2  18
HETATM   18  C   UNL     1      39.229 -12.159   2.726  1.00  0.00     0.227 C 
BRANCH  18  19
HETATM   19  N   UNL     1      38.784 -12.738   1.468  1.00  0.00    -0.348 N 
HETATM   20  C   UNL     1      39.137 -12.216   0.247  1.00  0.00     0.255 C 
HETATM   21  O   UNL     1      39.719 -11.138   0.153  1.00  0.00    -0.268 OA
HETATM   22  H   UNL     1      38.262 -13.607   1.514  1.00  0.00     0.163 HD
BRANCH  20  23
HETATM   23  C   UNL     1      38.766 -12.989  -0.971  1.00  0.00     0.070 A 
HETATM   24  C   UNL     1      39.479 -14.108  -1.407  1.00  0.00     0.132 A 
HETATM   25  F   UNL     1      40.547 -14.558  -0.730  1.00  0.00    -0.205 F 
HETATM   26  C   UNL     1      39.107 -14.793  -2.564  1.00  0.00     0.043 A 
HETATM   27  C   UNL     1      38.007 -14.361  -3.303  1.00  0.00     0.003 A 
HETATM   28  C   UNL     1      37.284 -13.246  -2.883  1.00  0.00     0.001 A 
HETATM   29  C   UNL     1      37.661 -12.561  -1.724  1.00  0.00     0.020 A 
ENDBRANCH  20  23
ENDBRANCH  18  19
ENDBRANCH   2  18
TORSDOF 5
ENDMDL
MODEL 2
REMARK VINA RESULT:      -8.6      4.374      7.148
REMARK  5 active torsions:
REMARK  status: ('A' for Active; 'I' for Inactive)
REMARK    1  A    between atoms: C_7  and  C_8 
REMARK    2  A    between atoms: N_9  and  N_10 
REMARK       I    between atoms: N_10  and  C_11 
REMARK    3  A    between atoms: C_11  and  C_12 
REMARK    4  A    between atoms: C_12  and  N_13 
REMARK       I    between atoms: N_13  and  C_14 
REMARK    5  A    between atoms: C_14  and  C_15 
ROOT
HETATM    1  N   UNL     1      41.583 -13.507   4.864  1.00  0.00    -0.246 N 
HETATM    2  C   UNL     1      40.630 -13.287   5.847  1.00  0.00     0.255 C 
HETATM    3  O   UNL     1      39.896 -14.143   6.340  1.00  0.00    -0.270 OA
HETATM    4  H   UNL     1      42.150 -12.719   4.536  1.00  0.00     0.192 HD
ENDROOT
BRANCH   1   5
HETATM    5  N   UNL     1      41.753 -14.753   4.338  1.00  0.00    -0.184 NA
HETATM    6  C   UNL     1      42.938 -15.256   4.462  1.00  0.00     0.153 C 
BRANCH   6   7
HETATM    7  C   UNL     1      43.232 -16.570   3.918  1.00  0.00     0.018 A 
HETATM    8  C   UNL     1      43.393 -16.903   2.578  1.00  0.00     0.018 A 
HETATM    9  C   UNL     1      43.317 -16.071   1.346  1.00  0.00     0.069 C 
HETATM   10  N   UNL     1      43.669 -18.246   2.509  1.00  0.00    -0.358 N 
HETATM   11  H   UNL     1      43.835 -18.759   1.656  1.00  0.00     0.166 HD
HETATM   12  C   UNL     1      43.694 -18.801   3.766  1.00  0.00     0.043 A 
HETATM   13  C   UNL     1      43.422 -17.777   4.672  1.00  0.00     0.004 A 
HETATM   14  C   UNL     1      43.940 -20.123   4.159  1.00  0.00     0.030 A 
HETATM   15  C   UNL     1      43.396 -18.096   6.048  1.00  0.00     0.014 A 
HETATM   16  C   UNL     1      43.641 -19.412   6.459  1.00  0.00     0.001 A 
HETATM   17  C   UNL     1      43.910 -20.408   5.525  1.00  0.00     0.002 A 
ENDBRANCH   6   7
ENDBRANCH   1   5
BRANCH   2  18
HETATM   18  C   UNL     1      40.487 -11.808   6.214  1.00  0.00     0.227 C 
BRANCH  18  19
HETATM   19  N   UNL     1      41.607 -11.277   6.976  1.00  0.00    -0.348 N 
HETATM   20  C   UNL     1      42.727 -10.752   6.377  1.00  0.00     0.255 C 
HETATM   21  O   UNL     1      42.913 -10.848   5.166  1.00  0.00    -0.268 OA
HETATM   22  H   UNL     1      41.502 -11.224   7.984  1.00  0.00     0.163 HD
BRANCH  20  23
HETATM   23  C   UNL     1      43.732 -10.084   7.251  1.00  0.00     0.070 A 
HETATM   24  C   UNL     1      45.017 -10.591   7.456  1.00  0.00     0.132 A 
HETATM   25  F   UNL     1      45.421 -11.721   6.855  1.00  0.00    -0.205 F 
HETATM   26  C   UNL     1      45.922  -9.942   8.296  1.00  0.00     0.043 A 
HETATM   27  C   UNL     1      45.546  -8.768   8.946  1.00  0.00     0.003 A 
HETATM   28  C   UNL     1      44.267  -8.247   8.753  1.00  0.00     0.001 A 
HETATM   29  C   UNL     1      43.363  -8.902   7.911  1.00  0.00     0.020 A 
ENDBRANCH  20  23
ENDBRANCH  18  19
ENDBRANCH   2  18
TORSDOF 5
ENDMDL
MODEL 3
REMARK VINA RESULT:      -8.4      6.347      9.454
REMARK  5 active torsions:
REMARK  status: ('A' for Active; 'I' for Inactive)
REMARK    1  A    between atoms: C_7  and  C_8 
REMARK    2  A    between atoms: N_9  and  N_10 
REMARK       I    between atoms: N_10  and  C_11 
REMARK    3  A    between atoms: C_11  and  C_12 
REMARK    4  A    between atoms: C_12  and  N_13 
REMARK       I    between atoms: N_13  and  C_14 
REMARK    5  A    between atoms: C_14  and  C_15 
ROOT
HETATM    1  N   UNL     1      43.134 -12.217   6.843  1.00  0.00    -0.246 N 
HETATM    2  C   UNL     1      43.894 -11.345   7.609  1.00  0.00     0.255 C 
HETATM    3  O   UNL     1      45.047 -11.543   7.989  1.00  0.00    -0.270 OA
HETATM    4  H   UNL     1      42.185 -11.942   6.571  1.00  0.00     0.192 HD
ENDROOT
BRANCH   1   5
HETATM    5  N   UNL     1      43.642 -13.426   6.470  1.00  0.00    -0.184 NA
HETATM    6  C   UNL     1      42.768 -14.323   6.145  1.00  0.00     0.153 C 
BRANCH   6   7
HETATM    7  C   UNL     1      43.202 -15.652   5.751  1.00  0.00     0.018 A 
HETATM    8  C   UNL     1      43.690 -16.653   6.584  1.00  0.00     0.018 A 
HETATM    9  C   UNL     1      43.914 -16.680   8.055  1.00  0.00     0.069 C 
HETATM   10  N   UNL     1      43.971 -17.747   5.805  1.00  0.00    -0.358 N 
HETATM   11  H   UNL     1      44.337 -18.623   6.149  1.00  0.00     0.166 HD
HETATM   12  C   UNL     1      43.680 -17.492   4.487  1.00  0.00     0.043 A 
HETATM   13  C   UNL     1      43.198 -16.186   4.419  1.00  0.00     0.004 A 
HETATM   14  C   UNL     1      43.806 -18.319   3.363  1.00  0.00     0.030 A 
HETATM   15  C   UNL     1      42.820 -15.681   3.155  1.00  0.00     0.014 A 
HETATM   16  C   UNL     1      42.938 -16.494   2.021  1.00  0.00     0.001 A 
HETATM   17  C   UNL     1      43.423 -17.794   2.127  1.00  0.00     0.002 A 
ENDBRANCH   6   7
ENDBRANCH   1   5
BRANCH   2  18
HETATM   18  C   UNL     1      43.112 -10.105   8.046  1.00  0.00     0.227 C 
BRANCH  18  19
HETATM   19  N   UNL     1      42.913 -10.007   9.484  1.00  0.00    -0.348 N 
HETATM   20  C   UNL     1      42.706  -8.809  10.123  1.00  0.00     0.255 C 
HETATM   21  O   UNL     1      42.835  -7.737   9.537  1.00  0.00    -0.268 OA
HETATM   22  H   UNL     1      42.845 -10.876  10.005  1.00  0.00     0.163 HD
BRANCH  20  23
HETATM   23  C   UNL     1      42.345  -8.847  11.568  1.00  0.00     0.070 A 
HETATM   24  C   UNL     1      41.236  -9.543  12.056  1.00  0.00     0.132 A 
HETATM   25  F   UNL     1      40.433 -10.234  11.232  1.00  0.00    -0.205 F 
HETATM   26  C   UNL     1      40.923  -9.538  13.415  1.00  0.00     0.043 A 
HETATM   27  C   UNL     1      41.725  -8.830  14.309  1.00  0.00     0.003 A 
HETATM   28  C   UNL     1      42.835  -8.129  13.840  1.00  0.00     0.001 A 
HETATM   29  C   UNL     1      43.144  -8.136  12.476  1.00  0.00     0.020 A 
ENDBRANCH  20  23
ENDBRANCH  18  19
ENDBRANCH   2  18
TORSDOF 5
ENDMDL
MODEL 4
REMARK VINA RESULT:      -8.3      3.139      3.766
REMARK  5 active torsions:
REMARK  status: ('A' for Active; 'I' for Inactive)
REMARK    1  A    between atoms: C_7  and  C_8 
REMARK    2  A    between atoms: N_9  and  N_10 
REMARK       I    between atoms: N_10  and  C_11 
REMARK    3  A    between atoms: C_11  and  C_12 
REMARK    4  A    between atoms: C_12  and  N_13 
REMARK       I    between atoms: N_13  and  C_14 
REMARK    5  A    between atoms: C_14  and  C_15 
ROOT
HETATM    1  N   UNL     1      41.393 -14.926   0.347  1.00  0.00    -0.246 N 
HETATM    2  C   UNL     1      40.502 -13.869   0.238  1.00  0.00     0.255 C 
HETATM    3  O   UNL     1      39.905 -13.334   1.171  1.00  0.00    -0.270 OA
HETATM    4  H   UNL     1      41.845 -15.285  -0.499  1.00  0.00     0.192 HD
ENDROOT
BRANCH   1   5
HETATM    5  N   UNL     1      41.652 -15.483   1.564  1.00  0.00    -0.184 NA
HETATM    6  C   UNL     1      42.800 -16.068   1.678  1.00  0.00     0.153 C 
BRANCH   6   7
HETATM    7  C   UNL     1      43.169 -16.712   2.927  1.00  0.00     0.018 A 
HETATM    8  C   UNL     1      43.331 -16.102   4.166  1.00  0.00     0.018 A 
HETATM    9  C   UNL     1      43.193 -14.680   4.583  1.00  0.00     0.069 C 
HETATM   10  N   UNL     1      43.670 -17.075   5.072  1.00  0.00    -0.358 N 
HETATM   11  H   UNL     1      43.846 -16.916   6.053  1.00  0.00     0.166 HD
HETATM   12  C   UNL     1      43.733 -18.305   4.462  1.00  0.00     0.043 A 
HETATM   13  C   UNL     1      43.425 -18.111   3.116  1.00  0.00     0.004 A 
HETATM   14  C   UNL     1      44.032 -19.561   5.004  1.00  0.00     0.030 A 
HETATM   15  C   UNL     1      43.418 -19.240   2.267  1.00  0.00     0.014 A 
HETATM   16  C   UNL     1      43.714 -20.504   2.791  1.00  0.00     0.001 A 
HETATM   17  C   UNL     1      44.016 -20.659   4.141  1.00  0.00     0.002 A 
ENDBRANCH   6   7
ENDBRANCH   1   5
BRANCH   2  18
HETATM   18  C   UNL     1      40.232 -13.469  -1.215  1.00  0.00     0.227 C 
BRANCH  18  19
HETATM   19  N   UNL     1      40.927 -12.262  -1.635  1.00  0.00    -0.348 N 
HETATM   20  C   UNL     1      40.295 -11.048  -1.757  1.00  0.00     0.255 C 
HETATM   21  O   UNL     1      39.073 -10.948  -1.669  1.00  0.00    -0.268 OA
HETATM   22  H   UNL     1      41.932 -12.322  -1.759  1.00  0.00     0.163 HD
BRANCH  20  23
HETATM   23  C   UNL     1      41.139  -9.851  -2.028  1.00  0.00     0.070 A 
HETATM   24  C   UNL     1      41.981  -9.282  -1.070  1.00  0.00     0.132 A 
HETATM   25  F   UNL     1      42.082  -9.804   0.163  1.00  0.00    -0.205 F 
HETATM   26  C   UNL     1      42.741  -8.150  -1.360  1.00  0.00     0.043 A 
HETATM   27  C   UNL     1      42.666  -7.569  -2.625  1.00  0.00     0.003 A 
HETATM   28  C   UNL     1      41.831  -8.123  -3.594  1.00  0.00     0.001 A 
HETATM   29  C   UNL     1      41.069  -9.257  -3.298  1.00  0.00     0.020 A 
ENDBRANCH  20  23
ENDBRANCH  18  19
ENDBRANCH   2  18
TORSDOF 5
ENDMDL
MODEL 5
REMARK VINA RESULT:      -8.2      6.146      9.428
REMARK  5 active torsions:
REMARK  status: ('A' for Active; 'I' for Inactive)
REMARK    1  A    between atoms: C_7  and  C_8 
REMARK    2  A    between atoms: N_9  and  N_10 
REMARK       I    between atoms: N_10  and  C_11 
REMARK    3  A    between atoms: C_11  and  C_12 
REMARK    4  A    between atoms: C_12  and  N_13 
REMARK       I    between atoms: N_13  and  C_14 
REMARK    5  A    between atoms: C_14  and  C_15 
ROOT
HETATM    1  N   UNL     1      43.491 -12.927   7.162  1.00  0.00    -0.246 N 
HETATM    2  C   UNL     1      43.618 -11.552   7.290  1.00  0.00     0.255 C 
HETATM    3  O   UNL     1      43.317 -10.721   6.434  1.00  0.00    -0.270 OA
HETATM    4  H   UNL     1      43.761 -13.527   7.948  1.00  0.00     0.192 HD
ENDROOT
BRANCH   1   5
HETATM    5  N   UNL     1      43.023 -13.470   6.003  1.00  0.00    -0.184 NA
HETATM    6  C   UNL     1      42.948 -14.761   5.979  1.00  0.00     0.153 C 
BRANCH   6   7
HETATM    7  C   UNL     1      42.481 -15.442   4.784  1.00  0.00     0.018 A 
HETATM    8  C   UNL     1      41.439 -15.050   3.952  1.00  0.00     0.018 A 
HETATM    9  C   UNL     1      40.520 -13.881   4.018  1.00  0.00     0.069 C 
HETATM   10  N   UNL     1      41.342 -15.970   2.939  1.00  0.00    -0.358 N 
HETATM   11  H   UNL     1      40.670 -15.932   2.186  1.00  0.00     0.166 HD
HETATM   12  C   UNL     1      42.292 -16.952   3.082  1.00  0.00     0.043 A 
HETATM   13  C   UNL     1      43.022 -16.651   4.231  1.00  0.00     0.004 A 
HETATM   14  C   UNL     1      42.556 -18.070   2.281  1.00  0.00     0.030 A 
HETATM   15  C   UNL     1      44.074 -17.520   4.597  1.00  0.00     0.014 A 
HETATM   16  C   UNL     1      44.353 -18.642   3.807  1.00  0.00     0.001 A 
HETATM   17  C   UNL     1      43.603 -18.910   2.666  1.00  0.00     0.002 A 
ENDBRANCH   6   7
ENDBRANCH   1   5
BRANCH   2  18
HETATM   18  C   UNL     1      44.288 -11.138   8.602  1.00  0.00     0.227 C 
BRANCH  18  19
HETATM   19  N   UNL     1      43.449 -10.318   9.461  1.00  0.00    -0.348 N 
HETATM   20  C   UNL     1      43.535 -10.353  10.832  1.00  0.00     0.255 C 
HETATM   21  O   UNL     1      44.217 -11.196  11.412  1.00  0.00    -0.268 OA
HETATM   22  H   UNL     1      42.842  -9.641   9.011  1.00  0.00     0.163 HD
BRANCH  20  23
HETATM   23  C   UNL     1      42.750  -9.349  11.603  1.00  0.00     0.070 A 
HETATM   24  C   UNL     1      41.357  -9.268  11.546  1.00  0.00     0.132 A 
HETATM   25  F   UNL     1      40.643 -10.116  10.788  1.00  0.00    -0.205 F 
HETATM   26  C   UNL     1      40.661  -8.301  12.271  1.00  0.00     0.043 A 
HETATM   27  C   UNL     1      41.359  -7.396  13.068  1.00  0.00     0.003 A 
HETATM   28  C   UNL     1      42.750  -7.461  13.136  1.00  0.00     0.001 A 
HETATM   29  C   UNL     1      43.443  -8.431  12.407  1.00  0.00     0.020 A 
ENDBRANCH  20  23
ENDBRANCH  18  19
ENDBRANCH   2  18
TORSDOF 5
ENDMDL
MODEL 6
REMARK VINA RESULT:      -8.1      1.806      2.039
REMARK  5 active torsions:
REMARK  status: ('A' for Active; 'I' for Inactive)
REMARK    1  A    between atoms: C_7  and  C_8 
REMARK    2  A    between atoms: N_9  and  N_10 
REMARK       I    between atoms: N_10  and  C_11 
REMARK    3  A    between atoms: C_11  and  C_12 
REMARK    4  A    between atoms: C_12  and  N_13 
REMARK       I    between atoms: N_13  and  C_14 
REMARK    5  A    between atoms: C_14  and  C_15 
ROOT
HETATM    1  N   UNL     1      41.531 -13.910   3.348  1.00  0.00    -0.246 N 
HETATM    2  C   UNL     1      41.418 -12.713   4.041  1.00  0.00     0.255 C 
HETATM    3  O   UNL     1      41.574 -12.568   5.252  1.00  0.00    -0.270 OA
HETATM    4  H   UNL     1      41.393 -13.912   2.333  1.00  0.00     0.192 HD
ENDROOT
BRANCH   1   5
HETATM    5  N   UNL     1      41.812 -15.066   4.015  1.00  0.00    -0.184 NA
HETATM    6  C   UNL     1      42.985 -15.566   3.798  1.00  0.00     0.153 C 
BRANCH   6   7
HETATM    7  C   UNL     1      43.378 -16.807   4.443  1.00  0.00     0.018 A 
HETATM    8  C   UNL     1      43.722 -16.982   5.778  1.00  0.00     0.018 A 
HETATM    9  C   UNL     1      43.798 -16.013   6.906  1.00  0.00     0.069 C 
HETATM   10  N   UNL     1      44.016 -18.310   5.965  1.00  0.00    -0.358 N 
HETATM   11  H   UNL     1      44.295 -18.722   6.843  1.00  0.00     0.166 HD
HETATM   12  C   UNL     1      43.872 -19.008   4.790  1.00  0.00     0.043 A 
HETATM   13  C   UNL     1      43.475 -18.094   3.816  1.00  0.00     0.004 A 
HETATM   14  C   UNL     1      44.060 -20.371   4.528  1.00  0.00     0.030 A 
HETATM   15  C   UNL     1      43.254 -18.573   2.505  1.00  0.00     0.014 A 
HETATM   16  C   UNL     1      43.436 -19.933   2.225  1.00  0.00     0.001 A 
HETATM   17  C   UNL     1      43.833 -20.817   3.224  1.00  0.00     0.002 A 
ENDBRANCH   6   7
ENDBRANCH   1   5
BRANCH   2  18
HETATM   18  C   UNL     1      40.963 -11.555   3.151  1.00  0.00     0.227 C 
BRANCH  18  19
HETATM   19  N   UNL     1      40.646 -11.945   1.786  1.00  0.00    -0.348 N 
HETATM   20  C   UNL     1      41.221 -11.346   0.692  1.00  0.00     0.255 C 
HETATM   21  O   UNL     1      41.917 -10.339   0.802  1.00  0.00    -0.268 OA
HETATM   22  H   UNL     1      40.038 -12.748   1.660  1.00  0.00     0.163 HD
BRANCH  20  23
HETATM   23  C   UNL     1      40.951 -11.941  -0.647  1.00  0.00     0.070 A 
HETATM   24  C   UNL     1      41.220 -11.272  -1.844  1.00  0.00     0.132 A 
HETATM   25  F   UNL     1      41.756 -10.042  -1.845  1.00  0.00    -0.205 F 
HETATM   26  C   UNL     1      40.936 -11.859  -3.076  1.00  0.00     0.043 A 
HETATM   27  C   UNL     1      40.374 -13.133  -3.125  1.00  0.00     0.003 A 
HETATM   28  C   UNL     1      40.098 -13.815  -1.941  1.00  0.00     0.001 A 
HETATM   29  C   UNL     1      40.384 -13.223  -0.708  1.00  0.00     0.020 A 
ENDBRANCH  20  23
ENDBRANCH  18  19
ENDBRANCH   2  18
TORSDOF 5
ENDMDL
MODEL 7
REMARK VINA RESULT:      -8.0      4.465      8.117
REMARK  5 active torsions:
REMARK  status: ('A' for Active; 'I' for Inactive)
REMARK    1  A    between atoms: C_7  and  C_8 
REMARK    2  A    between atoms: N_9  and  N_10 
REMARK       I    between atoms: N_10  and  C_11 
REMARK    3  A    between atoms: C_11  and  C_12 
REMARK    4  A    between atoms: C_12  and  N_13 
REMARK       I    between atoms: N_13  and  C_14 
REMARK    5  A    between atoms: C_14  and  C_15 
ROOT
HETATM    1  N   UNL     1      41.349 -12.531   4.286  1.00  0.00    -0.246 N 
HETATM    2  C   UNL     1      42.107 -13.610   3.854  1.00  0.00     0.255 C 
HETATM    3  O   UNL     1      43.316 -13.751   4.028  1.00  0.00    -0.270 OA
HETATM    4  H   UNL     1      40.342 -12.524   4.097  1.00  0.00     0.192 HD
ENDROOT
BRANCH   1   5
HETATM    5  N   UNL     1      41.941 -11.493   4.941  1.00  0.00    -0.184 NA
HETATM    6  C   UNL     1      41.766 -11.468   6.223  1.00  0.00     0.153 C 
BRANCH   6   7
HETATM    7  C   UNL     1      42.338 -10.392   7.015  1.00  0.00     0.018 A 
HETATM    8  C   UNL     1      41.653  -9.340   7.612  1.00  0.00     0.018 A 
HETATM    9  C   UNL     1      40.205  -8.996   7.627  1.00  0.00     0.069 C 
HETATM   10  N   UNL     1      42.573  -8.561   8.270  1.00  0.00    -0.358 N 
HETATM   11  H   UNL     1      42.354  -7.728   8.796  1.00  0.00     0.166 HD
HETATM   12  C   UNL     1      43.838  -9.075   8.121  1.00  0.00     0.043 A 
HETATM   13  C   UNL     1      43.726 -10.223   7.337  1.00  0.00     0.004 A 
HETATM   14  C   UNL     1      45.060  -8.611   8.624  1.00  0.00     0.030 A 
HETATM   15  C   UNL     1      44.904 -10.944   7.042  1.00  0.00     0.014 A 
HETATM   16  C   UNL     1      46.134 -10.495   7.537  1.00  0.00     0.001 A 
HETATM   17  C   UNL     1      46.208  -9.345   8.318  1.00  0.00     0.002 A 
ENDBRANCH   6   7
ENDBRANCH   1   5
BRANCH   2  18
HETATM   18  C   UNL     1      41.300 -14.606   3.020  1.00  0.00     0.227 C 
BRANCH  18  19
HETATM   19  N   UNL     1      41.698 -15.993   3.204  1.00  0.00    -0.348 N 
HETATM   20  C   UNL     1      42.728 -16.567   2.500  1.00  0.00     0.255 C 
HETATM   21  O   UNL     1      43.268 -15.985   1.561  1.00  0.00    -0.268 OA
HETATM   22  H   UNL     1      41.240 -16.515   3.944  1.00  0.00     0.163 HD
BRANCH  20  23
HETATM   23  C   UNL     1      43.158 -17.939   2.893  1.00  0.00     0.070 A 
HETATM   24  C   UNL     1      43.892 -18.202   4.052  1.00  0.00     0.132 A 
HETATM   25  F   UNL     1      44.242 -17.214   4.891  1.00  0.00    -0.205 F 
HETATM   26  C   UNL     1      44.288 -19.499   4.374  1.00  0.00     0.043 A 
HETATM   27  C   UNL     1      43.952 -20.557   3.531  1.00  0.00     0.003 A 
HETATM   28  C   UNL     1      43.220 -20.313   2.370  1.00  0.00     0.001 A 
HETATM   29  C   UNL     1      42.826 -19.010   2.051  1.00  0.00     0.020 A 
ENDBRANCH  20  23
ENDBRANCH  18  19
ENDBRANCH   2  18
TORSDOF 5
ENDMDL
MODEL 8
REMARK VINA RESULT:      -8.0      4.425      7.678
REMARK  5 active torsions:
REMARK  status: ('A' for Active; 'I' for Inactive)
REMARK    1  A    between atoms: C_7  and  C_8 
REMARK    2  A    between atoms: N_9  and  N_10 
REMARK       I    between atoms: N_10  and  C_11 
REMARK    3  A    between atoms: C_11  and  C_12 
REMARK    4  A    between atoms: C_12  and  N_13 
REMARK       I    between atoms: N_13  and  C_14 
REMARK    5  A    between atoms: C_14  and  C_15 
ROOT
HETATM    1  N   UNL     1      40.250 -12.733   6.337  1.00  0.00    -0.246 N 
HETATM    2  C   UNL     1      39.629 -11.579   5.884  1.00  0.00     0.255 C 
HETATM    3  O   UNL     1      39.094 -11.436   4.786  1.00  0.00    -0.270 OA
HETATM    4  H   UNL     1      40.652 -12.745   7.279  1.00  0.00     0.192 HD
ENDROOT
BRANCH   1   5
HETATM    5  N   UNL     1      40.332 -13.831   5.532  1.00  0.00    -0.184 NA
HETATM    6  C   UNL     1      41.443 -13.967   4.883  1.00  0.00     0.153 C 
BRANCH   6   7
HETATM    7  C   UNL     1      41.627 -15.091   3.982  1.00  0.00     0.018 A 
HETATM    8  C   UNL     1      40.940 -15.334   2.798  1.00  0.00     0.018 A 
HETATM    9  C   UNL     1      39.859 -14.569   2.118  1.00  0.00     0.069 C 
HETATM   10  N   UNL     1      41.432 -16.496   2.258  1.00  0.00    -0.358 N 
HETATM   11  H   UNL     1      41.117 -16.910   1.393  1.00  0.00     0.166 HD
HETATM   12  C   UNL     1      42.423 -17.019   3.054  1.00  0.00     0.043 A 
HETATM   13  C   UNL     1      42.568 -16.162   4.144  1.00  0.00     0.004 A 
HETATM   14  C   UNL     1      43.194 -18.175   2.883  1.00  0.00     0.030 A 
HETATM   15  C   UNL     1      43.540 -16.484   5.117  1.00  0.00     0.014 A 
HETATM   16  C   UNL     1      44.321 -17.635   4.963  1.00  0.00     0.001 A 
HETATM   17  C   UNL     1      44.149 -18.467   3.860  1.00  0.00     0.002 A 
ENDBRANCH   6   7
ENDBRANCH   1   5
BRANCH   2  18
HETATM   18  C   UNL     1      39.756 -10.413   6.867  1.00  0.00     0.227 C 
BRANCH  18  19
HETATM   19  N   UNL     1      40.972 -10.440   7.664  1.00  0.00    -0.348 N 
HETATM   20  C   UNL     1      42.106  -9.751   7.310  1.00  0.00     0.255 C 
HETATM   21  O   UNL     1      42.207  -9.199   6.216  1.00  0.00    -0.268 OA
HETATM   22  H   UNL     1      40.934 -10.926   8.554  1.00  0.00     0.163 HD
BRANCH  20  23
HETATM   23  C   UNL     1      43.230  -9.715   8.286  1.00  0.00     0.070 A 
HETATM   24  C   UNL     1      44.487 -10.264   8.019  1.00  0.00     0.132 A 
HETATM   25  F   UNL     1      44.750 -10.851   6.841  1.00  0.00    -0.205 F 
HETATM   26  C   UNL     1      45.507 -10.224   8.969  1.00  0.00     0.043 A 
HETATM   27  C   UNL     1      45.279  -9.629  10.208  1.00  0.00     0.003 A 
HETATM   28  C   UNL     1      44.031  -9.077  10.492  1.00  0.00     0.001 A 
HETATM   29  C   UNL     1      43.010  -9.120   9.538  1.00  0.00     0.020 A 
ENDBRANCH  20  23
ENDBRANCH  18  19
ENDBRANCH   2  18
TORSDOF 5
ENDMDL
MODEL 9
REMARK VINA RESULT:      -7.8      6.154      9.658
REMARK  5 active torsions:
REMARK  status: ('A' for Active; 'I' for Inactive)
REMARK    1  A    between atoms: C_7  and  C_8 
REMARK    2  A    between atoms: N_9  and  N_10 
REMARK       I    between atoms: N_10  and  C_11 
REMARK    3  A    between atoms: C_11  and  C_12 
REMARK    4  A    between atoms: C_12  and  N_13 
REMARK       I    between atoms: N_13  and  C_14 
REMARK    5  A    between atoms: C_14  and  C_15 
ROOT
HETATM    1  N   UNL     1      44.118 -12.341   6.941  1.00  0.00    -0.246 N 
HETATM    2  C   UNL     1      45.090 -11.383   6.699  1.00  0.00     0.255 C 
HETATM    3  O   UNL     1      45.538 -11.078   5.594  1.00  0.00    -0.270 OA
HETATM    4  H   UNL     1      43.809 -12.503   7.905  1.00  0.00     0.192 HD
ENDROOT
BRANCH   1   5
HETATM    5  N   UNL     1      43.591 -13.062   5.911  1.00  0.00    -0.184 NA
HETATM    6  C   UNL     1      43.432 -14.326   6.136  1.00  0.00     0.153 C 
BRANCH   6   7
HETATM    7  C   UNL     1      42.897 -15.189   5.098  1.00  0.00     0.018 A 
HETATM    8  C   UNL     1      43.328 -16.470   4.772  1.00  0.00     0.018 A 
HETATM    9  C   UNL     1      44.412 -17.314   5.344  1.00  0.00     0.069 C 
HETATM   10  N   UNL     1      42.544 -16.927   3.742  1.00  0.00    -0.358 N 
HETATM   11  H   UNL     1      42.633 -17.832   3.305  1.00  0.00     0.166 HD
HETATM   12  C   UNL     1      41.612 -15.982   3.385  1.00  0.00     0.043 A 
HETATM   13  C   UNL     1      41.808 -14.879   4.216  1.00  0.00     0.004 A 
HETATM   14  C   UNL     1      40.618 -16.029   2.400  1.00  0.00     0.030 A 
HETATM   15  C   UNL     1      40.960 -13.762   4.049  1.00  0.00     0.014 A 
HETATM   16  C   UNL     1      39.960 -13.791   3.069  1.00  0.00     0.001 A 
HETATM   17  C   UNL     1      39.793 -14.911   2.258  1.00  0.00     0.002 A 
ENDBRANCH   6   7
ENDBRANCH   1   5
BRANCH   2  18
HETATM   18  C   UNL     1      45.660 -10.778   7.984  1.00  0.00     0.227 C 
BRANCH  18  19
HETATM   19  N   UNL     1      44.651 -10.247   8.886  1.00  0.00    -0.348 N 
HETATM   20  C   UNL     1      44.779 -10.299  10.253  1.00  0.00     0.255 C 
HETATM   21  O   UNL     1      45.680 -10.939  10.790  1.00  0.00    -0.268 OA
HETATM   22  H   UNL     1      43.870  -9.749   8.471  1.00  0.00     0.163 HD
BRANCH  20  23
HETATM   23  C   UNL     1      43.768  -9.573  11.073  1.00  0.00     0.070 A 
HETATM   24  C   UNL     1      43.114 -10.155  12.161  1.00  0.00     0.132 A 
HETATM   25  F   UNL     1      43.377 -11.417  12.536  1.00  0.00    -0.205 F 
HETATM   26  C   UNL     1      42.161  -9.446  12.891  1.00  0.00     0.043 A 
HETATM   27  C   UNL     1      41.850  -8.134  12.537  1.00  0.00     0.003 A 
HETATM   28  C   UNL     1      42.493  -7.538  11.453  1.00  0.00     0.001 A 
HETATM   29  C   UNL     1      43.446  -8.253  10.723  1.00  0.00     0.020 A 
ENDBRANCH  20  23
ENDBRANCH  18  19
ENDBRANCH   2  18
TORSDOF 5
ENDMDL
MODEL 10
REMARK VINA RESULT:      -7.6     14.958     17.166
REMARK  5 active torsions:
REMARK  status: ('A' for Active; 'I' for Inactive)
REMARK    1  A    between atoms: C_7  and  C_8 
REMARK    2  A    between atoms: N_9  and  N_10 
REMARK       I    between atoms: N_10  and  C_11 
REMARK    3  A    between atoms: C_11  and  C_12 
REMARK    4  A    between atoms: C_12  and  N_13 
REMARK       I    between atoms: N_13  and  C_14 
REMARK    5  A    between atoms: C_14  and  C_15 
ROOT
HETATM    1  N   UNL     1      42.520 -29.985   3.239  1.00  0.00    -0.246 N 
HETATM    2  C   UNL     1      41.379 -30.650   2.813  1.00  0.00     0.255 C 
HETATM    3  O   UNL     1      40.975 -30.709   1.653  1.00  0.00    -0.270 OA
HETATM    4  H   UNL     1      42.771 -30.014   4.232  1.00  0.00     0.192 HD
ENDROOT
BRANCH   1   5
HETATM    5  N   UNL     1      43.288 -29.297   2.347  1.00  0.00    -0.184 NA
HETATM    6  C   UNL     1      44.363 -29.899   1.953  1.00  0.00     0.153 C 
BRANCH   6   7
HETATM    7  C   UNL     1      45.263 -29.245   1.018  1.00  0.00     0.018 A 
HETATM    8  C   UNL     1      46.503 -28.686   1.304  1.00  0.00     0.018 A 
HETATM    9  C   UNL     1      47.259 -28.581   2.582  1.00  0.00     0.069 C 
HETATM   10  N   UNL     1      47.018 -28.185   0.135  1.00  0.00    -0.358 N 
HETATM   11  H   UNL     1      47.911 -27.725   0.047  1.00  0.00     0.166 HD
HETATM   12  C   UNL     1      46.150 -28.402  -0.909  1.00  0.00     0.043 A 
HETATM   13  C   UNL     1      45.039 -29.062  -0.388  1.00  0.00     0.004 A 
HETATM   14  C   UNL     1      46.273 -28.066  -2.263  1.00  0.00     0.030 A 
HETATM   15  C   UNL     1      43.994 -29.406  -1.274  1.00  0.00     0.014 A 
HETATM   16  C   UNL     1      44.100 -29.079  -2.631  1.00  0.00     0.001 A 
HETATM   17  C   UNL     1      45.225 -28.419  -3.116  1.00  0.00     0.002 A 
ENDBRANCH   6   7
ENDBRANCH   1   5
BRANCH   2  18
HETATM   18  C   UNL     1      40.574 -31.245   3.970  1.00  0.00     0.227 C 
BRANCH  18  19
HETATM   19  N   UNL     1      39.695 -32.336   3.579  1.00  0.00    -0.348 N 
HETATM   20  C   UNL     1      38.695 -32.809   4.394  1.00  0.00     0.255 C 
HETATM   21  O   UNL     1      38.590 -32.442   5.562  1.00  0.00    -0.268 OA
HETATM   22  H   UNL     1      39.786 -32.692   2.633  1.00  0.00     0.163 HD
BRANCH  20  23
HETATM   23  C   UNL     1      37.750 -33.810   3.823  1.00  0.00     0.070 A 
HETATM   24  C   UNL     1      36.395 -33.542   3.615  1.00  0.00     0.132 A 
HETATM   25  F   UNL     1      35.870 -32.343   3.914  1.00  0.00    -0.205 F 
HETATM   26  C   UNL     1      35.541 -34.514   3.094  1.00  0.00     0.043 A 
HETATM   27  C   UNL     1      36.039 -35.776   2.773  1.00  0.00     0.003 A 
HETATM   28  C   UNL     1      37.388 -36.060   2.975  1.00  0.00     0.001 A 
HETATM   29  C   UNL     1      38.241 -35.084   3.498  1.00  0.00     0.020 A 
ENDBRANCH  20  23
ENDBRANCH  18  19
ENDBRANCH   2  18
TORSDOF 5
ENDMDL
