MODEL 1
REMARK VINA RESULT:      -6.6      0.000      0.000
REMARK  5 active torsions:
REMARK  status: ('A' for Active; 'I' for Inactive)
REMARK    1  A    between atoms: C_2  and  O_3 
REMARK    2  A    between atoms: C_4  and  C_5 
REMARK    3  A    between atoms: C_5  and  O_6 
REMARK    4  A    between atoms: C_9  and  C_10 
REMARK    5  A    between atoms: C_22  and  O_23 
ROOT
HETATM    1  C   UNL     1      44.811 -16.428   6.077  1.00  0.00     0.047 C 
HETATM    2  C   UNL     1      43.276 -16.301   6.005  1.00  0.00     0.073 C 
HETATM    3  C   UNL     1      42.849 -15.857   4.558  1.00  0.00     0.133 C 
HETATM    4  C   UNL     1      43.105 -14.348   4.219  1.00  0.00     0.074 C 
HETATM    5  C   UNL     1      43.249 -13.491   5.435  1.00  0.00     0.030 A 
HETATM    6  C   UNL     1      43.079 -13.946   6.724  1.00  0.00     0.042 A 
HETATM    7  N   UNL     1      43.327 -12.894   7.558  1.00  0.00    -0.279 N 
HETATM    8  H   UNL     1      43.296 -12.865   8.572  1.00  0.00     0.189 HD
HETATM    9  N   UNL     1      43.703 -11.782   6.892  1.00  0.00    -0.149 NA
HETATM   10  C   UNL     1      43.657 -12.169   5.624  1.00  0.00     0.190 A 
HETATM   11  C   UNL     1      42.770 -15.336   7.118  1.00  0.00     0.097 C 
ENDROOT
BRANCH   4  12
HETATM   12  C   UNL     1      42.054 -13.662   3.351  1.00  0.00    -0.048 A 
HETATM   13  C   UNL     1      40.872 -13.113   3.888  1.00  0.00     0.009 A 
HETATM   14  C   UNL     1      39.913 -12.519   3.064  1.00  0.00     0.019 A 
HETATM   15  C   UNL     1      40.123 -12.470   1.690  1.00  0.00     0.011 A 
HETATM   16 BR   UNL     1      38.826 -11.673   0.571  1.00  0.00    -0.051 Br
HETATM   17  C   UNL     1      41.282 -13.009   1.134  1.00  0.00     0.019 A 
HETATM   18  C   UNL     1      42.240 -13.603   1.961  1.00  0.00     0.009 A 
ENDBRANCH   4  12
BRANCH   3  19
HETATM   19  C   UNL     1      41.425 -16.295   4.279  1.00  0.00     0.266 C 
HETATM   20  O   UNL     1      40.518 -16.274   5.102  1.00  0.00    -0.265 OA
BRANCH  19  21
HETATM   21  O   UNL     1      41.315 -16.760   3.003  1.00  0.00    -0.326 OA
HETATM   22  C   UNL     1      42.432 -17.526   2.552  1.00  0.00     0.213 C 
ENDBRANCH  19  21
ENDBRANCH   3  19
BRANCH   2  23
HETATM   23  O   UNL     1      42.793 -17.626   6.291  1.00  0.00    -0.389 OA
HETATM   24  H   UNL     1      42.024 -17.795   5.708  1.00  0.00     0.210 HD
ENDBRANCH   2  23
BRANCH  10  25
HETATM   25  O   UNL     1      44.037 -11.259   4.735  1.00  0.00    -0.343 OA
HETATM   26  H   UNL     1      43.469 -10.492   4.913  1.00  0.00     0.219 HD
ENDBRANCH  10  25
TORSDOF 5
ENDMDL
MODEL 2
REMARK VINA RESULT:      -6.6      3.809      5.992
REMARK  5 active torsions:
REMARK  status: ('A' for Active; 'I' for Inactive)
REMARK    1  A    between atoms: C_2  and  O_3 
REMARK    2  A    between atoms: C_4  and  C_5 
REMARK    3  A    between atoms: C_5  and  O_6 
REMARK    4  A    between atoms: C_9  and  C_10 
REMARK    5  A    between atoms: C_22  and  O_23 
ROOT
HETATM    1  C   UNL     1      40.635  -9.753   2.202  1.00  0.00     0.047 C 
HETATM    2  C   UNL     1      40.179 -10.985   3.009  1.00  0.00     0.073 C 
HETATM    3  C   UNL     1      41.329 -12.059   3.031  1.00  0.00     0.133 C 
HETATM    4  C   UNL     1      41.521 -12.860   1.698  1.00  0.00     0.074 C 
HETATM    5  C   UNL     1      40.315 -12.828   0.816  1.00  0.00     0.030 A 
HETATM    6  C   UNL     1      39.118 -12.244   1.168  1.00  0.00     0.042 A 
HETATM    7  N   UNL     1      38.275 -12.379   0.102  1.00  0.00    -0.279 N 
HETATM    8  H   UNL     1      37.314 -12.068   0.007  1.00  0.00     0.189 HD
HETATM    9  N   UNL     1      38.868 -12.976  -0.954  1.00  0.00    -0.149 NA
HETATM   10  C   UNL     1      40.090 -13.225  -0.504  1.00  0.00     0.190 A 
HETATM   11  C   UNL     1      38.840 -11.532   2.432  1.00  0.00     0.097 C 
ENDROOT
BRANCH   4  12
HETATM   12  C   UNL     1      41.890 -14.333   1.840  1.00  0.00    -0.048 A 
HETATM   13  C   UNL     1      40.928 -15.332   2.090  1.00  0.00     0.009 A 
HETATM   14  C   UNL     1      41.300 -16.669   2.248  1.00  0.00     0.019 A 
HETATM   15  C   UNL     1      42.643 -17.024   2.162  1.00  0.00     0.011 A 
HETATM   16 BR   UNL     1      43.151 -18.830   2.381  1.00  0.00    -0.051 Br
HETATM   17  C   UNL     1      43.614 -16.055   1.919  1.00  0.00     0.019 A 
HETATM   18  C   UNL     1      43.238 -14.717   1.762  1.00  0.00     0.009 A 
ENDBRANCH   4  12
BRANCH   3  19
HETATM   19  C   UNL     1      41.180 -12.954   4.245  1.00  0.00     0.266 C 
HETATM   20  O   UNL     1      40.115 -13.401   4.652  1.00  0.00    -0.265 OA
BRANCH  19  21
HETATM   21  O   UNL     1      42.389 -13.145   4.843  1.00  0.00    -0.326 OA
HETATM   22  C   UNL     1      42.555 -14.427   5.450  1.00  0.00     0.213 C 
ENDBRANCH  19  21
ENDBRANCH   3  19
BRANCH   2  23
HETATM   23  O   UNL     1      39.936 -10.477   4.333  1.00  0.00    -0.389 OA
HETATM   24  H   UNL     1      39.397  -9.664   4.246  1.00  0.00     0.210 HD
ENDBRANCH   2  23
BRANCH  10  25
HETATM   25  O   UNL     1      40.920 -13.778  -1.380  1.00  0.00    -0.343 OA
HETATM   26  H   UNL     1      41.483 -14.364  -0.846  1.00  0.00     0.219 HD
ENDBRANCH  10  25
TORSDOF 5
ENDMDL
MODEL 3
REMARK VINA RESULT:      -6.6      2.405      2.735
REMARK  5 active torsions:
REMARK  status: ('A' for Active; 'I' for Inactive)
REMARK    1  A    between atoms: C_2  and  O_3 
REMARK    2  A    between atoms: C_4  and  C_5 
REMARK    3  A    between atoms: C_5  and  O_6 
REMARK    4  A    between atoms: C_9  and  C_10 
REMARK    5  A    between atoms: C_22  and  O_23 
ROOT
HETATM    1  C   UNL     1      44.282 -15.429   6.264  1.00  0.00     0.047 C 
HETATM    2  C   UNL     1      43.584 -16.338   5.234  1.00  0.00     0.073 C 
HETATM    3  C   UNL     1      43.413 -15.564   3.875  1.00  0.00     0.133 C 
HETATM    4  C   UNL     1      42.280 -14.482   3.860  1.00  0.00     0.074 C 
HETATM    5  C   UNL     1      41.257 -14.689   4.930  1.00  0.00     0.030 A 
HETATM    6  C   UNL     1      41.244 -15.770   5.785  1.00  0.00     0.042 A 
HETATM    7  N   UNL     1      40.194 -15.594   6.640  1.00  0.00    -0.279 N 
HETATM    8  H   UNL     1      39.884 -16.191   7.399  1.00  0.00     0.189 HD
HETATM    9  N   UNL     1      39.544 -14.429   6.429  1.00  0.00    -0.149 NA
HETATM   10  C   UNL     1      40.207 -13.903   5.408  1.00  0.00     0.190 A 
HETATM   11  C   UNL     1      42.237 -16.863   5.814  1.00  0.00     0.097 C 
ENDROOT
BRANCH   4  12
HETATM   12  C   UNL     1      41.494 -14.342   2.560  1.00  0.00    -0.048 A 
HETATM   13  C   UNL     1      40.502 -15.266   2.173  1.00  0.00     0.009 A 
HETATM   14  C   UNL     1      39.823 -15.129   0.960  1.00  0.00     0.019 A 
HETATM   15  C   UNL     1      40.130 -14.066   0.116  1.00  0.00     0.011 A 
HETATM   16 BR   UNL     1      39.216 -13.881  -1.527  1.00  0.00    -0.051 Br
HETATM   17  C   UNL     1      41.108 -13.141   0.474  1.00  0.00     0.019 A 
HETATM   18  C   UNL     1      41.787 -13.281   1.688  1.00  0.00     0.009 A 
ENDBRANCH   4  12
BRANCH   3  19
HETATM   19  C   UNL     1      43.310 -16.547   2.727  1.00  0.00     0.266 C 
HETATM   20  O   UNL     1      43.737 -16.343   1.597  1.00  0.00    -0.265 OA
BRANCH  19  21
HETATM   21  O   UNL     1      42.632 -17.662   3.118  1.00  0.00    -0.326 OA
HETATM   22  C   UNL     1      42.885 -18.821   2.322  1.00  0.00     0.213 C 
ENDBRANCH  19  21
ENDBRANCH   3  19
BRANCH   2  23
HETATM   23  O   UNL     1      44.480 -17.452   5.072  1.00  0.00    -0.389 OA
HETATM   24  H   UNL     1      43.965 -18.272   5.220  1.00  0.00     0.210 HD
ENDBRANCH   2  23
BRANCH  10  25
HETATM   25  O   UNL     1      39.796 -12.702   5.018  1.00  0.00    -0.343 OA
HETATM   26  H   UNL     1      39.576 -12.812   4.078  1.00  0.00     0.219 HD
ENDBRANCH  10  25
TORSDOF 5
ENDMDL
MODEL 4
REMARK VINA RESULT:      -6.4      2.599      4.808
REMARK  5 active torsions:
REMARK  status: ('A' for Active; 'I' for Inactive)
REMARK    1  A    between atoms: C_2  and  O_3 
REMARK    2  A    between atoms: C_4  and  C_5 
REMARK    3  A    between atoms: C_5  and  O_6 
REMARK    4  A    between atoms: C_9  and  C_10 
REMARK    5  A    between atoms: C_22  and  O_23 
ROOT
HETATM    1  C   UNL     1      40.712 -11.733   4.921  1.00  0.00     0.047 C 
HETATM    2  C   UNL     1      41.974 -12.212   4.178  1.00  0.00     0.073 C 
HETATM    3  C   UNL     1      41.689 -13.598   3.490  1.00  0.00     0.133 C 
HETATM    4  C   UNL     1      41.651 -14.829   4.458  1.00  0.00     0.074 C 
HETATM    5  C   UNL     1      42.351 -14.578   5.754  1.00  0.00     0.030 A 
HETATM    6  C   UNL     1      43.046 -13.425   6.044  1.00  0.00     0.042 A 
HETATM    7  N   UNL     1      43.509 -13.544   7.323  1.00  0.00    -0.279 N 
HETATM    8  H   UNL     1      44.060 -12.886   7.865  1.00  0.00     0.189 HD
HETATM    9  N   UNL     1      43.113 -14.693   7.912  1.00  0.00    -0.149 NA
HETATM   10  C   UNL     1      42.413 -15.288   6.955  1.00  0.00     0.190 A 
HETATM   11  C   UNL     1      43.185 -12.251   5.158  1.00  0.00     0.097 C 
ENDROOT
BRANCH   4  12
HETATM   12  C   UNL     1      42.235 -16.132   3.919  1.00  0.00    -0.048 A 
HETATM   13  C   UNL     1      43.447 -16.671   4.395  1.00  0.00     0.009 A 
HETATM   14  C   UNL     1      43.973 -17.848   3.859  1.00  0.00     0.019 A 
HETATM   15  C   UNL     1      43.294 -18.502   2.836  1.00  0.00     0.011 A 
HETATM   16 BR   UNL     1      44.005 -20.092   2.106  1.00  0.00    -0.051 Br
HETATM   17  C   UNL     1      42.095 -17.989   2.346  1.00  0.00     0.019 A 
HETATM   18  C   UNL     1      41.571 -16.809   2.884  1.00  0.00     0.009 A 
ENDBRANCH   4  12
BRANCH   3  19
HETATM   19  C   UNL     1      42.625 -13.796   2.314  1.00  0.00     0.266 C 
HETATM   20  O   UNL     1      43.838 -13.631   2.357  1.00  0.00    -0.265 OA
BRANCH  19  21
HETATM   21  O   UNL     1      41.919 -14.130   1.198  1.00  0.00    -0.326 OA
HETATM   22  C   UNL     1      41.134 -13.070   0.652  1.00  0.00     0.213 C 
ENDBRANCH  19  21
ENDBRANCH   3  19
BRANCH   2  23
HETATM   23  O   UNL     1      42.216 -11.196   3.189  1.00  0.00    -0.389 OA
HETATM   24  H   UNL     1      43.186 -11.079   3.113  1.00  0.00     0.210 HD
ENDBRANCH   2  23
BRANCH  10  25
HETATM   25  O   UNL     1      41.853 -16.443   7.292  1.00  0.00    -0.343 OA
HETATM   26  H   UNL     1      42.064 -16.551   8.234  1.00  0.00     0.219 HD
ENDBRANCH  10  25
TORSDOF 5
ENDMDL
MODEL 5
REMARK VINA RESULT:      -6.3      3.032      4.965
REMARK  5 active torsions:
REMARK  status: ('A' for Active; 'I' for Inactive)
REMARK    1  A    between atoms: C_2  and  O_3 
REMARK    2  A    between atoms: C_4  and  C_5 
REMARK    3  A    between atoms: C_5  and  O_6 
REMARK    4  A    between atoms: C_9  and  C_10 
REMARK    5  A    between atoms: C_22  and  O_23 
ROOT
HETATM    1  C   UNL     1      42.905 -16.515   2.578  1.00  0.00     0.047 C 
HETATM    2  C   UNL     1      42.260 -15.116   2.640  1.00  0.00     0.073 C 
HETATM    3  C   UNL     1      43.199 -14.135   3.434  1.00  0.00     0.133 C 
HETATM    4  C   UNL     1      43.204 -14.327   4.989  1.00  0.00     0.074 C 
HETATM    5  C   UNL     1      41.996 -15.048   5.494  1.00  0.00     0.030 A 
HETATM    6  C   UNL     1      40.935 -15.424   4.700  1.00  0.00     0.042 A 
HETATM    7  N   UNL     1      40.049 -16.088   5.501  1.00  0.00    -0.279 N 
HETATM    8  H   UNL     1      39.157 -16.504   5.255  1.00  0.00     0.189 HD
HETATM    9  N   UNL     1      40.493 -16.216   6.769  1.00  0.00    -0.149 NA
HETATM   10  C   UNL     1      41.665 -15.594   6.736  1.00  0.00     0.190 A 
HETATM   11  C   UNL     1      40.828 -15.217   3.242  1.00  0.00     0.097 C 
ENDROOT
BRANCH   4  12
HETATM   12  C   UNL     1      43.307 -13.057   5.828  1.00  0.00    -0.048 A 
HETATM   13  C   UNL     1      42.213 -12.191   6.025  1.00  0.00     0.009 A 
HETATM   14  C   UNL     1      42.347 -11.017   6.771  1.00  0.00     0.019 A 
HETATM   15  C   UNL     1      43.580 -10.694   7.328  1.00  0.00     0.011 A 
HETATM   16 BR   UNL     1      43.766  -9.105   8.334  1.00  0.00    -0.051 Br
HETATM   17  C   UNL     1      44.678 -11.531   7.145  1.00  0.00     0.019 A 
HETATM   18  C   UNL     1      44.541 -12.705   6.398  1.00  0.00     0.009 A 
ENDBRANCH   4  12
BRANCH   3  19
HETATM   19  C   UNL     1      42.929 -12.704   3.013  1.00  0.00     0.266 C 
HETATM   20  O   UNL     1      43.780 -11.824   2.959  1.00  0.00    -0.265 OA
BRANCH  19  21
HETATM   21  O   UNL     1      41.603 -12.528   2.757  1.00  0.00    -0.326 OA
HETATM   22  C   UNL     1      41.291 -11.335   2.037  1.00  0.00     0.213 C 
ENDBRANCH  19  21
ENDBRANCH   3  19
BRANCH   2  23
HETATM   23  O   UNL     1      42.152 -14.710   1.263  1.00  0.00    -0.389 OA
HETATM   24  H   UNL     1      42.782 -13.974   1.119  1.00  0.00     0.210 HD
ENDBRANCH   2  23
BRANCH  10  25
HETATM   25  O   UNL     1      42.355 -15.615   7.870  1.00  0.00    -0.343 OA
HETATM   26  H   UNL     1      42.542 -14.680   8.058  1.00  0.00     0.219 HD
ENDBRANCH  10  25
TORSDOF 5
ENDMDL
MODEL 6
REMARK VINA RESULT:      -6.3      2.844      4.295
REMARK  5 active torsions:
REMARK  status: ('A' for Active; 'I' for Inactive)
REMARK    1  A    between atoms: C_2  and  O_3 
REMARK    2  A    between atoms: C_4  and  C_5 
REMARK    3  A    between atoms: C_5  and  O_6 
REMARK    4  A    between atoms: C_9  and  C_10 
REMARK    5  A    between atoms: C_22  and  O_23 
ROOT
HETATM    1  C   UNL     1      42.798 -17.292   7.240  1.00  0.00     0.047 C 
HETATM    2  C   UNL     1      43.237 -16.082   6.391  1.00  0.00     0.073 C 
HETATM    3  C   UNL     1      42.074 -15.670   5.416  1.00  0.00     0.133 C 
HETATM    4  C   UNL     1      41.875 -16.611   4.178  1.00  0.00     0.074 C 
HETATM    5  C   UNL     1      43.084 -17.432   3.867  1.00  0.00     0.030 A 
HETATM    6  C   UNL     1      44.287 -17.315   4.527  1.00  0.00     0.042 A 
HETATM    7  N   UNL     1      45.131 -18.248   3.995  1.00  0.00    -0.279 N 
HETATM    8  H   UNL     1      46.096 -18.446   4.239  1.00  0.00     0.189 HD
HETATM    9  N   UNL     1      44.533 -19.010   3.055  1.00  0.00    -0.149 NA
HETATM   10  C   UNL     1      43.306 -18.508   3.005  1.00  0.00     0.190 A 
HETATM   11  C   UNL     1      44.571 -16.404   5.655  1.00  0.00     0.097 C 
ENDROOT
BRANCH   4  12
HETATM   12  C   UNL     1      41.487 -15.933   2.868  1.00  0.00    -0.048 A 
HETATM   13  C   UNL     1      42.439 -15.339   2.014  1.00  0.00     0.009 A 
HETATM   14  C   UNL     1      42.049 -14.697   0.836  1.00  0.00     0.019 A 
HETATM   15  C   UNL     1      40.701 -14.637   0.499  1.00  0.00     0.011 A 
HETATM   16 BR   UNL     1      40.170 -13.765  -1.091  1.00  0.00    -0.051 Br
HETATM   17  C   UNL     1      39.740 -15.213   1.327  1.00  0.00     0.019 A 
HETATM   18  C   UNL     1      40.133 -15.855   2.506  1.00  0.00     0.009 A 
ENDBRANCH   4  12
BRANCH   3  19
HETATM   19  C   UNL     1      42.208 -14.209   5.035  1.00  0.00     0.266 C 
HETATM   20  O   UNL     1      43.270 -13.651   4.786  1.00  0.00    -0.265 OA
BRANCH  19  21
HETATM   21  O   UNL     1      40.990 -13.599   5.061  1.00  0.00    -0.326 OA
HETATM   22  C   UNL     1      40.199 -13.903   6.210  1.00  0.00     0.213 C 
ENDBRANCH  19  21
ENDBRANCH   3  19
BRANCH   2  23
HETATM   23  O   UNL     1      43.483 -15.040   7.353  1.00  0.00    -0.389 OA
HETATM   24  H   UNL     1      44.453 -14.960   7.464  1.00  0.00     0.210 HD
ENDBRANCH   2  23
BRANCH  10  25
HETATM   25  O   UNL     1      42.472 -19.121   2.174  1.00  0.00    -0.343 OA
HETATM   26  H   UNL     1      42.022 -19.783   2.725  1.00  0.00     0.219 HD
ENDBRANCH  10  25
TORSDOF 5
ENDMDL
MODEL 7
REMARK VINA RESULT:      -6.2     15.429     16.744
REMARK  5 active torsions:
REMARK  status: ('A' for Active; 'I' for Inactive)
REMARK    1  A    between atoms: C_2  and  O_3 
REMARK    2  A    between atoms: C_4  and  C_5 
REMARK    3  A    between atoms: C_5  and  O_6 
REMARK    4  A    between atoms: C_9  and  C_10 
REMARK    5  A    between atoms: C_22  and  O_23 
ROOT
HETATM    1  C   UNL     1      48.090 -28.145   2.928  1.00  0.00     0.047 C 
HETATM    2  C   UNL     1      48.123 -29.367   1.989  1.00  0.00     0.073 C 
HETATM    3  C   UNL     1      47.713 -28.928   0.535  1.00  0.00     0.133 C 
HETATM    4  C   UNL     1      46.184 -28.661   0.322  1.00  0.00     0.074 C 
HETATM    5  C   UNL     1      45.326 -29.315   1.357  1.00  0.00     0.030 A 
HETATM    6  C   UNL     1      45.807 -30.149   2.342  1.00  0.00     0.042 A 
HETATM    7  N   UNL     1      44.741 -30.517   3.113  1.00  0.00    -0.279 N 
HETATM    8  H   UNL     1      44.723 -31.124   3.926  1.00  0.00     0.189 HD
HETATM    9  N   UNL     1      43.591 -29.930   2.721  1.00  0.00    -0.149 NA
HETATM   10  C   UNL     1      43.971 -29.208   1.674  1.00  0.00     0.190 A 
HETATM   11  C   UNL     1      47.224 -30.502   2.563  1.00  0.00     0.097 C 
ENDROOT
BRANCH   4  12
HETATM   12  C   UNL     1      45.603 -29.084  -1.024  1.00  0.00    -0.048 A 
HETATM   13  C   UNL     1      45.037 -30.357  -1.235  1.00  0.00     0.009 A 
HETATM   14  C   UNL     1      44.543 -30.728  -2.489  1.00  0.00     0.019 A 
HETATM   15  C   UNL     1      44.612 -29.829  -3.548  1.00  0.00     0.011 A 
HETATM   16 BR   UNL     1      43.950 -30.328  -5.245  1.00  0.00    -0.051 Br
HETATM   17  C   UNL     1      45.170 -28.565  -3.366  1.00  0.00     0.019 A 
HETATM   18  C   UNL     1      45.665 -28.197  -2.111  1.00  0.00     0.009 A 
ENDBRANCH   4  12
BRANCH   3  19
HETATM   19  C   UNL     1      48.295 -29.891  -0.481  1.00  0.00     0.266 C 
HETATM   20  O   UNL     1      48.163 -31.109  -0.438  1.00  0.00    -0.265 OA
BRANCH  19  21
HETATM   21  O   UNL     1      49.023 -29.215  -1.412  1.00  0.00    -0.326 OA
HETATM   22  C   UNL     1      50.116 -29.952  -1.961  1.00  0.00     0.213 C 
ENDBRANCH  19  21
ENDBRANCH   3  19
BRANCH   2  23
HETATM   23  O   UNL     1      49.493 -29.806   2.019  1.00  0.00    -0.389 OA
HETATM   24  H   UNL     1      49.541 -30.664   1.548  1.00  0.00     0.210 HD
ENDBRANCH   2  23
BRANCH  10  25
HETATM   25  O   UNL     1      43.019 -28.471   1.113  1.00  0.00    -0.343 OA
HETATM   26  H   UNL     1      42.213 -28.700   1.604  1.00  0.00     0.219 HD
ENDBRANCH  10  25
TORSDOF 5
ENDMDL
MODEL 8
REMARK VINA RESULT:      -6.2      2.124      2.578
REMARK  5 active torsions:
REMARK  status: ('A' for Active; 'I' for Inactive)
REMARK    1  A    between atoms: C_2  and  O_3 
REMARK    2  A    between atoms: C_4  and  C_5 
REMARK    3  A    between atoms: C_5  and  O_6 
REMARK    4  A    between atoms: C_9  and  C_10 
REMARK    5  A    between atoms: C_22  and  O_23 
ROOT
HETATM    1  C   UNL     1      44.723 -17.389   4.320  1.00  0.00     0.047 C 
HETATM    2  C   UNL     1      43.194 -17.241   4.186  1.00  0.00     0.073 C 
HETATM    3  C   UNL     1      42.847 -15.806   3.644  1.00  0.00     0.133 C 
HETATM    4  C   UNL     1      42.983 -14.646   4.688  1.00  0.00     0.074 C 
HETATM    5  C   UNL     1      42.944 -15.123   6.103  1.00  0.00     0.030 A 
HETATM    6  C   UNL     1      42.713 -16.431   6.469  1.00  0.00     0.042 A 
HETATM    7  N   UNL     1      42.790 -16.488   7.832  1.00  0.00    -0.279 N 
HETATM    8  H   UNL     1      42.673 -17.289   8.443  1.00  0.00     0.189 HD
HETATM    9  N   UNL     1      43.110 -15.297   8.382  1.00  0.00    -0.149 NA
HETATM   10  C   UNL     1      43.207 -14.501   7.325  1.00  0.00     0.190 A 
HETATM   11  C   UNL     1      42.508 -17.565   5.546  1.00  0.00     0.097 C 
ENDROOT
BRANCH   4  12
HETATM   12  C   UNL     1      41.946 -13.530   4.600  1.00  0.00    -0.048 A 
HETATM   13  C   UNL     1      40.717 -13.585   5.287  1.00  0.00     0.009 A 
HETATM   14  C   UNL     1      39.773 -12.563   5.160  1.00  0.00     0.019 A 
HETATM   15  C   UNL     1      40.047 -11.472   4.340  1.00  0.00     0.011 A 
HETATM   16 BR   UNL     1      38.771 -10.090   4.163  1.00  0.00    -0.051 Br
HETATM   17  C   UNL     1      41.253 -11.395   3.648  1.00  0.00     0.019 A 
HETATM   18  C   UNL     1      42.196 -12.420   3.776  1.00  0.00     0.009 A 
ENDBRANCH   4  12
BRANCH   3  19
HETATM   19  C   UNL     1      41.499 -15.825   2.950  1.00  0.00     0.266 C 
HETATM   20  O   UNL     1      40.480 -16.312   3.425  1.00  0.00    -0.265 OA
BRANCH  19  21
HETATM   21  O   UNL     1      41.598 -15.272   1.709  1.00  0.00    -0.326 OA
HETATM   22  C   UNL     1      40.363 -14.803   1.168  1.00  0.00     0.213 C 
ENDBRANCH  19  21
ENDBRANCH   3  19
BRANCH   2  23
HETATM   23  O   UNL     1      42.818 -18.248   3.230  1.00  0.00    -0.389 OA
HETATM   24  H   UNL     1      43.351 -18.105   2.421  1.00  0.00     0.210 HD
ENDBRANCH   2  23
BRANCH  10  25
HETATM   25  O   UNL     1      43.569 -13.250   7.584  1.00  0.00    -0.343 OA
HETATM   26  H   UNL     1      44.499 -13.317   7.857  1.00  0.00     0.219 HD
ENDBRANCH  10  25
TORSDOF 5
ENDMDL
MODEL 9
REMARK VINA RESULT:      -6.1      2.755      4.733
REMARK  5 active torsions:
REMARK  status: ('A' for Active; 'I' for Inactive)
REMARK    1  A    between atoms: C_2  and  O_3 
REMARK    2  A    between atoms: C_4  and  C_5 
REMARK    3  A    between atoms: C_5  and  O_6 
REMARK    4  A    between atoms: C_9  and  C_10 
REMARK    5  A    between atoms: C_22  and  O_23 
ROOT
HETATM    1  C   UNL     1      40.107 -10.043   6.137  1.00  0.00     0.047 C 
HETATM    2  C   UNL     1      40.836 -10.445   4.839  1.00  0.00     0.073 C 
HETATM    3  C   UNL     1      40.521 -11.947   4.498  1.00  0.00     0.133 C 
HETATM    4  C   UNL     1      41.268 -13.004   5.381  1.00  0.00     0.074 C 
HETATM    5  C   UNL     1      42.485 -12.454   6.049  1.00  0.00     0.030 A 
HETATM    6  C   UNL     1      42.969 -11.181   5.843  1.00  0.00     0.042 A 
HETATM    7  N   UNL     1      44.062 -11.030   6.648  1.00  0.00    -0.279 N 
HETATM    8  H   UNL     1      44.667 -10.223   6.756  1.00  0.00     0.189 HD
HETATM    9  N   UNL     1      44.295 -12.117   7.414  1.00  0.00    -0.149 NA
HETATM   10  C   UNL     1      43.331 -12.950   7.043  1.00  0.00     0.190 A 
HETATM   11  C   UNL     1      42.360 -10.153   4.975  1.00  0.00     0.097 C 
ENDROOT
BRANCH   4  12
HETATM   12  C   UNL     1      41.724 -14.277   4.673  1.00  0.00    -0.048 A 
HETATM   13  C   UNL     1      42.929 -14.345   3.945  1.00  0.00     0.009 A 
HETATM   14  C   UNL     1      43.304 -15.515   3.279  1.00  0.00     0.019 A 
HETATM   15  C   UNL     1      42.476 -16.632   3.332  1.00  0.00     0.011 A 
HETATM   16 BR   UNL     1      42.978 -18.214   2.430  1.00  0.00    -0.051 Br
HETATM   17  C   UNL     1      41.279 -16.589   4.043  1.00  0.00     0.019 A 
HETATM   18  C   UNL     1      40.905 -15.417   4.707  1.00  0.00     0.009 A 
ENDBRANCH   4  12
BRANCH   3  19
HETATM   19  C   UNL     1      40.691 -12.189   3.011  1.00  0.00     0.266 C 
HETATM   20  O   UNL     1      41.605 -11.734   2.334  1.00  0.00    -0.265 OA
BRANCH  19  21
HETATM   21  O   UNL     1      39.659 -12.937   2.532  1.00  0.00    -0.326 OA
HETATM   22  C   UNL     1      40.003 -13.796   1.445  1.00  0.00     0.213 C 
ENDBRANCH  19  21
ENDBRANCH   3  19
BRANCH   2  23
HETATM   23  O   UNL     1      40.289  -9.572   3.835  1.00  0.00    -0.389 OA
HETATM   24  H   UNL     1      40.468  -8.650   4.112  1.00  0.00     0.210 HD
ENDBRANCH   2  23
BRANCH  10  25
HETATM   25  O   UNL     1      43.296 -14.108   7.693  1.00  0.00    -0.343 OA
HETATM   26  H   UNL     1      43.999 -14.035   8.359  1.00  0.00     0.219 HD
ENDBRANCH  10  25
TORSDOF 5
ENDMDL
MODEL 10
REMARK VINA RESULT:      -6.1     15.751     17.345
REMARK  5 active torsions:
REMARK  status: ('A' for Active; 'I' for Inactive)
REMARK    1  A    between atoms: C_2  and  O_3 
REMARK    2  A    between atoms: C_4  and  C_5 
REMARK    3  A    between atoms: C_5  and  O_6 
REMARK    4  A    between atoms: C_9  and  C_10 
REMARK    5  A    between atoms: C_22  and  O_23 
ROOT
HETATM    1  C   UNL     1      50.005 -30.156   3.970  1.00  0.00     0.047 C 
HETATM    2  C   UNL     1      49.724 -30.981   2.699  1.00  0.00     0.073 C 
HETATM    3  C   UNL     1      49.432 -30.014   1.494  1.00  0.00     0.133 C 
HETATM    4  C   UNL     1      48.019 -29.338   1.506  1.00  0.00     0.074 C 
HETATM    5  C   UNL     1      47.028 -30.067   2.355  1.00  0.00     0.030 A 
HETATM    6  C   UNL     1      47.287 -31.263   2.988  1.00  0.00     0.042 A 
HETATM    7  N   UNL     1      46.167 -31.596   3.694  1.00  0.00    -0.279 N 
HETATM    8  H   UNL     1      46.000 -32.409   4.276  1.00  0.00     0.189 HD
HETATM    9  N   UNL     1      45.200 -30.658   3.603  1.00  0.00    -0.149 NA
HETATM   10  C   UNL     1      45.745 -29.749   2.804  1.00  0.00     0.190 A 
HETATM   11  C   UNL     1      48.570 -31.993   2.966  1.00  0.00     0.097 C 
ENDROOT
BRANCH   4  12
HETATM   12  C   UNL     1      47.344 -29.155   0.149  1.00  0.00    -0.048 A 
HETATM   13  C   UNL     1      47.528 -27.998  -0.635  1.00  0.00     0.009 A 
HETATM   14  C   UNL     1      46.871 -27.845  -1.858  1.00  0.00     0.019 A 
HETATM   15  C   UNL     1      46.018 -28.846  -2.311  1.00  0.00     0.011 A 
HETATM   16 BR   UNL     1      45.123 -28.639  -3.963  1.00  0.00    -0.051 Br
HETATM   17  C   UNL     1      45.816 -29.997  -1.553  1.00  0.00     0.019 A 
HETATM   18  C   UNL     1      46.475 -30.149  -0.329  1.00  0.00     0.009 A 
ENDBRANCH   4  12
BRANCH   3  19
HETATM   19  C   UNL     1      49.747 -30.708   0.183  1.00  0.00     0.266 C 
HETATM   20  O   UNL     1      49.426 -31.858  -0.088  1.00  0.00    -0.265 OA
BRANCH  19  21
HETATM   21  O   UNL     1      50.480 -29.888  -0.622  1.00  0.00    -0.326 OA
HETATM   22  C   UNL     1      50.473 -30.252  -2.002  1.00  0.00     0.213 C 
ENDBRANCH  19  21
ENDBRANCH   3  19
BRANCH   2  23
HETATM   23  O   UNL     1      50.939 -31.718   2.474  1.00  0.00    -0.389 OA
HETATM   24  H   UNL     1      51.642 -31.074   2.253  1.00  0.00     0.210 HD
ENDBRANCH   2  23
BRANCH  10  25
HETATM   25  O   UNL     1      45.007 -28.668   2.582  1.00  0.00    -0.343 OA
HETATM   26  H   UNL     1      44.730 -28.377   3.467  1.00  0.00     0.219 HD
ENDBRANCH  10  25
TORSDOF 5
ENDMDL
