MODEL 1
REMARK VINA RESULT:      -9.5      0.000      0.000
REMARK  3 active torsions:
REMARK  status: ('A' for Active; 'I' for Inactive)
REMARK    1  A    between atoms: C_7  and  C_8 
REMARK    2  A    between atoms: C_12  and  C_13 
REMARK    3  A    between atoms: C_16  and  C_17 
ROOT
HETATM    1  C   UNL     1      43.553 -20.176   1.771  1.00  0.00     0.048 C 
HETATM    2  C   UNL     1      43.579 -19.058   2.770  1.00  0.00    -0.061 A 
HETATM    3  C   UNL     1      42.902 -17.855   2.534  1.00  0.00     0.021 A 
HETATM    4  C   UNL     1      42.896 -16.790   3.479  1.00  0.00     0.008 A 
HETATM    5  C   UNL     1      43.613 -16.971   4.678  1.00  0.00     0.068 A 
HETATM    6  N   UNL     1      43.702 -16.032   5.629  1.00  0.00    -0.252 NA
HETATM    7  C   UNL     1      43.096 -14.837   5.470  1.00  0.00     0.040 A 
HETATM    8  C   UNL     1      42.362 -14.569   4.323  1.00  0.00     0.044 A 
HETATM    9  C   UNL     1      42.239 -15.539   3.315  1.00  0.00     0.034 A 
HETATM   10  C   UNL     1      44.268 -18.173   4.906  1.00  0.00     0.033 A 
HETATM   11  C   UNL     1      44.253 -19.214   3.976  1.00  0.00     0.009 A 
ENDROOT
BRANCH   9  12
HETATM   12  C   UNL     1      41.423 -15.231   2.141  1.00  0.00     0.207 A 
HETATM   13  O   UNL     1      40.405 -16.104   1.849  1.00  0.00    -0.191 OA
HETATM   14  N   UNL     1      39.763 -15.616   0.706  1.00  0.00    -0.108 NA
HETATM   15  C   UNL     1      40.439 -14.501   0.436  1.00  0.00     0.189 A 
HETATM   16  N   UNL     1      41.493 -14.235   1.275  1.00  0.00    -0.202 NA
BRANCH  15  17
HETATM   17  C   UNL     1      40.132 -13.597  -0.713  1.00  0.00     0.282 C 
HETATM   18  N   UNL     1      38.735 -12.990  -0.541  1.00  0.00    -0.060 N 
HETATM   19  H   UNL     1      38.097 -13.764  -0.304  1.00  0.00     0.278 HD
HETATM   20  H   UNL     1      38.745 -12.386   0.292  1.00  0.00     0.278 HD
HETATM   21  C   UNL     1      38.264 -12.231  -1.742  1.00  0.00     0.259 C 
HETATM   22  C   UNL     1      38.385 -13.112  -2.986  1.00  0.00     0.195 C 
HETATM   23  O   UNL     1      39.738 -13.556  -3.148  1.00  0.00    -0.387 OA
HETATM   24  C   UNL     1      40.169 -14.371  -2.047  1.00  0.00     0.208 C 
ENDBRANCH  15  17
ENDBRANCH   9  12
BRANCH   7  25
HETATM   25  C   UNL     1      43.252 -13.799   6.555  1.00  0.00     0.038 A 
HETATM   26  C   UNL     1      44.325 -12.739   6.451  1.00  0.00     0.011 A 
HETATM   27  C   UNL     1      42.885 -12.360   6.274  1.00  0.00     0.011 A 
ENDBRANCH   7  25
TORSDOF 3
ENDMDL
MODEL 2
REMARK VINA RESULT:      -9.1      1.131      4.105
REMARK  3 active torsions:
REMARK  status: ('A' for Active; 'I' for Inactive)
REMARK    1  A    between atoms: C_7  and  C_8 
REMARK    2  A    between atoms: C_12  and  C_13 
REMARK    3  A    between atoms: C_16  and  C_17 
ROOT
HETATM    1  C   UNL     1      42.952 -13.007   6.875  1.00  0.00     0.048 C 
HETATM    2  C   UNL     1      43.297 -14.293   6.187  1.00  0.00    -0.061 A 
HETATM    3  C   UNL     1      42.679 -14.666   4.987  1.00  0.00     0.021 A 
HETATM    4  C   UNL     1      43.009 -15.872   4.307  1.00  0.00     0.008 A 
HETATM    5  C   UNL     1      43.984 -16.708   4.885  1.00  0.00     0.068 A 
HETATM    6  N   UNL     1      44.357 -17.879   4.353  1.00  0.00    -0.252 NA
HETATM    7  C   UNL     1      43.794 -18.321   3.209  1.00  0.00     0.040 A 
HETATM    8  C   UNL     1      42.828 -17.563   2.563  1.00  0.00     0.044 A 
HETATM    9  C   UNL     1      42.426 -16.325   3.090  1.00  0.00     0.034 A 
HETATM   10  C   UNL     1      44.599 -16.320   6.067  1.00  0.00     0.033 A 
HETATM   11  C   UNL     1      44.275 -15.128   6.715  1.00  0.00     0.009 A 
ENDROOT
BRANCH   9  12
HETATM   12  C   UNL     1      41.434 -15.539   2.357  1.00  0.00     0.207 A 
HETATM   13  O   UNL     1      40.248 -15.285   2.999  1.00  0.00    -0.191 OA
HETATM   14  N   UNL     1      39.464 -14.525   2.125  1.00  0.00    -0.108 NA
HETATM   15  C   UNL     1      40.253 -14.384   1.061  1.00  0.00     0.189 A 
HETATM   16  N   UNL     1      41.468 -15.018   1.143  1.00  0.00    -0.202 NA
BRANCH  15  17
HETATM   17  C   UNL     1      39.866 -13.633  -0.171  1.00  0.00     0.282 C 
HETATM   18  N   UNL     1      38.713 -12.672   0.144  1.00  0.00    -0.060 N 
HETATM   19  H   UNL     1      38.007 -13.210   0.669  1.00  0.00     0.278 HD
HETATM   20  H   UNL     1      39.056 -11.962   0.805  1.00  0.00     0.278 HD
HETATM   21  C   UNL     1      38.129 -12.027  -1.073  1.00  0.00     0.259 C 
HETATM   22  C   UNL     1      37.750 -13.102  -2.093  1.00  0.00     0.195 C 
HETATM   23  O   UNL     1      38.896 -13.894  -2.424  1.00  0.00    -0.387 OA
HETATM   24  C   UNL     1      39.407 -14.599  -1.283  1.00  0.00     0.208 C 
ENDBRANCH  15  17
ENDBRANCH   9  12
BRANCH   7  25
HETATM   25  C   UNL     1      44.225 -19.661   2.664  1.00  0.00     0.038 A 
HETATM   26  C   UNL     1      43.680 -20.940   3.260  1.00  0.00     0.011 A 
HETATM   27  C   UNL     1      43.239 -20.510   1.893  1.00  0.00     0.011 A 
ENDBRANCH   7  25
TORSDOF 3
ENDMDL
MODEL 3
REMARK VINA RESULT:      -8.5      3.724      7.648
REMARK  3 active torsions:
REMARK  status: ('A' for Active; 'I' for Inactive)
REMARK    1  A    between atoms: C_7  and  C_8 
REMARK    2  A    between atoms: C_12  and  C_13 
REMARK    3  A    between atoms: C_16  and  C_17 
ROOT
HETATM    1  C   UNL     1      39.157 -12.885   2.606  1.00  0.00     0.048 C 
HETATM    2  C   UNL     1      40.076 -14.054   2.799  1.00  0.00    -0.061 A 
HETATM    3  C   UNL     1      41.119 -14.013   3.731  1.00  0.00     0.021 A 
HETATM    4  C   UNL     1      41.989 -15.120   3.946  1.00  0.00     0.008 A 
HETATM    5  C   UNL     1      41.780 -16.279   3.173  1.00  0.00     0.068 A 
HETATM    6  N   UNL     1      42.549 -17.371   3.266  1.00  0.00    -0.252 NA
HETATM    7  C   UNL     1      43.589 -17.405   4.126  1.00  0.00     0.040 A 
HETATM    8  C   UNL     1      43.868 -16.312   4.932  1.00  0.00     0.044 A 
HETATM    9  C   UNL     1      43.072 -15.158   4.867  1.00  0.00     0.034 A 
HETATM   10  C   UNL     1      40.733 -16.311   2.262  1.00  0.00     0.033 A 
HETATM   11  C   UNL     1      39.880 -15.223   2.073  1.00  0.00     0.009 A 
ENDROOT
BRANCH   9  12
HETATM   12  C   UNL     1      43.377 -14.043   5.764  1.00  0.00     0.207 A 
HETATM   13  O   UNL     1      43.193 -14.262   7.106  1.00  0.00    -0.191 OA
HETATM   14  N   UNL     1      43.546 -13.080   7.766  1.00  0.00    -0.108 NA
HETATM   15  C   UNL     1      43.919 -12.280   6.768  1.00  0.00     0.189 A 
HETATM   16  N   UNL     1      43.804 -12.819   5.510  1.00  0.00    -0.202 NA
BRANCH  15  17
HETATM   17  C   UNL     1      44.396 -10.878   6.957  1.00  0.00     0.282 C 
HETATM   18  N   UNL     1      45.843 -10.882   7.465  1.00  0.00    -0.060 N 
HETATM   19  H   UNL     1      45.886 -11.555   8.245  1.00  0.00     0.278 HD
HETATM   20  H   UNL     1      46.442 -11.281   6.731  1.00  0.00     0.278 HD
HETATM   21  C   UNL     1      46.333  -9.528   7.873  1.00  0.00     0.259 C 
HETATM   22  C   UNL     1      45.351  -8.904   8.865  1.00  0.00     0.195 C 
HETATM   23  O   UNL     1      44.043  -8.830   8.287  1.00  0.00    -0.387 OA
HETATM   24  C   UNL     1      43.519 -10.132   7.983  1.00  0.00     0.208 C 
ENDBRANCH  15  17
ENDBRANCH   9  12
BRANCH   7  25
HETATM   25  C   UNL     1      44.446 -18.647   4.172  1.00  0.00     0.038 A 
HETATM   26  C   UNL     1      44.084 -19.792   5.091  1.00  0.00     0.011 A 
HETATM   27  C   UNL     1      43.914 -19.946   3.609  1.00  0.00     0.011 A 
ENDBRANCH   7  25
TORSDOF 3
ENDMDL
MODEL 4
REMARK VINA RESULT:      -8.4      3.261      7.294
REMARK  3 active torsions:
REMARK  status: ('A' for Active; 'I' for Inactive)
REMARK    1  A    between atoms: C_7  and  C_8 
REMARK    2  A    between atoms: C_12  and  C_13 
REMARK    3  A    between atoms: C_16  and  C_17 
ROOT
HETATM    1  C   UNL     1      44.339 -18.137   4.835  1.00  0.00     0.048 C 
HETATM    2  C   UNL     1      43.510 -17.342   3.872  1.00  0.00    -0.061 A 
HETATM    3  C   UNL     1      43.363 -15.957   4.009  1.00  0.00     0.021 A 
HETATM    4  C   UNL     1      42.598 -15.180   3.093  1.00  0.00     0.008 A 
HETATM    5  C   UNL     1      41.967 -15.853   2.029  1.00  0.00     0.068 A 
HETATM    6  N   UNL     1      41.200 -15.234   1.122  1.00  0.00    -0.252 NA
HETATM    7  C   UNL     1      40.992 -13.903   1.194  1.00  0.00     0.040 A 
HETATM    8  C   UNL     1      41.577 -13.156   2.205  1.00  0.00     0.044 A 
HETATM    9  C   UNL     1      42.397 -13.774   3.164  1.00  0.00     0.034 A 
HETATM   10  C   UNL     1      42.131 -17.224   1.897  1.00  0.00     0.033 A 
HETATM   11  C   UNL     1      42.896 -17.970   2.795  1.00  0.00     0.009 A 
ENDROOT
BRANCH   9  12
HETATM   12  C   UNL     1      43.028 -12.942   4.188  1.00  0.00     0.207 A 
HETATM   13  O   UNL     1      43.753 -11.863   3.748  1.00  0.00    -0.191 OA
HETATM   14  N   UNL     1      44.255 -11.217   4.883  1.00  0.00    -0.108 NA
HETATM   15  C   UNL     1      43.774 -11.953   5.884  1.00  0.00     0.189 A 
HETATM   16  N   UNL     1      43.035 -13.048   5.506  1.00  0.00    -0.202 NA
BRANCH  15  17
HETATM   17  C   UNL     1      44.029 -11.668   7.327  1.00  0.00     0.282 C 
HETATM   18  N   UNL     1      43.081 -10.568   7.819  1.00  0.00    -0.060 N 
HETATM   19  H   UNL     1      43.116  -9.807   7.124  1.00  0.00     0.278 HD
HETATM   20  H   UNL     1      42.118 -10.927   7.774  1.00  0.00     0.278 HD
HETATM   21  C   UNL     1      43.401 -10.078   9.196  1.00  0.00     0.259 C 
HETATM   22  C   UNL     1      44.875  -9.674   9.267  1.00  0.00     0.195 C 
HETATM   23  O   UNL     1      45.709 -10.780   8.901  1.00  0.00    -0.387 OA
HETATM   24  C   UNL     1      45.482 -11.196   7.546  1.00  0.00     0.208 C 
ENDBRANCH  15  17
ENDBRANCH   9  12
BRANCH   7  25
HETATM   25  C   UNL     1      40.094 -13.257   0.167  1.00  0.00     0.038 A 
HETATM   26  C   UNL     1      40.669 -12.738  -1.132  1.00  0.00     0.011 A 
HETATM   27  C   UNL     1      39.812 -13.969  -1.137  1.00  0.00     0.011 A 
ENDBRANCH   7  25
TORSDOF 3
ENDMDL
MODEL 5
REMARK VINA RESULT:      -7.9      1.218      4.246
REMARK  3 active torsions:
REMARK  status: ('A' for Active; 'I' for Inactive)
REMARK    1  A    between atoms: C_7  and  C_8 
REMARK    2  A    between atoms: C_12  and  C_13 
REMARK    3  A    between atoms: C_16  and  C_17 
ROOT
HETATM    1  C   UNL     1      42.355 -10.433   5.983  1.00  0.00     0.048 C 
HETATM    2  C   UNL     1      42.600 -11.890   5.725  1.00  0.00    -0.061 A 
HETATM    3  C   UNL     1      42.013 -12.544   4.635  1.00  0.00     0.021 A 
HETATM    4  C   UNL     1      42.251 -13.921   4.360  1.00  0.00     0.008 A 
HETATM    5  C   UNL     1      43.097 -14.630   5.235  1.00  0.00     0.068 A 
HETATM    6  N   UNL     1      43.373 -15.933   5.094  1.00  0.00    -0.252 NA
HETATM    7  C   UNL     1      42.831 -16.642   4.082  1.00  0.00     0.040 A 
HETATM    8  C   UNL     1      41.989 -16.028   3.167  1.00  0.00     0.044 A 
HETATM    9  C   UNL     1      41.692 -14.660   3.280  1.00  0.00     0.034 A 
HETATM   10  C   UNL     1      43.683 -13.965   6.303  1.00  0.00     0.033 A 
HETATM   11  C   UNL     1      43.452 -12.612   6.551  1.00  0.00     0.009 A 
ENDROOT
BRANCH   9  12
HETATM   12  C   UNL     1      40.832 -14.043   2.270  1.00  0.00     0.207 A 
HETATM   13  O   UNL     1      39.805 -13.258   2.730  1.00  0.00    -0.191 OA
HETATM   14  N   UNL     1      39.126 -12.774   1.606  1.00  0.00    -0.108 NA
HETATM   15  C   UNL     1      39.815 -13.296   0.592  1.00  0.00     0.189 A 
HETATM   16  N   UNL     1      40.860 -14.112   0.951  1.00  0.00    -0.202 NA
BRANCH  15  17
HETATM   17  C   UNL     1      39.483 -13.069  -0.846  1.00  0.00     0.282 C 
HETATM   18  N   UNL     1      37.966 -13.156  -1.053  1.00  0.00    -0.060 N 
HETATM   19  H   UNL     1      37.646 -14.011  -0.574  1.00  0.00     0.278 HD
HETATM   20  H   UNL     1      37.525 -12.380  -0.541  1.00  0.00     0.278 HD
HETATM   21  C   UNL     1      37.561 -13.141  -2.493  1.00  0.00     0.259 C 
HETATM   22  C   UNL     1      38.332 -14.220  -3.255  1.00  0.00     0.195 C 
HETATM   23  O   UNL     1      39.742 -14.016  -3.109  1.00  0.00    -0.387 OA
HETATM   24  C   UNL     1      40.161 -14.128  -1.741  1.00  0.00     0.208 C 
ENDBRANCH  15  17
ENDBRANCH   9  12
BRANCH   7  25
HETATM   25  C   UNL     1      43.147 -18.115   3.984  1.00  0.00     0.038 A 
HETATM   26  C   UNL     1      44.116 -18.622   2.939  1.00  0.00     0.011 A 
HETATM   27  C   UNL     1      44.516 -18.617   4.385  1.00  0.00     0.011 A 
ENDBRANCH   7  25
TORSDOF 3
ENDMDL
MODEL 6
REMARK VINA RESULT:      -7.8     14.463     16.342
REMARK  3 active torsions:
REMARK  status: ('A' for Active; 'I' for Inactive)
REMARK    1  A    between atoms: C_7  and  C_8 
REMARK    2  A    between atoms: C_12  and  C_13 
REMARK    3  A    between atoms: C_16  and  C_17 
ROOT
HETATM    1  C   UNL     1      47.945 -28.335   2.659  1.00  0.00     0.048 C 
HETATM    2  C   UNL     1      47.420 -28.443   1.259  1.00  0.00    -0.061 A 
HETATM    3  C   UNL     1      46.126 -28.911   1.000  1.00  0.00     0.021 A 
HETATM    4  C   UNL     1      45.602 -29.000  -0.321  1.00  0.00     0.008 A 
HETATM    5  C   UNL     1      46.436 -28.610  -1.387  1.00  0.00     0.068 A 
HETATM    6  N   UNL     1      46.063 -28.675  -2.671  1.00  0.00    -0.252 NA
HETATM    7  C   UNL     1      44.840 -29.135  -3.007  1.00  0.00     0.040 A 
HETATM    8  C   UNL     1      43.947 -29.537  -2.025  1.00  0.00     0.044 A 
HETATM    9  C   UNL     1      44.304 -29.468  -0.668  1.00  0.00     0.034 A 
HETATM   10  C   UNL     1      47.711 -28.135  -1.116  1.00  0.00     0.033 A 
HETATM   11  C   UNL     1      48.206 -28.040   0.185  1.00  0.00     0.009 A 
ENDROOT
BRANCH   9  12
HETATM   12  C   UNL     1      43.318 -29.863   0.337  1.00  0.00     0.207 A 
HETATM   13  O   UNL     1      42.400 -28.913   0.709  1.00  0.00    -0.191 OA
HETATM   14  N   UNL     1      41.564 -29.503   1.664  1.00  0.00    -0.108 NA
HETATM   15  C   UNL     1      42.046 -30.742   1.759  1.00  0.00     0.189 A 
HETATM   16  N   UNL     1      43.148 -31.004   0.982  1.00  0.00    -0.202 NA
BRANCH  15  17
HETATM   17  C   UNL     1      41.484 -31.788   2.663  1.00  0.00     0.282 C 
HETATM   18  N   UNL     1      39.957 -31.830   2.528  1.00  0.00    -0.060 N 
HETATM   19  H   UNL     1      39.623 -30.857   2.588  1.00  0.00     0.278 HD
HETATM   20  H   UNL     1      39.726 -32.136   1.574  1.00  0.00     0.278 HD
HETATM   21  C   UNL     1      39.295 -32.708   3.542  1.00  0.00     0.259 C 
HETATM   22  C   UNL     1      39.761 -32.316   4.945  1.00  0.00     0.195 C 
HETATM   23  O   UNL     1      41.188 -32.403   5.034  1.00  0.00    -0.387 OA
HETATM   24  C   UNL     1      41.837 -31.491   4.135  1.00  0.00     0.208 C 
ENDBRANCH  15  17
ENDBRANCH   9  12
BRANCH   7  25
HETATM   25  C   UNL     1      44.478 -29.219  -4.470  1.00  0.00     0.038 A 
HETATM   26  C   UNL     1      45.026 -30.334  -5.332  1.00  0.00     0.011 A 
HETATM   27  C   UNL     1      43.574 -30.330  -4.957  1.00  0.00     0.011 A 
ENDBRANCH   7  25
TORSDOF 3
ENDMDL
MODEL 7
REMARK VINA RESULT:      -7.6     14.764     18.973
REMARK  3 active torsions:
REMARK  status: ('A' for Active; 'I' for Inactive)
REMARK    1  A    between atoms: C_7  and  C_8 
REMARK    2  A    between atoms: C_12  and  C_13 
REMARK    3  A    between atoms: C_16  and  C_17 
ROOT
HETATM    1  C   UNL     1      51.067 -30.749   4.602  1.00  0.00     0.048 C 
HETATM    2  C   UNL     1      50.121 -30.199   3.578  1.00  0.00    -0.061 A 
HETATM    3  C   UNL     1      50.367 -30.342   2.208  1.00  0.00     0.021 A 
HETATM    4  C   UNL     1      49.470 -29.846   1.220  1.00  0.00     0.008 A 
HETATM    5  C   UNL     1      48.308 -29.182   1.660  1.00  0.00     0.068 A 
HETATM    6  N   UNL     1      47.406 -28.650   0.826  1.00  0.00    -0.252 NA
HETATM    7  C   UNL     1      47.580 -28.727  -0.510  1.00  0.00     0.040 A 
HETATM    8  C   UNL     1      48.691 -29.367  -1.037  1.00  0.00     0.044 A 
HETATM    9  C   UNL     1      49.648 -29.946  -0.188  1.00  0.00     0.034 A 
HETATM   10  C   UNL     1      48.069 -29.059   3.022  1.00  0.00     0.033 A 
HETATM   11  C   UNL     1      48.951 -29.563   3.978  1.00  0.00     0.009 A 
ENDROOT
BRANCH   9  12
HETATM   12  C   UNL     1      50.784 -30.647  -0.787  1.00  0.00     0.207 A 
HETATM   13  O   UNL     1      51.265 -30.147  -1.971  1.00  0.00    -0.191 OA
HETATM   14  N   UNL     1      52.338 -30.959  -2.352  1.00  0.00    -0.108 NA
HETATM   15  C   UNL     1      52.408 -31.848  -1.362  1.00  0.00     0.189 A 
HETATM   16  N   UNL     1      51.450 -31.716  -0.386  1.00  0.00    -0.202 NA
BRANCH  15  17
HETATM   17  C   UNL     1      53.414 -32.950  -1.299  1.00  0.00     0.282 C 
HETATM   18  N   UNL     1      54.625 -32.602  -2.173  1.00  0.00    -0.060 N 
HETATM   19  H   UNL     1      54.259 -32.283  -3.082  1.00  0.00     0.278 HD
HETATM   20  H   UNL     1      55.090 -31.779  -1.767  1.00  0.00     0.278 HD
HETATM   21  C   UNL     1      55.590 -33.734  -2.329  1.00  0.00     0.259 C 
HETATM   22  C   UNL     1      54.845 -34.982  -2.808  1.00  0.00     0.195 C 
HETATM   23  O   UNL     1      53.797 -35.314  -1.890  1.00  0.00    -0.387 OA
HETATM   24  C   UNL     1      52.810 -34.276  -1.806  1.00  0.00     0.208 C 
ENDBRANCH  15  17
ENDBRANCH   9  12
BRANCH   7  25
HETATM   25  C   UNL     1      46.551 -28.084  -1.409  1.00  0.00     0.038 A 
HETATM   26  C   UNL     1      45.516 -28.931  -2.114  1.00  0.00     0.011 A 
HETATM   27  C   UNL     1      45.102 -28.042  -0.979  1.00  0.00     0.011 A 
ENDBRANCH   7  25
TORSDOF 3
ENDMDL
MODEL 8
REMARK VINA RESULT:      -7.6      3.632      7.106
REMARK  3 active torsions:
REMARK  status: ('A' for Active; 'I' for Inactive)
REMARK    1  A    between atoms: C_7  and  C_8 
REMARK    2  A    between atoms: C_12  and  C_13 
REMARK    3  A    between atoms: C_16  and  C_17 
ROOT
HETATM    1  C   UNL     1      38.623 -10.342   4.159  1.00  0.00     0.048 C 
HETATM    2  C   UNL     1      39.865 -10.249   4.993  1.00  0.00    -0.061 A 
HETATM    3  C   UNL     1      40.840 -11.252   4.961  1.00  0.00     0.021 A 
HETATM    4  C   UNL     1      42.037 -11.171   5.729  1.00  0.00     0.008 A 
HETATM    5  C   UNL     1      42.216 -10.041   6.551  1.00  0.00     0.068 A 
HETATM    6  N   UNL     1      43.285  -9.869   7.338  1.00  0.00    -0.252 NA
HETATM    7  C   UNL     1      44.262 -10.799   7.380  1.00  0.00     0.040 A 
HETATM    8  C   UNL     1      44.176 -11.943   6.601  1.00  0.00     0.044 A 
HETATM    9  C   UNL     1      43.073 -12.146   5.756  1.00  0.00     0.034 A 
HETATM   10  C   UNL     1      41.247  -9.048   6.563  1.00  0.00     0.033 A 
HETATM   11  C   UNL     1      40.086  -9.134   5.794  1.00  0.00     0.009 A 
ENDROOT
BRANCH   9  12
HETATM   12  C   UNL     1      43.041 -13.347   4.921  1.00  0.00     0.207 A 
HETATM   13  O   UNL     1      43.194 -13.164   3.570  1.00  0.00    -0.191 OA
HETATM   14  N   UNL     1      43.137 -14.429   2.976  1.00  0.00    -0.108 NA
HETATM   15  C   UNL     1      42.974 -15.242   4.019  1.00  0.00     0.189 A 
HETATM   16  N   UNL     1      42.878 -14.619   5.240  1.00  0.00    -0.202 NA
BRANCH  15  17
HETATM   17  C   UNL     1      42.857 -16.727   3.910  1.00  0.00     0.282 C 
HETATM   18  N   UNL     1      44.036 -17.397   4.626  1.00  0.00    -0.060 N 
HETATM   19  H   UNL     1      44.893 -16.918   4.310  1.00  0.00     0.278 HD
HETATM   20  H   UNL     1      43.966 -17.188   5.630  1.00  0.00     0.278 HD
HETATM   21  C   UNL     1      44.109 -18.874   4.396  1.00  0.00     0.259 C 
HETATM   22  C   UNL     1      44.079 -19.162   2.894  1.00  0.00     0.195 C 
HETATM   23  O   UNL     1      42.898 -18.602   2.307  1.00  0.00    -0.387 OA
HETATM   24  C   UNL     1      42.865 -17.172   2.433  1.00  0.00     0.208 C 
ENDBRANCH  15  17
ENDBRANCH   9  12
BRANCH   7  25
HETATM   25  C   UNL     1      45.433 -10.573   8.307  1.00  0.00     0.038 A 
HETATM   26  C   UNL     1      46.447  -9.492   8.008  1.00  0.00     0.011 A 
HETATM   27  C   UNL     1      45.491  -9.320   9.150  1.00  0.00     0.011 A 
ENDBRANCH   7  25
TORSDOF 3
ENDMDL
MODEL 9
REMARK VINA RESULT:      -7.6      1.385      4.280
REMARK  3 active torsions:
REMARK  status: ('A' for Active; 'I' for Inactive)
REMARK    1  A    between atoms: C_7  and  C_8 
REMARK    2  A    between atoms: C_12  and  C_13 
REMARK    3  A    between atoms: C_16  and  C_17 
ROOT
HETATM    1  C   UNL     1      41.017  -9.724   4.569  1.00  0.00     0.048 C 
HETATM    2  C   UNL     1      41.680 -11.024   4.912  1.00  0.00    -0.061 A 
HETATM    3  C   UNL     1      41.504 -12.163   4.118  1.00  0.00     0.021 A 
HETATM    4  C   UNL     1      42.142 -13.401   4.414  1.00  0.00     0.008 A 
HETATM    5  C   UNL     1      42.963 -13.461   5.557  1.00  0.00     0.068 A 
HETATM    6  N   UNL     1      43.593 -14.575   5.951  1.00  0.00    -0.252 NA
HETATM    7  C   UNL     1      43.458 -15.721   5.252  1.00  0.00     0.040 A 
HETATM    8  C   UNL     1      42.674 -15.758   4.109  1.00  0.00     0.044 A 
HETATM    9  C   UNL     1      42.012 -14.602   3.663  1.00  0.00     0.034 A 
HETATM   10  C   UNL     1      43.141 -12.321   6.328  1.00  0.00     0.033 A 
HETATM   11  C   UNL     1      42.520 -11.110   6.017  1.00  0.00     0.009 A 
ENDROOT
BRANCH   9  12
HETATM   12  C   UNL     1      41.228 -14.675   2.430  1.00  0.00     0.207 A 
HETATM   13  O   UNL     1      40.481 -15.809   2.239  1.00  0.00    -0.191 OA
HETATM   14  N   UNL     1      39.818 -15.662   1.015  1.00  0.00    -0.108 NA
HETATM   15  C   UNL     1      40.216 -14.459   0.603  1.00  0.00     0.189 A 
HETATM   16  N   UNL     1      41.111 -13.822   1.427  1.00  0.00    -0.202 NA
BRANCH  15  17
HETATM   17  C   UNL     1      39.776 -13.829  -0.677  1.00  0.00     0.282 C 
HETATM   18  N   UNL     1      38.651 -12.823  -0.405  1.00  0.00    -0.060 N 
HETATM   19  H   UNL     1      37.966 -13.294   0.205  1.00  0.00     0.278 HD
HETATM   20  H   UNL     1      39.034 -12.056   0.164  1.00  0.00     0.278 HD
HETATM   21  C   UNL     1      38.013 -12.293  -1.650  1.00  0.00     0.259 C 
HETATM   22  C   UNL     1      37.572 -13.458  -2.537  1.00  0.00     0.195 C 
HETATM   23  O   UNL     1      38.692 -14.297  -2.843  1.00  0.00    -0.387 OA
HETATM   24  C   UNL     1      39.252 -14.893  -1.663  1.00  0.00     0.208 C 
ENDBRANCH  15  17
ENDBRANCH   9  12
BRANCH   7  25
HETATM   25  C   UNL     1      44.162 -16.959   5.754  1.00  0.00     0.038 A 
HETATM   26  C   UNL     1      43.438 -17.943   6.644  1.00  0.00     0.011 A 
HETATM   27  C   UNL     1      43.757 -18.317   5.228  1.00  0.00     0.011 A 
ENDBRANCH   7  25
TORSDOF 3
ENDMDL
MODEL 10
REMARK VINA RESULT:      -7.5      2.578      7.863
REMARK  3 active torsions:
REMARK  status: ('A' for Active; 'I' for Inactive)
REMARK    1  A    between atoms: C_7  and  C_8 
REMARK    2  A    between atoms: C_12  and  C_13 
REMARK    3  A    between atoms: C_16  and  C_17 
ROOT
HETATM    1  C   UNL     1      39.560 -11.399   5.314  1.00  0.00     0.048 C 
HETATM    2  C   UNL     1      39.491 -11.762   3.861  1.00  0.00    -0.061 A 
HETATM    3  C   UNL     1      40.095 -12.926   3.371  1.00  0.00     0.021 A 
HETATM    4  C   UNL     1      40.021 -13.299   1.999  1.00  0.00     0.008 A 
HETATM    5  C   UNL     1      39.324 -12.446   1.122  1.00  0.00     0.068 A 
HETATM    6  N   UNL     1      39.211 -12.678  -0.192  1.00  0.00    -0.252 NA
HETATM    7  C   UNL     1      39.781 -13.767  -0.747  1.00  0.00     0.040 A 
HETATM    8  C   UNL     1      40.484 -14.668   0.039  1.00  0.00     0.044 A 
HETATM    9  C   UNL     1      40.609 -14.460   1.422  1.00  0.00     0.034 A 
HETATM   10  C   UNL     1      38.718 -11.302   1.623  1.00  0.00     0.033 A 
HETATM   11  C   UNL     1      38.787 -10.957   2.973  1.00  0.00     0.009 A 
ENDROOT
BRANCH   9  12
HETATM   12  C   UNL     1      41.323 -15.456   2.220  1.00  0.00     0.207 A 
HETATM   13  O   UNL     1      41.010 -15.518   3.555  1.00  0.00    -0.191 OA
HETATM   14  N   UNL     1      41.799 -16.530   4.113  1.00  0.00    -0.108 NA
HETATM   15  C   UNL     1      42.490 -16.982   3.068  1.00  0.00     0.189 A 
HETATM   16  N   UNL     1      42.254 -16.331   1.882  1.00  0.00    -0.202 NA
BRANCH  15  17
HETATM   17  C   UNL     1      43.489 -18.089   3.144  1.00  0.00     0.282 C 
HETATM   18  N   UNL     1      42.995 -19.295   2.336  1.00  0.00    -0.060 N 
HETATM   19  H   UNL     1      42.015 -19.460   2.609  1.00  0.00     0.278 HD
HETATM   20  H   UNL     1      42.956 -19.026   1.344  1.00  0.00     0.278 HD
HETATM   21  C   UNL     1      43.836 -20.519   2.521  1.00  0.00     0.259 C 
HETATM   22  C   UNL     1      43.986 -20.819   4.013  1.00  0.00     0.195 C 
HETATM   23  O   UNL     1      44.553 -19.691   4.689  1.00  0.00    -0.387 OA
HETATM   24  C   UNL     1      43.706 -18.535   4.605  1.00  0.00     0.208 C 
ENDBRANCH  15  17
ENDBRANCH   9  12
BRANCH   7  25
HETATM   25  C   UNL     1      39.653 -13.968  -2.238  1.00  0.00     0.038 A 
HETATM   26  C   UNL     1      38.387 -14.550  -2.825  1.00  0.00     0.011 A 
HETATM   27  C   UNL     1      38.704 -13.100  -3.032  1.00  0.00     0.011 A 
ENDBRANCH   7  25
TORSDOF 3
ENDMDL
