MODEL 1
REMARK VINA RESULT:      -9.3      0.000      0.000
REMARK  7 active torsions:
REMARK  status: ('A' for Active; 'I' for Inactive)
REMARK    1  A    between atoms: O_2  and  C_3 
REMARK    2  A    between atoms: C_5  and  C_6 
REMARK    3  A    between atoms: C_10  and  C_11 
REMARK    4  A    between atoms: C_10  and  C_15 
REMARK    5  A    between atoms: N_19  and  C_20 
REMARK    6  A    between atoms: C_20  and  C_21 
REMARK    7  A    between atoms: C_21  and  C_22 
ROOT
HETATM    1  C   UNL     1      42.550 -16.134   4.267  1.00  0.00     0.114 C 
HETATM    2  N   UNL     1      42.698 -15.059   5.015  1.00  0.00    -0.327 N 
HETATM    3  C   UNL     1      42.189 -13.825   4.670  1.00  0.00     0.128 A 
HETATM    4  C   UNL     1      41.571 -13.685   3.488  1.00  0.00     0.100 A 
HETATM    5  C   UNL     1      41.462 -14.776   2.452  1.00  0.00     0.264 C 
HETATM    6  N   UNL     1      42.324 -12.759   5.543  1.00  0.00    -0.284 N 
HETATM    7  C   UNL     1      41.783 -11.506   5.261  1.00  0.00     0.331 A 
HETATM    8  O   UNL     1      41.849 -10.543   6.016  1.00  0.00    -0.246 OA
HETATM    9  N   UNL     1      41.146 -11.391   4.065  1.00  0.00    -0.275 N 
HETATM   10  C   UNL     1      40.991 -12.380   3.156  1.00  0.00     0.262 A 
HETATM   11  O   UNL     1      40.393 -12.227   2.106  1.00  0.00    -0.267 OA
HETATM   12  N   UNL     1      41.944 -16.072   3.103  1.00  0.00    -0.347 N 
HETATM   13  H   UNL     1      41.809 -16.943   2.581  1.00  0.00     0.162 HD
HETATM   14  H   UNL     1      43.196 -15.188   5.887  1.00  0.00     0.169 HD
HETATM   15  H   UNL     1      40.744 -10.484   3.855  1.00  0.00     0.173 HD
ENDROOT
BRANCH   1  16
HETATM   16  C   UNL     1      43.053 -17.438   4.733  1.00  0.00     0.010 A 
HETATM   17  C   UNL     1      43.464 -18.406   3.802  1.00  0.00     0.052 A 
HETATM   18  C   UNL     1      43.898 -19.672   4.206  1.00  0.00     0.069 A 
HETATM   19  C   UNL     1      43.956 -19.970   5.565  1.00  0.00     0.037 A 
HETATM   20  C   UNL     1      43.568 -19.013   6.506  1.00  0.00     0.004 A 
HETATM   21  C   UNL     1      43.112 -17.757   6.096  1.00  0.00     0.015 A 
BRANCH  18  22
HETATM   22  O   UNL     1      44.231 -20.506   3.179  1.00  0.00    -0.356 OA
HETATM   23  C   UNL     1      43.581 -20.287   1.930  1.00  0.00     0.210 C 
ENDBRANCH  18  22
ENDBRANCH   1  16
BRANCH   5  24
HETATM   24  C   UNL     1      42.365 -14.521   1.241  1.00  0.00     0.426 C 
HETATM   25  F   UNL     1      43.524 -13.951   1.674  1.00  0.00    -0.168 F 
HETATM   26  F   UNL     1      42.715 -15.691   0.658  1.00  0.00    -0.168 F 
HETATM   27  F   UNL     1      41.855 -13.715   0.304  1.00  0.00    -0.168 F 
ENDBRANCH   5  24
BRANCH   5  28
HETATM   28  C   UNL     1      40.063 -15.056   1.888  1.00  0.00     0.426 C 
HETATM   29  F   UNL     1      39.128 -14.840   2.846  1.00  0.00    -0.168 F 
HETATM   30  F   UNL     1      39.720 -14.376   0.790  1.00  0.00    -0.168 F 
HETATM   31  F   UNL     1      39.980 -16.380   1.578  1.00  0.00    -0.168 F 
ENDBRANCH   5  28
BRANCH   6  32
HETATM   32  C   UNL     1      43.019 -12.856   6.835  1.00  0.00     0.140 C 
BRANCH  32  33
HETATM   33  C   UNL     1      44.516 -12.537   6.716  1.00  0.00     0.059 C 
BRANCH  33  34
HETATM   34  C   UNL     1      44.923 -11.329   7.523  1.00  0.00    -0.057 A 
HETATM   35  C   UNL     1      44.184 -10.931   8.648  1.00  0.00     0.007 A 
HETATM   36  C   UNL     1      44.573  -9.820   9.398  1.00  0.00     0.001 A 
HETATM   37  C   UNL     1      45.713  -9.104   9.043  1.00  0.00     0.000 A 
HETATM   38  C   UNL     1      46.470  -9.503   7.943  1.00  0.00     0.001 A 
HETATM   39  C   UNL     1      46.080 -10.611   7.189  1.00  0.00     0.007 A 
ENDBRANCH  33  34
ENDBRANCH  32  33
ENDBRANCH   6  32
TORSDOF 7
ENDMDL
MODEL 2
REMARK VINA RESULT:      -9.3      3.400      7.179
REMARK  7 active torsions:
REMARK  status: ('A' for Active; 'I' for Inactive)
REMARK    1  A    between atoms: O_2  and  C_3 
REMARK    2  A    between atoms: C_5  and  C_6 
REMARK    3  A    between atoms: C_10  and  C_11 
REMARK    4  A    between atoms: C_10  and  C_15 
REMARK    5  A    between atoms: N_19  and  C_20 
REMARK    6  A    between atoms: C_20  and  C_21 
REMARK    7  A    between atoms: C_21  and  C_22 
ROOT
HETATM    1  C   UNL     1      40.658 -13.215   1.517  1.00  0.00     0.114 C 
HETATM    2  N   UNL     1      41.034 -14.165   2.351  1.00  0.00    -0.327 N 
HETATM    3  C   UNL     1      41.259 -13.944   3.693  1.00  0.00     0.128 A 
HETATM    4  C   UNL     1      41.162 -12.695   4.171  1.00  0.00     0.100 A 
HETATM    5  C   UNL     1      40.900 -11.478   3.320  1.00  0.00     0.264 C 
HETATM    6  N   UNL     1      41.582 -15.008   4.519  1.00  0.00    -0.284 N 
HETATM    7  C   UNL     1      41.771 -14.843   5.889  1.00  0.00     0.331 A 
HETATM    8  O   UNL     1      42.025 -15.758   6.664  1.00  0.00    -0.246 OA
HETATM    9  N   UNL     1      41.649 -13.570   6.355  1.00  0.00    -0.275 N 
HETATM   10  C   UNL     1      41.356 -12.483   5.609  1.00  0.00     0.262 A 
HETATM   11  O   UNL     1      41.240 -11.366   6.081  1.00  0.00    -0.267 OA
HETATM   12  N   UNL     1      40.531 -11.971   1.921  1.00  0.00    -0.347 N 
HETATM   13  H   UNL     1      40.188 -11.278   1.249  1.00  0.00     0.162 HD
HETATM   14  H   UNL     1      41.130 -15.092   1.956  1.00  0.00     0.169 HD
HETATM   15  H   UNL     1      41.779 -13.444   7.353  1.00  0.00     0.173 HD
ENDROOT
BRANCH   1  16
HETATM   16  C   UNL     1      40.359 -13.536   0.112  1.00  0.00     0.010 A 
HETATM   17  C   UNL     1      40.731 -12.644  -0.908  1.00  0.00     0.052 A 
HETATM   18  C   UNL     1      40.417 -12.892  -2.247  1.00  0.00     0.069 A 
HETATM   19  C   UNL     1      39.751 -14.067  -2.584  1.00  0.00     0.037 A 
HETATM   20  C   UNL     1      39.389 -14.974  -1.585  1.00  0.00     0.004 A 
HETATM   21  C   UNL     1      39.683 -14.710  -0.245  1.00  0.00     0.015 A 
BRANCH  18  22
HETATM   22  O   UNL     1      40.820 -11.914  -3.108  1.00  0.00    -0.356 OA
HETATM   23  C   UNL     1      40.891 -10.587  -2.594  1.00  0.00     0.210 C 
ENDBRANCH  18  22
ENDBRANCH   1  16
BRANCH   5  24
HETATM   24  C   UNL     1      42.143 -10.595   3.168  1.00  0.00     0.426 C 
HETATM   25  F   UNL     1      43.246 -11.393   3.167  1.00  0.00    -0.168 F 
HETATM   26  F   UNL     1      42.132  -9.965   1.970  1.00  0.00    -0.168 F 
HETATM   27  F   UNL     1      42.318  -9.680   4.127  1.00  0.00    -0.168 F 
ENDBRANCH   5  24
BRANCH   5  28
HETATM   28  C   UNL     1      39.769 -10.546   3.775  1.00  0.00     0.426 C 
HETATM   29  F   UNL     1      38.772 -11.273   4.337  1.00  0.00    -0.168 F 
HETATM   30  F   UNL     1      40.113  -9.564   4.614  1.00  0.00    -0.168 F 
HETATM   31  F   UNL     1      39.226  -9.957   2.673  1.00  0.00    -0.168 F 
ENDBRANCH   5  28
BRANCH   6  32
HETATM   32  C   UNL     1      41.730 -16.388   4.036  1.00  0.00     0.140 C 
BRANCH  32  33
HETATM   33  C   UNL     1      43.164 -16.695   3.580  1.00  0.00     0.059 C 
BRANCH  33  34
HETATM   34  C   UNL     1      43.444 -18.175   3.489  1.00  0.00    -0.057 A 
HETATM   35  C   UNL     1      43.951 -18.882   4.589  1.00  0.00     0.007 A 
HETATM   36  C   UNL     1      44.196 -20.254   4.502  1.00  0.00     0.001 A 
HETATM   37  C   UNL     1      43.923 -20.937   3.320  1.00  0.00     0.000 A 
HETATM   38  C   UNL     1      43.396 -20.251   2.227  1.00  0.00     0.001 A 
HETATM   39  C   UNL     1      43.155 -18.879   2.311  1.00  0.00     0.007 A 
ENDBRANCH  33  34
ENDBRANCH  32  33
ENDBRANCH   6  32
TORSDOF 7
ENDMDL
MODEL 3
REMARK VINA RESULT:      -9.2      3.165      6.918
REMARK  7 active torsions:
REMARK  status: ('A' for Active; 'I' for Inactive)
REMARK    1  A    between atoms: O_2  and  C_3 
REMARK    2  A    between atoms: C_5  and  C_6 
REMARK    3  A    between atoms: C_10  and  C_11 
REMARK    4  A    between atoms: C_10  and  C_15 
REMARK    5  A    between atoms: N_19  and  C_20 
REMARK    6  A    between atoms: C_20  and  C_21 
REMARK    7  A    between atoms: C_21  and  C_22 
ROOT
HETATM    1  C   UNL     1      42.759 -14.632   3.412  1.00  0.00     0.114 C 
HETATM    2  N   UNL     1      42.250 -13.973   2.389  1.00  0.00    -0.327 N 
HETATM    3  C   UNL     1      42.011 -12.616   2.410  1.00  0.00     0.128 A 
HETATM    4  C   UNL     1      42.239 -11.934   3.542  1.00  0.00     0.100 A 
HETATM    5  C   UNL     1      42.667 -12.566   4.843  1.00  0.00     0.264 C 
HETATM    6  N   UNL     1      41.542 -11.984   1.270  1.00  0.00    -0.284 N 
HETATM    7  C   UNL     1      41.332 -10.607   1.228  1.00  0.00     0.331 A 
HETATM    8  O   UNL     1      40.949 -10.000   0.235  1.00  0.00    -0.246 OA
HETATM    9  N   UNL     1      41.586  -9.933   2.382  1.00  0.00    -0.275 N 
HETATM   10  C   UNL     1      42.027 -10.483   3.535  1.00  0.00     0.262 A 
HETATM   11  O   UNL     1      42.259  -9.828   4.536  1.00  0.00    -0.267 OA
HETATM   12  N   UNL     1      43.018 -14.024   4.547  1.00  0.00    -0.347 N 
HETATM   13  H   UNL     1      43.460 -14.566   5.296  1.00  0.00     0.162 HD
HETATM   14  H   UNL     1      42.058 -14.520   1.558  1.00  0.00     0.169 HD
HETATM   15  H   UNL     1      41.442  -8.930   2.357  1.00  0.00     0.173 HD
ENDROOT
BRANCH   1  16
HETATM   16  C   UNL     1      43.061 -16.068   3.294  1.00  0.00     0.010 A 
HETATM   17  C   UNL     1      43.379 -16.816   4.440  1.00  0.00     0.052 A 
HETATM   18  C   UNL     1      43.720 -18.169   4.359  1.00  0.00     0.069 A 
HETATM   19  C   UNL     1      43.714 -18.799   3.119  1.00  0.00     0.037 A 
HETATM   20  C   UNL     1      43.384 -18.076   1.970  1.00  0.00     0.004 A 
HETATM   21  C   UNL     1      43.066 -16.718   2.053  1.00  0.00     0.015 A 
BRANCH  18  22
HETATM   22  O   UNL     1      44.032 -18.741   5.558  1.00  0.00    -0.356 OA
HETATM   23  C   UNL     1      43.996 -20.164   5.625  1.00  0.00     0.210 C 
ENDBRANCH  18  22
ENDBRANCH   1  16
BRANCH   5  24
HETATM   24  C   UNL     1      41.541 -12.580   5.881  1.00  0.00     0.426 C 
HETATM   25  F   UNL     1      40.354 -12.748   5.235  1.00  0.00    -0.168 F 
HETATM   26  F   UNL     1      41.674 -13.643   6.709  1.00  0.00    -0.168 F 
HETATM   27  F   UNL     1      41.431 -11.474   6.625  1.00  0.00    -0.168 F 
ENDBRANCH   5  24
BRANCH   5  28
HETATM   28  C   UNL     1      43.884 -11.949   5.544  1.00  0.00     0.426 C 
HETATM   29  F   UNL     1      44.776 -11.513   4.620  1.00  0.00    -0.168 F 
HETATM   30  F   UNL     1      43.633 -10.956   6.402  1.00  0.00    -0.168 F 
HETATM   31  F   UNL     1      44.522 -12.929   6.244  1.00  0.00    -0.168 F 
ENDBRANCH   5  28
BRANCH   6  32
HETATM   32  C   UNL     1      41.248 -12.693   0.017  1.00  0.00     0.140 C 
BRANCH  32  33
HETATM   33  C   UNL     1      40.074 -13.673   0.163  1.00  0.00     0.059 C 
BRANCH  33  34
HETATM   34  C   UNL     1      39.187 -13.707  -1.056  1.00  0.00    -0.057 A 
HETATM   35  C   UNL     1      39.200 -14.806  -1.928  1.00  0.00     0.007 A 
HETATM   36  C   UNL     1      38.367 -14.837  -3.048  1.00  0.00     0.001 A 
HETATM   37  C   UNL     1      37.500 -13.778  -3.300  1.00  0.00     0.000 A 
HETATM   38  C   UNL     1      37.458 -12.691  -2.429  1.00  0.00     0.001 A 
HETATM   39  C   UNL     1      38.294 -12.656  -1.312  1.00  0.00     0.007 A 
ENDBRANCH  33  34
ENDBRANCH  32  33
ENDBRANCH   6  32
TORSDOF 7
ENDMDL
MODEL 4
REMARK VINA RESULT:      -9.1      2.765      7.421
REMARK  7 active torsions:
REMARK  status: ('A' for Active; 'I' for Inactive)
REMARK    1  A    between atoms: O_2  and  C_3 
REMARK    2  A    between atoms: C_5  and  C_6 
REMARK    3  A    between atoms: C_10  and  C_11 
REMARK    4  A    between atoms: C_10  and  C_15 
REMARK    5  A    between atoms: N_19  and  C_20 
REMARK    6  A    between atoms: C_20  and  C_21 
REMARK    7  A    between atoms: C_21  and  C_22 
ROOT
HETATM    1  C   UNL     1      42.322 -11.563   5.461  1.00  0.00     0.114 C 
HETATM    2  N   UNL     1      42.068 -12.807   5.103  1.00  0.00    -0.327 N 
HETATM    3  C   UNL     1      41.059 -13.148   4.229  1.00  0.00     0.128 A 
HETATM    4  C   UNL     1      40.246 -12.186   3.767  1.00  0.00     0.100 A 
HETATM    5  C   UNL     1      40.304 -10.743   4.205  1.00  0.00     0.264 C 
HETATM    6  N   UNL     1      40.900 -14.469   3.846  1.00  0.00    -0.284 N 
HETATM    7  C   UNL     1      39.926 -14.855   2.928  1.00  0.00     0.331 A 
HETATM    8  O   UNL     1      39.769 -16.005   2.534  1.00  0.00    -0.246 OA
HETATM    9  N   UNL     1      39.125 -13.860   2.459  1.00  0.00    -0.275 N 
HETATM   10  C   UNL     1      39.208 -12.556   2.800  1.00  0.00     0.262 A 
HETATM   11  O   UNL     1      38.476 -11.700   2.334  1.00  0.00    -0.267 OA
HETATM   12  N   UNL     1      41.575 -10.570   5.036  1.00  0.00    -0.347 N 
HETATM   13  H   UNL     1      41.842  -9.617   5.301  1.00  0.00     0.162 HD
HETATM   14  H   UNL     1      42.678 -13.516   5.492  1.00  0.00     0.169 HD
HETATM   15  H   UNL     1      38.418 -14.133   1.785  1.00  0.00     0.173 HD
ENDROOT
BRANCH   1  16
HETATM   16  C   UNL     1      43.466 -11.262   6.338  1.00  0.00     0.010 A 
HETATM   17  C   UNL     1      43.254 -10.647   7.584  1.00  0.00     0.052 A 
HETATM   18  C   UNL     1      44.320 -10.300   8.419  1.00  0.00     0.069 A 
HETATM   19  C   UNL     1      45.620 -10.602   8.024  1.00  0.00     0.037 A 
HETATM   20  C   UNL     1      45.849 -11.230   6.797  1.00  0.00     0.004 A 
HETATM   21  C   UNL     1      44.782 -11.552   5.955  1.00  0.00     0.015 A 
BRANCH  18  22
HETATM   22  O   UNL     1      43.947  -9.682   9.576  1.00  0.00    -0.356 OA
HETATM   23  C   UNL     1      43.805 -10.502  10.732  1.00  0.00     0.210 C 
ENDBRANCH  18  22
ENDBRANCH   1  16
BRANCH   5  24
HETATM   24  C   UNL     1      39.125 -10.361   5.106  1.00  0.00     0.426 C 
HETATM   25  F   UNL     1      38.769 -11.449   5.843  1.00  0.00    -0.168 F 
HETATM   26  F   UNL     1      39.498  -9.409   5.994  1.00  0.00    -0.168 F 
HETATM   27  F   UNL     1      38.028  -9.940   4.469  1.00  0.00    -0.168 F 
ENDBRANCH   5  24
BRANCH   5  28
HETATM   28  C   UNL     1      40.351  -9.685   3.095  1.00  0.00     0.426 C 
HETATM   29  F   UNL     1      41.099 -10.139   2.058  1.00  0.00    -0.168 F 
HETATM   30  F   UNL     1      39.172  -9.266   2.626  1.00  0.00    -0.168 F 
HETATM   31  F   UNL     1      41.004  -8.588   3.572  1.00  0.00    -0.168 F 
ENDBRANCH   5  28
BRANCH   6  32
HETATM   32  C   UNL     1      41.745 -15.562   4.348  1.00  0.00     0.140 C 
BRANCH  32  33
HETATM   33  C   UNL     1      42.920 -15.869   3.408  1.00  0.00     0.059 C 
BRANCH  33  34
HETATM   34  C   UNL     1      43.241 -17.341   3.335  1.00  0.00    -0.057 A 
HETATM   35  C   UNL     1      42.879 -18.104   2.215  1.00  0.00     0.007 A 
HETATM   36  C   UNL     1      43.191 -19.463   2.148  1.00  0.00     0.001 A 
HETATM   37  C   UNL     1      43.882 -20.071   3.192  1.00  0.00     0.000 A 
HETATM   38  C   UNL     1      44.270 -19.320   4.300  1.00  0.00     0.001 A 
HETATM   39  C   UNL     1      43.954 -17.962   4.370  1.00  0.00     0.007 A 
ENDBRANCH  33  34
ENDBRANCH  32  33
ENDBRANCH   6  32
TORSDOF 7
ENDMDL
MODEL 5
REMARK VINA RESULT:      -9.1      3.455      7.109
REMARK  7 active torsions:
REMARK  status: ('A' for Active; 'I' for Inactive)
REMARK    1  A    between atoms: O_2  and  C_3 
REMARK    2  A    between atoms: C_5  and  C_6 
REMARK    3  A    between atoms: C_10  and  C_11 
REMARK    4  A    between atoms: C_10  and  C_15 
REMARK    5  A    between atoms: N_19  and  C_20 
REMARK    6  A    between atoms: C_20  and  C_21 
REMARK    7  A    between atoms: C_21  and  C_22 
ROOT
HETATM    1  C   UNL     1      41.025 -13.007   0.654  1.00  0.00     0.114 C 
HETATM    2  N   UNL     1      40.822 -12.247   1.711  1.00  0.00    -0.327 N 
HETATM    3  C   UNL     1      41.198 -12.611   2.985  1.00  0.00     0.128 A 
HETATM    4  C   UNL     1      41.736 -13.824   3.182  1.00  0.00     0.100 A 
HETATM    5  C   UNL     1      41.887 -14.871   2.106  1.00  0.00     0.264 C 
HETATM    6  N   UNL     1      41.015 -11.726   4.035  1.00  0.00    -0.284 N 
HETATM    7  C   UNL     1      41.424 -12.031   5.332  1.00  0.00     0.331 A 
HETATM    8  O   UNL     1      41.312 -11.269   6.285  1.00  0.00    -0.246 OA
HETATM    9  N   UNL     1      41.983 -13.259   5.504  1.00  0.00    -0.275 N 
HETATM   10  C   UNL     1      42.176 -14.180   4.535  1.00  0.00     0.262 A 
HETATM   11  O   UNL     1      42.701 -15.260   4.741  1.00  0.00    -0.267 OA
HETATM   12  N   UNL     1      41.559 -14.202   0.771  1.00  0.00    -0.347 N 
HETATM   13  H   UNL     1      41.744 -14.735  -0.084  1.00  0.00     0.162 HD
HETATM   14  H   UNL     1      40.385 -11.349   1.537  1.00  0.00     0.169 HD
HETATM   15  H   UNL     1      42.288 -13.485   6.445  1.00  0.00     0.173 HD
ENDROOT
BRANCH   1  16
HETATM   16  C   UNL     1      40.669 -12.522  -0.690  1.00  0.00     0.010 A 
HETATM   17  C   UNL     1      40.043 -13.384  -1.606  1.00  0.00     0.052 A 
HETATM   18  C   UNL     1      39.737 -12.973  -2.906  1.00  0.00     0.069 A 
HETATM   19  C   UNL     1      40.028 -11.668  -3.294  1.00  0.00     0.037 A 
HETATM   20  C   UNL     1      40.634 -10.791  -2.391  1.00  0.00     0.004 A 
HETATM   21  C   UNL     1      40.960 -11.214  -1.100  1.00  0.00     0.015 A 
BRANCH  18  22
HETATM   22  O   UNL     1      39.160 -13.938  -3.679  1.00  0.00    -0.356 OA
HETATM   23  C   UNL     1      38.485 -14.993  -3.001  1.00  0.00     0.210 C 
ENDBRANCH  18  22
ENDBRANCH   1  16
BRANCH   5  24
HETATM   24  C   UNL     1      40.900 -16.029   2.278  1.00  0.00     0.426 C 
HETATM   25  F   UNL     1      39.978 -15.681   3.218  1.00  0.00    -0.168 F 
HETATM   26  F   UNL     1      40.211 -16.238   1.132  1.00  0.00    -0.168 F 
HETATM   27  F   UNL     1      41.439 -17.190   2.667  1.00  0.00    -0.168 F 
ENDBRANCH   5  24
BRANCH   5  28
HETATM   28  C   UNL     1      43.273 -15.511   1.954  1.00  0.00     0.426 C 
HETATM   29  F   UNL     1      44.210 -14.545   1.783  1.00  0.00    -0.168 F 
HETATM   30  F   UNL     1      43.663 -16.320   2.943  1.00  0.00    -0.168 F 
HETATM   31  F   UNL     1      43.284 -16.248   0.808  1.00  0.00    -0.168 F 
ENDBRANCH   5  28
BRANCH   6  32
HETATM   32  C   UNL     1      40.403 -10.400   3.875  1.00  0.00     0.140 C 
BRANCH  32  33
HETATM   33  C   UNL     1      38.875 -10.476   3.739  1.00  0.00     0.059 C 
BRANCH  33  34
HETATM   34  C   UNL     1      38.404 -10.285   2.318  1.00  0.00    -0.057 A 
HETATM   35  C   UNL     1      38.755  -9.139   1.589  1.00  0.00     0.007 A 
HETATM   36  C   UNL     1      38.327  -8.976   0.271  1.00  0.00     0.001 A 
HETATM   37  C   UNL     1      37.557  -9.962  -0.340  1.00  0.00     0.000 A 
HETATM   38  C   UNL     1      37.222 -11.116   0.364  1.00  0.00     0.001 A 
HETATM   39  C   UNL     1      37.645 -11.280   1.685  1.00  0.00     0.007 A 
ENDBRANCH  33  34
ENDBRANCH  32  33
ENDBRANCH   6  32
TORSDOF 7
ENDMDL
MODEL 6
REMARK VINA RESULT:      -9.0      4.023      5.612
REMARK  7 active torsions:
REMARK  status: ('A' for Active; 'I' for Inactive)
REMARK    1  A    between atoms: O_2  and  C_3 
REMARK    2  A    between atoms: C_5  and  C_6 
REMARK    3  A    between atoms: C_10  and  C_11 
REMARK    4  A    between atoms: C_10  and  C_15 
REMARK    5  A    between atoms: N_19  and  C_20 
REMARK    6  A    between atoms: C_20  and  C_21 
REMARK    7  A    between atoms: C_21  and  C_22 
ROOT
HETATM    1  C   UNL     1      40.111 -14.066   0.668  1.00  0.00     0.114 C 
HETATM    2  N   UNL     1      39.565 -12.980   1.177  1.00  0.00    -0.327 N 
HETATM    3  C   UNL     1      38.813 -12.095   0.434  1.00  0.00     0.128 A 
HETATM    4  C   UNL     1      38.681 -12.302  -0.884  1.00  0.00     0.100 A 
HETATM    5  C   UNL     1      39.375 -13.405  -1.644  1.00  0.00     0.264 C 
HETATM    6  N   UNL     1      38.211 -11.014   1.057  1.00  0.00    -0.284 N 
HETATM    7  C   UNL     1      37.403 -10.121   0.358  1.00  0.00     0.331 A 
HETATM    8  O   UNL     1      36.824  -9.170   0.871  1.00  0.00    -0.246 OA
HETATM    9  N   UNL     1      37.269 -10.360  -0.974  1.00  0.00    -0.275 N 
HETATM   10  C   UNL     1      37.838 -11.380  -1.653  1.00  0.00     0.262 A 
HETATM   11  O   UNL     1      37.669 -11.560  -2.846  1.00  0.00    -0.267 OA
HETATM   12  N   UNL     1      40.011 -14.338  -0.614  1.00  0.00    -0.347 N 
HETATM   13  H   UNL     1      40.409 -15.218  -0.954  1.00  0.00     0.162 HD
HETATM   14  H   UNL     1      39.707 -12.833   2.169  1.00  0.00     0.169 HD
HETATM   15  H   UNL     1      36.676  -9.717  -1.488  1.00  0.00     0.173 HD
ENDROOT
BRANCH   1  16
HETATM   16  C   UNL     1      40.837 -15.009   1.535  1.00  0.00     0.010 A 
HETATM   17  C   UNL     1      40.288 -15.393   2.770  1.00  0.00     0.052 A 
HETATM   18  C   UNL     1      40.972 -16.246   3.641  1.00  0.00     0.069 A 
HETATM   19  C   UNL     1      42.211 -16.754   3.263  1.00  0.00     0.037 A 
HETATM   20  C   UNL     1      42.765 -16.398   2.030  1.00  0.00     0.004 A 
HETATM   21  C   UNL     1      42.088 -15.526   1.173  1.00  0.00     0.015 A 
BRANCH  18  22
HETATM   22  O   UNL     1      40.318 -16.494   4.812  1.00  0.00    -0.356 OA
HETATM   23  C   UNL     1      40.993 -16.147   6.018  1.00  0.00     0.210 C 
ENDBRANCH  18  22
ENDBRANCH   1  16
BRANCH   5  24
HETATM   24  C   UNL     1      40.509 -12.878  -2.529  1.00  0.00     0.426 C 
HETATM   25  F   UNL     1      41.391 -12.196  -1.748  1.00  0.00    -0.168 F 
HETATM   26  F   UNL     1      41.201 -13.906  -3.073  1.00  0.00    -0.168 F 
HETATM   27  F   UNL     1      40.133 -12.052  -3.512  1.00  0.00    -0.168 F 
ENDBRANCH   5  24
BRANCH   5  28
HETATM   28  C   UNL     1      38.497 -14.277  -2.551  1.00  0.00     0.426 C 
HETATM   29  F   UNL     1      37.193 -14.127  -2.212  1.00  0.00    -0.168 F 
HETATM   30  F   UNL     1      38.627 -14.081  -3.867  1.00  0.00    -0.168 F 
HETATM   31  F   UNL     1      38.796 -15.585  -2.312  1.00  0.00    -0.168 F 
ENDBRANCH   5  28
BRANCH   6  32
HETATM   32  C   UNL     1      38.352 -10.729   2.492  1.00  0.00     0.140 C 
BRANCH  32  33
HETATM   33  C   UNL     1      39.670 -10.012   2.817  1.00  0.00     0.059 C 
BRANCH  33  34
HETATM   34  C   UNL     1      40.760 -10.960   3.250  1.00  0.00    -0.057 A 
HETATM   35  C   UNL     1      41.991 -11.001   2.577  1.00  0.00     0.007 A 
HETATM   36  C   UNL     1      42.999 -11.872   2.991  1.00  0.00     0.001 A 
HETATM   37  C   UNL     1      42.797 -12.701   4.092  1.00  0.00     0.000 A 
HETATM   38  C   UNL     1      41.589 -12.653   4.784  1.00  0.00     0.001 A 
HETATM   39  C   UNL     1      40.577 -11.786   4.369  1.00  0.00     0.007 A 
ENDBRANCH  33  34
ENDBRANCH  32  33
ENDBRANCH   6  32
TORSDOF 7
ENDMDL
MODEL 7
REMARK VINA RESULT:      -8.7     15.590     17.450
REMARK  7 active torsions:
REMARK  status: ('A' for Active; 'I' for Inactive)
REMARK    1  A    between atoms: O_2  and  C_3 
REMARK    2  A    between atoms: C_5  and  C_6 
REMARK    3  A    between atoms: C_10  and  C_11 
REMARK    4  A    between atoms: C_10  and  C_15 
REMARK    5  A    between atoms: N_19  and  C_20 
REMARK    6  A    between atoms: C_20  and  C_21 
REMARK    7  A    between atoms: C_21  and  C_22 
ROOT
HETATM    1  C   UNL     1      47.863 -30.785   0.260  1.00  0.00     0.114 C 
HETATM    2  N   UNL     1      47.168 -31.045   1.350  1.00  0.00    -0.327 N 
HETATM    3  C   UNL     1      45.833 -30.733   1.486  1.00  0.00     0.128 A 
HETATM    4  C   UNL     1      45.217 -30.071   0.496  1.00  0.00     0.100 A 
HETATM    5  C   UNL     1      45.909 -29.560  -0.744  1.00  0.00     0.264 C 
HETATM    6  N   UNL     1      45.154 -31.105   2.635  1.00  0.00    -0.284 N 
HETATM    7  C   UNL     1      43.793 -30.855   2.797  1.00  0.00     0.331 A 
HETATM    8  O   UNL     1      43.144 -31.192   3.780  1.00  0.00    -0.246 OA
HETATM    9  N   UNL     1      43.185 -30.198   1.772  1.00  0.00    -0.275 N 
HETATM   10  C   UNL     1      43.784 -29.789   0.632  1.00  0.00     0.262 A 
HETATM   11  O   UNL     1      43.186 -29.220  -0.264  1.00  0.00    -0.267 OA
HETATM   12  N   UNL     1      47.319 -30.150  -0.754  1.00  0.00    -0.347 N 
HETATM   13  H   UNL     1      47.883 -30.015  -1.598  1.00  0.00     0.162 HD
HETATM   14  H   UNL     1      47.668 -31.518   2.094  1.00  0.00     0.169 HD
HETATM   15  H   UNL     1      42.193 -30.018   1.881  1.00  0.00     0.173 HD
ENDROOT
BRANCH   1  16
HETATM   16  C   UNL     1      49.267 -31.216   0.153  1.00  0.00     0.010 A 
HETATM   17  C   UNL     1      50.075 -30.726  -0.887  1.00  0.00     0.052 A 
HETATM   18  C   UNL     1      51.396 -31.153  -1.049  1.00  0.00     0.069 A 
HETATM   19  C   UNL     1      51.935 -32.059  -0.141  1.00  0.00     0.037 A 
HETATM   20  C   UNL     1      51.152 -32.544   0.910  1.00  0.00     0.004 A 
HETATM   21  C   UNL     1      49.824 -32.132   1.054  1.00  0.00     0.015 A 
BRANCH  18  22
HETATM   22  O   UNL     1      52.034 -30.607  -2.124  1.00  0.00    -0.356 OA
HETATM   23  C   UNL     1      52.564 -31.510  -3.090  1.00  0.00     0.210 C 
ENDBRANCH  18  22
ENDBRANCH   1  16
BRANCH   5  24
HETATM   24  C   UNL     1      46.063 -28.036  -0.738  1.00  0.00     0.426 C 
HETATM   25  F   UNL     1      46.473 -27.644   0.500  1.00  0.00    -0.168 F 
HETATM   26  F   UNL     1      47.037 -27.656  -1.597  1.00  0.00    -0.168 F 
HETATM   27  F   UNL     1      44.953 -27.346  -1.022  1.00  0.00    -0.168 F 
ENDBRANCH   5  24
BRANCH   5  28
HETATM   28  C   UNL     1      45.268 -29.918  -2.091  1.00  0.00     0.426 C 
HETATM   29  F   UNL     1      44.663 -31.129  -2.005  1.00  0.00    -0.168 F 
HETATM   30  F   UNL     1      44.396 -29.034  -2.585  1.00  0.00    -0.168 F 
HETATM   31  F   UNL     1      46.258 -30.061  -3.016  1.00  0.00    -0.168 F 
ENDBRANCH   5  28
BRANCH   6  32
HETATM   32  C   UNL     1      45.793 -31.804   3.759  1.00  0.00     0.140 C 
BRANCH  32  33
HETATM   33  C   UNL     1      46.440 -30.832   4.757  1.00  0.00     0.059 C 
BRANCH  33  34
HETATM   34  C   UNL     1      47.938 -30.747   4.602  1.00  0.00    -0.057 A 
HETATM   35  C   UNL     1      48.764 -31.822   4.965  1.00  0.00     0.007 A 
HETATM   36  C   UNL     1      50.148 -31.740   4.807  1.00  0.00     0.001 A 
HETATM   37  C   UNL     1      50.722 -30.592   4.269  1.00  0.00     0.000 A 
HETATM   38  C   UNL     1      49.912 -29.527   3.881  1.00  0.00     0.001 A 
HETATM   39  C   UNL     1      48.528 -29.604   4.043  1.00  0.00     0.007 A 
ENDBRANCH  33  34
ENDBRANCH  32  33
ENDBRANCH   6  32
TORSDOF 7
ENDMDL
MODEL 8
REMARK VINA RESULT:      -8.7     16.215     18.293
REMARK  7 active torsions:
REMARK  status: ('A' for Active; 'I' for Inactive)
REMARK    1  A    between atoms: O_2  and  C_3 
REMARK    2  A    between atoms: C_5  and  C_6 
REMARK    3  A    between atoms: C_10  and  C_11 
REMARK    4  A    between atoms: C_10  and  C_15 
REMARK    5  A    between atoms: N_19  and  C_20 
REMARK    6  A    between atoms: C_20  and  C_21 
REMARK    7  A    between atoms: C_21  and  C_22 
ROOT
HETATM    1  C   UNL     1      46.347 -30.080   1.638  1.00  0.00     0.114 C 
HETATM    2  N   UNL     1      47.132 -29.873   0.599  1.00  0.00    -0.327 N 
HETATM    3  C   UNL     1      48.477 -30.174   0.600  1.00  0.00     0.128 A 
HETATM    4  C   UNL     1      49.040 -30.634   1.727  1.00  0.00     0.100 A 
HETATM    5  C   UNL     1      48.314 -30.773   3.043  1.00  0.00     0.264 C 
HETATM    6  N   UNL     1      49.221 -29.995  -0.555  1.00  0.00    -0.284 N 
HETATM    7  C   UNL     1      50.572 -30.330  -0.617  1.00  0.00     0.331 A 
HETATM    8  O   UNL     1      51.262 -30.221  -1.623  1.00  0.00    -0.246 OA
HETATM    9  N   UNL     1      51.117 -30.812   0.533  1.00  0.00    -0.275 N 
HETATM   10  C   UNL     1      50.460 -30.996   1.699  1.00  0.00     0.262 A 
HETATM   11  O   UNL     1      50.994 -31.450   2.696  1.00  0.00    -0.267 OA
HETATM   12  N   UNL     1      46.828 -30.541   2.770  1.00  0.00    -0.347 N 
HETATM   13  H   UNL     1      46.172 -30.732   3.533  1.00  0.00     0.162 HD
HETATM   14  H   UNL     1      46.687 -29.496  -0.228  1.00  0.00     0.169 HD
HETATM   15  H   UNL     1      52.098 -31.064   0.493  1.00  0.00     0.173 HD
ENDROOT
BRANCH   1  16
HETATM   16  C   UNL     1      44.902 -29.809   1.543  1.00  0.00     0.010 A 
HETATM   17  C   UNL     1      44.072 -30.023   2.656  1.00  0.00     0.052 A 
HETATM   18  C   UNL     1      42.690 -29.825   2.586  1.00  0.00     0.069 A 
HETATM   19  C   UNL     1      42.127 -29.374   1.396  1.00  0.00     0.037 A 
HETATM   20  C   UNL     1      42.939 -29.138   0.284  1.00  0.00     0.004 A 
HETATM   21  C   UNL     1      44.317 -29.360   0.352  1.00  0.00     0.015 A 
BRANCH  18  22
HETATM   22  O   UNL     1      42.024 -30.108   3.742  1.00  0.00    -0.356 OA
HETATM   23  C   UNL     1      42.167 -31.425   4.267  1.00  0.00     0.210 C 
ENDBRANCH  18  22
ENDBRANCH   1  16
BRANCH   5  24
HETATM   24  C   UNL     1      48.751 -29.716   4.062  1.00  0.00     0.426 C 
HETATM   25  F   UNL     1      48.844 -28.513   3.431  1.00  0.00    -0.168 F 
HETATM   26  F   UNL     1      47.809 -29.567   5.023  1.00  0.00    -0.168 F 
HETATM   27  F   UNL     1      49.929 -29.943   4.655  1.00  0.00    -0.168 F 
ENDBRANCH   5  24
BRANCH   5  28
HETATM   28  C   UNL     1      48.429 -32.126   3.756  1.00  0.00     0.426 C 
HETATM   29  F   UNL     1      48.532 -33.122   2.841  1.00  0.00    -0.168 F 
HETATM   30  F   UNL     1      49.425 -32.248   4.639  1.00  0.00    -0.168 F 
HETATM   31  F   UNL     1      47.268 -32.358   4.431  1.00  0.00    -0.168 F 
ENDBRANCH   5  28
BRANCH   6  32
HETATM   32  C   UNL     1      48.657 -29.465  -1.804  1.00  0.00     0.140 C 
BRANCH  32  33
HETATM   33  C   UNL     1      47.852 -30.522  -2.574  1.00  0.00     0.059 C 
BRANCH  33  34
HETATM   34  C   UNL     1      46.443 -30.079  -2.876  1.00  0.00    -0.057 A 
HETATM   35  C   UNL     1      45.409 -31.015  -3.031  1.00  0.00     0.007 A 
HETATM   36  C   UNL     1      44.104 -30.597  -3.297  1.00  0.00     0.001 A 
HETATM   37  C   UNL     1      43.813 -29.239  -3.395  1.00  0.00     0.000 A 
HETATM   38  C   UNL     1      44.825 -28.297  -3.218  1.00  0.00     0.001 A 
HETATM   39  C   UNL     1      46.132 -28.714  -2.957  1.00  0.00     0.007 A 
ENDBRANCH  33  34
ENDBRANCH  32  33
ENDBRANCH   6  32
TORSDOF 7
ENDMDL
MODEL 9
REMARK VINA RESULT:      -8.6      1.689      2.627
REMARK  7 active torsions:
REMARK  status: ('A' for Active; 'I' for Inactive)
REMARK    1  A    between atoms: O_2  and  C_3 
REMARK    2  A    between atoms: C_5  and  C_6 
REMARK    3  A    between atoms: C_10  and  C_11 
REMARK    4  A    between atoms: C_10  and  C_15 
REMARK    5  A    between atoms: N_19  and  C_20 
REMARK    6  A    between atoms: C_20  and  C_21 
REMARK    7  A    between atoms: C_21  and  C_22 
ROOT
HETATM    1  C   UNL     1      41.697 -14.670   4.843  1.00  0.00     0.114 C 
HETATM    2  N   UNL     1      41.164 -13.512   5.179  1.00  0.00    -0.327 N 
HETATM    3  C   UNL     1      40.397 -12.758   4.318  1.00  0.00     0.128 A 
HETATM    4  C   UNL     1      40.237 -13.176   3.054  1.00  0.00     0.100 A 
HETATM    5  C   UNL     1      40.912 -14.393   2.470  1.00  0.00     0.264 C 
HETATM    6  N   UNL     1      39.811 -11.586   4.768  1.00  0.00    -0.284 N 
HETATM    7  C   UNL     1      38.989 -10.815   3.949  1.00  0.00     0.331 A 
HETATM    8  O   UNL     1      38.423  -9.790   4.311  1.00  0.00    -0.246 OA
HETATM    9  N   UNL     1      38.826 -11.268   2.676  1.00  0.00    -0.275 N 
HETATM   10  C   UNL     1      39.379 -12.389   2.162  1.00  0.00     0.262 A 
HETATM   11  O   UNL     1      39.184 -12.760   1.019  1.00  0.00    -0.267 OA
HETATM   12  N   UNL     1      41.570 -15.147   3.626  1.00  0.00    -0.347 N 
HETATM   13  H   UNL     1      41.958 -16.074   3.426  1.00  0.00     0.162 HD
HETATM   14  H   UNL     1      41.327 -13.206   6.130  1.00  0.00     0.169 HD
HETATM   15  H   UNL     1      38.224 -10.716   2.077  1.00  0.00     0.173 HD
ENDROOT
BRANCH   1  16
HETATM   16  C   UNL     1      42.440 -15.462   5.838  1.00  0.00     0.010 A 
HETATM   17  C   UNL     1      42.880 -16.758   5.519  1.00  0.00     0.052 A 
HETATM   18  C   UNL     1      43.542 -17.557   6.455  1.00  0.00     0.069 A 
HETATM   19  C   UNL     1      43.802 -17.046   7.723  1.00  0.00     0.037 A 
HETATM   20  C   UNL     1      43.389 -15.753   8.053  1.00  0.00     0.004 A 
HETATM   21  C   UNL     1      42.706 -14.967   7.121  1.00  0.00     0.015 A 
BRANCH  18  22
HETATM   22  O   UNL     1      43.874 -18.799   5.998  1.00  0.00    -0.356 OA
HETATM   23  C   UNL     1      44.095 -18.936   4.597  1.00  0.00     0.210 C 
ENDBRANCH  18  22
ENDBRANCH   1  16
BRANCH   5  24
HETATM   24  C   UNL     1      42.028 -14.023   1.487  1.00  0.00     0.426 C 
HETATM   25  F   UNL     1      42.723 -12.967   1.993  1.00  0.00    -0.168 F 
HETATM   26  F   UNL     1      42.915 -15.040   1.374  1.00  0.00    -0.168 F 
HETATM   27  F   UNL     1      41.621 -13.676   0.261  1.00  0.00    -0.168 F 
ENDBRANCH   5  24
BRANCH   5  28
HETATM   28  C   UNL     1      40.015 -15.397   1.737  1.00  0.00     0.426 C 
HETATM   29  F   UNL     1      38.863 -15.577   2.430  1.00  0.00    -0.168 F 
HETATM   30  F   UNL     1      39.713 -15.105   0.468  1.00  0.00    -0.168 F 
HETATM   31  F   UNL     1      40.638 -16.609   1.730  1.00  0.00    -0.168 F 
ENDBRANCH   5  28
BRANCH   6  32
HETATM   32  C   UNL     1      39.982 -11.070   6.133  1.00  0.00     0.140 C 
BRANCH  32  33
HETATM   33  C   UNL     1      41.104 -10.025   6.225  1.00  0.00     0.059 C 
BRANCH  33  34
HETATM   34  C   UNL     1      42.473 -10.646   6.348  1.00  0.00    -0.057 A 
HETATM   35  C   UNL     1      43.246 -10.919   5.209  1.00  0.00     0.007 A 
HETATM   36  C   UNL     1      44.518 -11.482   5.331  1.00  0.00     0.001 A 
HETATM   37  C   UNL     1      45.038 -11.763   6.591  1.00  0.00     0.000 A 
HETATM   38  C   UNL     1      44.291 -11.474   7.731  1.00  0.00     0.001 A 
HETATM   39  C   UNL     1      43.017 -10.916   7.612  1.00  0.00     0.007 A 
ENDBRANCH  33  34
ENDBRANCH  32  33
ENDBRANCH   6  32
TORSDOF 7
ENDMDL
MODEL 10
REMARK VINA RESULT:      -8.2      3.305      7.824
REMARK  7 active torsions:
REMARK  status: ('A' for Active; 'I' for Inactive)
REMARK    1  A    between atoms: O_2  and  C_3 
REMARK    2  A    between atoms: C_5  and  C_6 
REMARK    3  A    between atoms: C_10  and  C_11 
REMARK    4  A    between atoms: C_10  and  C_15 
REMARK    5  A    between atoms: N_19  and  C_20 
REMARK    6  A    between atoms: C_20  and  C_21 
REMARK    7  A    between atoms: C_21  and  C_22 
ROOT
HETATM    1  C   UNL     1      42.504 -10.768   6.969  1.00  0.00     0.114 C 
HETATM    2  N   UNL     1      42.310 -12.019   6.600  1.00  0.00    -0.327 N 
HETATM    3  C   UNL     1      41.365 -12.391   5.668  1.00  0.00     0.128 A 
HETATM    4  C   UNL     1      40.553 -11.455   5.156  1.00  0.00     0.100 A 
HETATM    5  C   UNL     1      40.540 -10.011   5.593  1.00  0.00     0.264 C 
HETATM    6  N   UNL     1      41.270 -13.717   5.279  1.00  0.00    -0.284 N 
HETATM    7  C   UNL     1      40.365 -14.134   4.306  1.00  0.00     0.331 A 
HETATM    8  O   UNL     1      40.266 -15.288   3.906  1.00  0.00    -0.246 OA
HETATM    9  N   UNL     1      39.563 -13.164   3.788  1.00  0.00    -0.275 N 
HETATM   10  C   UNL     1      39.586 -11.857   4.130  1.00  0.00     0.262 A 
HETATM   11  O   UNL     1      38.857 -11.025   3.619  1.00  0.00    -0.267 OA
HETATM   12  N   UNL     1      41.754  -9.798   6.498  1.00  0.00    -0.347 N 
HETATM   13  H   UNL     1      41.975  -8.837   6.775  1.00  0.00     0.162 HD
HETATM   14  H   UNL     1      42.917 -12.709   7.026  1.00  0.00     0.169 HD
HETATM   15  H   UNL     1      38.906 -13.459   3.074  1.00  0.00     0.173 HD
ENDROOT
BRANCH   1  16
HETATM   16  C   UNL     1      43.584 -10.432   7.912  1.00  0.00     0.010 A 
HETATM   17  C   UNL     1      43.291 -10.221   9.270  1.00  0.00     0.052 A 
HETATM   18  C   UNL     1      44.283  -9.850  10.183  1.00  0.00     0.069 A 
HETATM   19  C   UNL     1      45.597  -9.719   9.744  1.00  0.00     0.037 A 
HETATM   20  C   UNL     1      45.910  -9.941   8.401  1.00  0.00     0.004 A 
HETATM   21  C   UNL     1      44.912 -10.289   7.487  1.00  0.00     0.015 A 
BRANCH  18  22
HETATM   22  O   UNL     1      43.829  -9.653  11.454  1.00  0.00    -0.356 OA
HETATM   23  C   UNL     1      43.361  -8.348  11.780  1.00  0.00     0.210 C 
ENDBRANCH  18  22
ENDBRANCH   1  16
BRANCH   5  24
HETATM   24  C   UNL     1      39.299  -9.664   6.421  1.00  0.00     0.426 C 
HETATM   25  F   UNL     1      39.654  -8.771   7.385  1.00  0.00    -0.168 F 
HETATM   26  F   UNL     1      38.375  -9.043   5.652  1.00  0.00    -0.168 F 
HETATM   27  F   UNL     1      38.714 -10.697   7.037  1.00  0.00    -0.168 F 
ENDBRANCH   5  24
BRANCH   5  28
HETATM   28  C   UNL     1      40.622  -8.953   4.485  1.00  0.00     0.426 C 
HETATM   29  F   UNL     1      41.449  -9.381   3.500  1.00  0.00    -0.168 F 
HETATM   30  F   UNL     1      39.461  -8.576   3.940  1.00  0.00    -0.168 F 
HETATM   31  F   UNL     1      41.203  -7.833   5.000  1.00  0.00    -0.168 F 
ENDBRANCH   5  28
BRANCH   6  32
HETATM   32  C   UNL     1      42.116 -14.783   5.833  1.00  0.00     0.140 C 
BRANCH  32  33
HETATM   33  C   UNL     1      43.430 -14.948   5.055  1.00  0.00     0.059 C 
BRANCH  33  34
HETATM   34  C   UNL     1      43.561 -16.305   4.410  1.00  0.00    -0.057 A 
HETATM   35  C   UNL     1      43.227 -16.498   3.061  1.00  0.00     0.007 A 
HETATM   36  C   UNL     1      43.363 -17.754   2.467  1.00  0.00     0.001 A 
HETATM   37  C   UNL     1      43.850 -18.827   3.208  1.00  0.00     0.000 A 
HETATM   38  C   UNL     1      44.209 -18.644   4.542  1.00  0.00     0.001 A 
HETATM   39  C   UNL     1      44.069 -17.390   5.140  1.00  0.00     0.007 A 
ENDBRANCH  33  34
ENDBRANCH  32  33
ENDBRANCH   6  32
TORSDOF 7
ENDMDL
