MODEL 1
REMARK VINA RESULT:      -8.4      0.000      0.000
REMARK  3 active torsions:
REMARK  status: ('A' for Active; 'I' for Inactive)
REMARK    1  A    between atoms: C_9  and  C_10 
REMARK    2  A    between atoms: C_16  and  C_17 
REMARK       I    between atoms: C_17  and  N_18 
REMARK    3  A    between atoms: N_18  and  C_19 
ROOT
HETATM    1  C   UNL     1      43.865 -13.998   6.605  1.00  0.00     0.070 C 
HETATM    2  C   UNL     1      42.669 -13.551   5.803  1.00  0.00     0.037 C 
HETATM    3  N   UNL     1      42.399 -12.185   5.839  1.00  0.00    -0.191 N 
HETATM    4  C   UNL     1      41.258 -11.651   5.357  1.00  0.00     0.735 A 
HETATM    5  N   UNL     1      40.371 -12.452   4.696  1.00  0.00    -0.092 N 
HETATM    6  N   UNL     1      39.275 -11.755   4.361  1.00  0.00     0.012 NA
HETATM    7  N   UNL     1      39.525 -10.519   4.784  1.00  0.00     0.033 NA
HETATM    8  N   UNL     1      40.757 -10.441   5.407  1.00  0.00     0.030 NA
HETATM    9  C   UNL     1      40.568 -13.877   4.440  1.00  0.00     0.199 C 
HETATM   10  C   UNL     1      41.836 -14.380   5.126  1.00  0.00     0.062 C 
HETATM   11  H   UNL     1      42.998 -11.601   6.420  1.00  0.00     0.184 HD
ENDROOT
BRANCH  10  12
HETATM   12  C   UNL     1      41.995 -15.859   5.066  1.00  0.00     0.256 C 
HETATM   13  N   UNL     1      42.876 -16.273   4.093  1.00  0.00    -0.323 N 
HETATM   14  H   UNL     1      43.318 -15.558   3.531  1.00  0.00     0.169 HD
HETATM   15  O   UNL     1      41.311 -16.547   5.812  1.00  0.00    -0.267 OA
BRANCH  13  16
HETATM   16  C   UNL     1      43.234 -17.601   3.774  1.00  0.00     0.035 A 
HETATM   17  C   UNL     1      43.925 -18.452   4.639  1.00  0.00     0.029 A 
HETATM   18  C   UNL     1      44.245 -19.755   4.243  1.00  0.00     0.002 A 
HETATM   19  C   UNL     1      43.883 -20.215   2.980  1.00  0.00     0.000 A 
HETATM   20  C   UNL     1      43.195 -19.374   2.110  1.00  0.00     0.002 A 
HETATM   21  C   UNL     1      42.869 -18.074   2.507  1.00  0.00     0.029 A 
ENDBRANCH  13  16
ENDBRANCH  10  12
BRANCH   9  22
HETATM   22  C   UNL     1      40.577 -14.151   2.947  1.00  0.00    -0.011 A 
HETATM   23  C   UNL     1      41.282 -13.307   2.090  1.00  0.00     0.125 A 
HETATM   24  N   UNL     1      41.337 -13.461   0.748  1.00  0.00    -0.272 NA
HETATM   25  C   UNL     1      40.661 -14.504   0.225  1.00  0.00     0.116 A 
HETATM   26  C   UNL     1      39.921 -15.396   0.981  1.00  0.00     0.020 A 
HETATM   27  C   UNL     1      39.875 -15.213   2.360  1.00  0.00     0.012 A 
ENDBRANCH   9  22
TORSDOF 3
ENDMDL
MODEL 2
REMARK VINA RESULT:      -8.0      1.783      4.130
REMARK  3 active torsions:
REMARK  status: ('A' for Active; 'I' for Inactive)
REMARK    1  A    between atoms: C_9  and  C_10 
REMARK    2  A    between atoms: C_16  and  C_17 
REMARK       I    between atoms: C_17  and  N_18 
REMARK    3  A    between atoms: N_18  and  C_19 
ROOT
HETATM    1  C   UNL     1      39.784 -15.267  -0.124  1.00  0.00     0.070 C 
HETATM    2  C   UNL     1      40.357 -14.052   0.563  1.00  0.00     0.037 C 
HETATM    3  N   UNL     1      40.226 -12.852  -0.132  1.00  0.00    -0.191 N 
HETATM    4  C   UNL     1      40.862 -11.720   0.235  1.00  0.00     0.735 A 
HETATM    5  N   UNL     1      41.574 -11.700   1.401  1.00  0.00    -0.092 N 
HETATM    6  N   UNL     1      42.187 -10.516   1.550  1.00  0.00     0.012 NA
HETATM    7  N   UNL     1      41.805  -9.807   0.492  1.00  0.00     0.033 NA
HETATM    8  N   UNL     1      40.980 -10.546  -0.336  1.00  0.00     0.030 NA
HETATM    9  C   UNL     1      41.693 -12.827   2.322  1.00  0.00     0.199 C 
HETATM   10  C   UNL     1      41.025 -14.072   1.744  1.00  0.00     0.062 C 
HETATM   11  H   UNL     1      39.790 -12.885  -1.051  1.00  0.00     0.184 HD
ENDROOT
BRANCH  10  12
HETATM   12  C   UNL     1      41.273 -15.303   2.543  1.00  0.00     0.256 C 
HETATM   13  N   UNL     1      42.554 -15.788   2.413  1.00  0.00    -0.323 N 
HETATM   14  H   UNL     1      43.185 -15.278   1.809  1.00  0.00     0.169 HD
HETATM   15  O   UNL     1      40.339 -15.789   3.166  1.00  0.00    -0.267 OA
BRANCH  13  16
HETATM   16  C   UNL     1      43.099 -16.937   3.025  1.00  0.00     0.035 A 
HETATM   17  C   UNL     1      43.633 -16.956   4.315  1.00  0.00     0.029 A 
HETATM   18  C   UNL     1      44.157 -18.138   4.848  1.00  0.00     0.002 A 
HETATM   19  C   UNL     1      44.159 -19.308   4.094  1.00  0.00     0.000 A 
HETATM   20  C   UNL     1      43.630 -19.301   2.806  1.00  0.00     0.002 A 
HETATM   21  C   UNL     1      43.099 -18.121   2.276  1.00  0.00     0.029 A 
ENDBRANCH  13  16
ENDBRANCH  10  12
BRANCH   9  22
HETATM   22  C   UNL     1      41.135 -12.458   3.685  1.00  0.00    -0.011 A 
HETATM   23  C   UNL     1      41.984 -12.386   4.788  1.00  0.00     0.125 A 
HETATM   24  N   UNL     1      41.579 -12.080   6.040  1.00  0.00    -0.272 NA
HETATM   25  C   UNL     1      40.264 -11.830   6.213  1.00  0.00     0.116 A 
HETATM   26  C   UNL     1      39.332 -11.884   5.191  1.00  0.00     0.020 A 
HETATM   27  C   UNL     1      39.774 -12.207   3.911  1.00  0.00     0.012 A 
ENDBRANCH   9  22
TORSDOF 3
ENDMDL
MODEL 3
REMARK VINA RESULT:      -8.0      2.218      2.480
REMARK  3 active torsions:
REMARK  status: ('A' for Active; 'I' for Inactive)
REMARK    1  A    between atoms: C_9  and  C_10 
REMARK    2  A    between atoms: C_16  and  C_17 
REMARK       I    between atoms: C_17  and  N_18 
REMARK    3  A    between atoms: N_18  and  C_19 
ROOT
HETATM    1  C   UNL     1      44.057 -11.686   3.767  1.00  0.00     0.070 C 
HETATM    2  C   UNL     1      42.653 -11.800   3.228  1.00  0.00     0.037 C 
HETATM    3  N   UNL     1      41.849 -10.677   3.408  1.00  0.00    -0.191 N 
HETATM    4  C   UNL     1      40.519 -10.683   3.180  1.00  0.00     0.735 A 
HETATM    5  N   UNL     1      39.940 -11.795   2.636  1.00  0.00    -0.092 N 
HETATM    6  N   UNL     1      38.610 -11.633   2.556  1.00  0.00     0.012 NA
HETATM    7  N   UNL     1      38.397 -10.401   3.011  1.00  0.00     0.033 NA
HETATM    8  N   UNL     1      39.578  -9.799   3.404  1.00  0.00     0.030 NA
HETATM    9  C   UNL     1      40.660 -13.005   2.251  1.00  0.00     0.199 C 
HETATM   10  C   UNL     1      42.129 -12.914   2.659  1.00  0.00     0.062 C 
HETATM   11  H   UNL     1      42.249  -9.886   3.910  1.00  0.00     0.184 HD
ENDROOT
BRANCH  10  12
HETATM   12  C   UNL     1      42.877 -14.186   2.469  1.00  0.00     0.256 C 
HETATM   13  N   UNL     1      42.473 -15.189   3.320  1.00  0.00    -0.323 N 
HETATM   14  H   UNL     1      41.730 -14.974   3.972  1.00  0.00     0.169 HD
HETATM   15  O   UNL     1      43.788 -14.208   1.652  1.00  0.00    -0.267 OA
BRANCH  13  16
HETATM   16  C   UNL     1      42.988 -16.501   3.401  1.00  0.00     0.035 A 
HETATM   17  C   UNL     1      43.762 -16.972   4.464  1.00  0.00     0.029 A 
HETATM   18  C   UNL     1      44.236 -18.288   4.465  1.00  0.00     0.002 A 
HETATM   19  C   UNL     1      43.948 -19.139   3.402  1.00  0.00     0.000 A 
HETATM   20  C   UNL     1      43.179 -18.680   2.337  1.00  0.00     0.002 A 
HETATM   21  C   UNL     1      42.698 -17.367   2.339  1.00  0.00     0.029 A 
ENDBRANCH  13  16
ENDBRANCH  10  12
BRANCH   9  22
HETATM   22  C   UNL     1      40.493 -13.271   0.766  1.00  0.00    -0.011 A 
HETATM   23  C   UNL     1      40.953 -12.339  -0.163  1.00  0.00     0.125 A 
HETATM   24  N   UNL     1      40.838 -12.480  -1.502  1.00  0.00    -0.272 NA
HETATM   25  C   UNL     1      40.236 -13.602  -1.948  1.00  0.00     0.116 A 
HETATM   26  C   UNL     1      39.733 -14.586  -1.115  1.00  0.00     0.020 A 
HETATM   27  C   UNL     1      39.860 -14.415   0.261  1.00  0.00     0.012 A 
ENDBRANCH   9  22
TORSDOF 3
ENDMDL
MODEL 4
REMARK VINA RESULT:      -7.7      1.903      2.055
REMARK  3 active torsions:
REMARK  status: ('A' for Active; 'I' for Inactive)
REMARK    1  A    between atoms: C_9  and  C_10 
REMARK    2  A    between atoms: C_16  and  C_17 
REMARK       I    between atoms: C_17  and  N_18 
REMARK    3  A    between atoms: N_18  and  C_19 
ROOT
HETATM    1  C   UNL     1      44.149 -12.285   6.329  1.00  0.00     0.070 C 
HETATM    2  C   UNL     1      42.687 -12.161   5.976  1.00  0.00     0.037 C 
HETATM    3  N   UNL     1      41.965 -11.239   6.729  1.00  0.00    -0.191 N 
HETATM    4  C   UNL     1      40.619 -11.156   6.690  1.00  0.00     0.735 A 
HETATM    5  N   UNL     1      39.927 -11.918   5.792  1.00  0.00    -0.092 N 
HETATM    6  N   UNL     1      38.606 -11.749   5.958  1.00  0.00     0.012 NA
HETATM    7  N   UNL     1      38.507 -10.846   6.930  1.00  0.00     0.033 NA
HETATM    8  N   UNL     1      39.753 -10.469   7.395  1.00  0.00     0.030 NA
HETATM    9  C   UNL     1      40.539 -12.829   4.828  1.00  0.00     0.199 C 
HETATM   10  C   UNL     1      42.048 -12.914   5.046  1.00  0.00     0.062 C 
HETATM   11  H   UNL     1      42.458 -10.747   7.472  1.00  0.00     0.184 HD
ENDROOT
BRANCH  10  12
HETATM   12  C   UNL     1      42.708 -13.966   4.225  1.00  0.00     0.256 C 
HETATM   13  N   UNL     1      42.512 -15.239   4.710  1.00  0.00    -0.323 N 
HETATM   14  H   UNL     1      41.955 -15.336   5.549  1.00  0.00     0.169 HD
HETATM   15  O   UNL     1      43.388 -13.616   3.271  1.00  0.00    -0.267 OA
BRANCH  13  16
HETATM   16  C   UNL     1      43.011 -16.445   4.172  1.00  0.00     0.035 A 
HETATM   17  C   UNL     1      43.982 -17.233   4.792  1.00  0.00     0.029 A 
HETATM   18  C   UNL     1      44.425 -18.415   4.189  1.00  0.00     0.002 A 
HETATM   19  C   UNL     1      43.908 -18.813   2.960  1.00  0.00     0.000 A 
HETATM   20  C   UNL     1      42.941 -18.034   2.332  1.00  0.00     0.002 A 
HETATM   21  C   UNL     1      42.491 -16.857   2.938  1.00  0.00     0.029 A 
ENDBRANCH  13  16
ENDBRANCH  10  12
BRANCH   9  22
HETATM   22  C   UNL     1      40.188 -12.414   3.410  1.00  0.00    -0.011 A 
HETATM   23  C   UNL     1      40.549 -11.150   2.947  1.00  0.00     0.125 A 
HETATM   24  N   UNL     1      40.269 -10.686   1.709  1.00  0.00    -0.272 NA
HETATM   25  C   UNL     1      39.596 -11.515   0.884  1.00  0.00     0.116 A 
HETATM   26  C   UNL     1      39.180 -12.785   1.244  1.00  0.00     0.020 A 
HETATM   27  C   UNL     1      39.477 -13.237   2.527  1.00  0.00     0.012 A 
ENDBRANCH   9  22
TORSDOF 3
ENDMDL
MODEL 5
REMARK VINA RESULT:      -7.7      2.559      5.734
REMARK  3 active torsions:
REMARK  status: ('A' for Active; 'I' for Inactive)
REMARK    1  A    between atoms: C_9  and  C_10 
REMARK    2  A    between atoms: C_16  and  C_17 
REMARK       I    between atoms: C_17  and  N_18 
REMARK    3  A    between atoms: N_18  and  C_19 
ROOT
HETATM    1  C   UNL     1      38.902 -11.496   3.452  1.00  0.00     0.070 C 
HETATM    2  C   UNL     1      40.347 -11.930   3.415  1.00  0.00     0.037 C 
HETATM    3  N   UNL     1      41.197 -11.262   4.293  1.00  0.00    -0.191 N 
HETATM    4  C   UNL     1      42.540 -11.376   4.241  1.00  0.00     0.735 A 
HETATM    5  N   UNL     1      43.103 -12.269   3.375  1.00  0.00    -0.092 N 
HETATM    6  N   UNL     1      44.441 -12.181   3.420  1.00  0.00     0.012 NA
HETATM    7  N   UNL     1      44.682 -11.262   4.350  1.00  0.00     0.033 NA
HETATM    8  N   UNL     1      43.506 -10.751   4.870  1.00  0.00     0.030 NA
HETATM    9  C   UNL     1      42.352 -13.154   2.487  1.00  0.00     0.199 C 
HETATM   10  C   UNL     1      40.856 -12.853   2.562  1.00  0.00     0.062 C 
HETATM   11  H   UNL     1      40.796 -10.521   4.865  1.00  0.00     0.184 HD
ENDROOT
BRANCH  10  12
HETATM   12  C   UNL     1      40.053 -13.585   1.545  1.00  0.00     0.256 C 
HETATM   13  N   UNL     1      39.959 -12.921   0.343  1.00  0.00    -0.323 N 
HETATM   14  H   UNL     1      40.430 -12.029   0.267  1.00  0.00     0.169 HD
HETATM   15  O   UNL     1      39.519 -14.635   1.874  1.00  0.00    -0.267 OA
BRANCH  13  16
HETATM   16  C   UNL     1      39.263 -13.339  -0.812  1.00  0.00     0.035 A 
HETATM   17  C   UNL     1      39.529 -14.526  -1.497  1.00  0.00     0.029 A 
HETATM   18  C   UNL     1      38.794 -14.865  -2.637  1.00  0.00     0.002 A 
HETATM   19  C   UNL     1      37.793 -14.019  -3.106  1.00  0.00     0.000 A 
HETATM   20  C   UNL     1      37.520 -12.832  -2.431  1.00  0.00     0.002 A 
HETATM   21  C   UNL     1      38.250 -12.496  -1.287  1.00  0.00     0.029 A 
ENDBRANCH  13  16
ENDBRANCH  10  12
BRANCH   9  22
HETATM   22  C   UNL     1      42.661 -14.606   2.802  1.00  0.00    -0.011 A 
HETATM   23  C   UNL     1      42.441 -15.101   4.086  1.00  0.00     0.125 A 
HETATM   24  N   UNL     1      42.698 -16.373   4.465  1.00  0.00    -0.272 NA
HETATM   25  C   UNL     1      43.198 -17.200   3.524  1.00  0.00     0.116 A 
HETATM   26  C   UNL     1      43.465 -16.812   2.223  1.00  0.00     0.020 A 
HETATM   27  C   UNL     1      43.197 -15.495   1.860  1.00  0.00     0.012 A 
ENDBRANCH   9  22
TORSDOF 3
ENDMDL
MODEL 6
REMARK VINA RESULT:      -7.5      2.757      6.189
REMARK  3 active torsions:
REMARK  status: ('A' for Active; 'I' for Inactive)
REMARK    1  A    between atoms: C_9  and  C_10 
REMARK    2  A    between atoms: C_16  and  C_17 
REMARK       I    between atoms: C_17  and  N_18 
REMARK    3  A    between atoms: N_18  and  C_19 
ROOT
HETATM    1  C   UNL     1      42.855 -15.654   7.592  1.00  0.00     0.070 C 
HETATM    2  C   UNL     1      42.850 -15.401   6.105  1.00  0.00     0.037 C 
HETATM    3  N   UNL     1      42.806 -16.539   5.304  1.00  0.00    -0.191 N 
HETATM    4  C   UNL     1      43.007 -16.505   3.970  1.00  0.00     0.735 A 
HETATM    5  N   UNL     1      43.143 -15.297   3.345  1.00  0.00    -0.092 N 
HETATM    6  N   UNL     1      43.406 -15.475   2.042  1.00  0.00     0.012 NA
HETATM    7  N   UNL     1      43.383 -16.795   1.875  1.00  0.00     0.033 NA
HETATM    8  N   UNL     1      43.137 -17.448   3.069  1.00  0.00     0.030 NA
HETATM    9  C   UNL     1      43.067 -14.001   4.014  1.00  0.00     0.199 C 
HETATM   10  C   UNL     1      42.947 -14.178   5.526  1.00  0.00     0.062 C 
HETATM   11  H   UNL     1      42.813 -17.445   5.770  1.00  0.00     0.184 HD
ENDROOT
BRANCH  10  12
HETATM   12  C   UNL     1      43.057 -12.901   6.283  1.00  0.00     0.256 C 
HETATM   13  N   UNL     1      44.339 -12.624   6.702  1.00  0.00    -0.323 N 
HETATM   14  H   UNL     1      45.060 -13.291   6.462  1.00  0.00     0.169 HD
HETATM   15  O   UNL     1      42.033 -12.272   6.511  1.00  0.00    -0.267 OA
BRANCH  13  16
HETATM   16  C   UNL     1      44.771 -11.506   7.447  1.00  0.00     0.035 A 
HETATM   17  C   UNL     1      44.079 -10.982   8.541  1.00  0.00     0.029 A 
HETATM   18  C   UNL     1      44.576  -9.867   9.224  1.00  0.00     0.002 A 
HETATM   19  C   UNL     1      45.763  -9.265   8.817  1.00  0.00     0.000 A 
HETATM   20  C   UNL     1      46.460  -9.778   7.728  1.00  0.00     0.002 A 
HETATM   21  C   UNL     1      45.968 -10.897   7.049  1.00  0.00     0.029 A 
ENDBRANCH  13  16
ENDBRANCH  10  12
BRANCH   9  22
HETATM   22  C   UNL     1      41.928 -13.176   3.442  1.00  0.00    -0.011 A 
HETATM   23  C   UNL     1      42.199 -11.972   2.795  1.00  0.00     0.125 A 
HETATM   24  N   UNL     1      41.254 -11.164   2.266  1.00  0.00    -0.272 NA
HETATM   25  C   UNL     1      39.971 -11.566   2.384  1.00  0.00     0.116 A 
HETATM   26  C   UNL     1      39.589 -12.736   3.016  1.00  0.00     0.020 A 
HETATM   27  C   UNL     1      40.582 -13.549   3.557  1.00  0.00     0.012 A 
ENDBRANCH   9  22
TORSDOF 3
ENDMDL
MODEL 7
REMARK VINA RESULT:      -7.2      2.365      5.304
REMARK  3 active torsions:
REMARK  status: ('A' for Active; 'I' for Inactive)
REMARK    1  A    between atoms: C_9  and  C_10 
REMARK    2  A    between atoms: C_16  and  C_17 
REMARK       I    between atoms: C_17  and  N_18 
REMARK    3  A    between atoms: N_18  and  C_19 
ROOT
HETATM    1  C   UNL     1      39.738 -10.415   5.920  1.00  0.00     0.070 C 
HETATM    2  C   UNL     1      41.043 -11.155   6.077  1.00  0.00     0.037 C 
HETATM    3  N   UNL     1      41.884 -10.683   7.082  1.00  0.00    -0.191 N 
HETATM    4  C   UNL     1      43.163 -11.088   7.217  1.00  0.00     0.735 A 
HETATM    5  N   UNL     1      43.636 -12.090   6.417  1.00  0.00    -0.092 N 
HETATM    6  N   UNL     1      44.941 -12.296   6.653  1.00  0.00     0.012 NA
HETATM    7  N   UNL     1      45.241 -11.445   7.630  1.00  0.00     0.033 NA
HETATM    8  N   UNL     1      44.142 -10.686   7.990  1.00  0.00     0.030 NA
HETATM    9  C   UNL     1      42.846 -12.795   5.412  1.00  0.00     0.199 C 
HETATM   10  C   UNL     1      41.457 -12.174   5.282  1.00  0.00     0.062 C 
HETATM   11  H   UNL     1      41.577  -9.867   7.608  1.00  0.00     0.184 HD
ENDROOT
BRANCH  10  12
HETATM   12  C   UNL     1      40.667 -12.720   4.145  1.00  0.00     0.256 C 
HETATM   13  N   UNL     1      41.356 -12.722   2.953  1.00  0.00    -0.323 N 
HETATM   14  H   UNL     1      42.303 -12.366   2.964  1.00  0.00     0.169 HD
HETATM   15  O   UNL     1      39.505 -13.046   4.348  1.00  0.00    -0.267 OA
BRANCH  13  16
HETATM   16  C   UNL     1      40.888 -13.161   1.696  1.00  0.00     0.035 A 
HETATM   17  C   UNL     1      40.712 -12.323   0.593  1.00  0.00     0.029 A 
HETATM   18  C   UNL     1      40.240 -12.838  -0.619  1.00  0.00     0.002 A 
HETATM   19  C   UNL     1      39.933 -14.191  -0.735  1.00  0.00     0.000 A 
HETATM   20  C   UNL     1      40.104 -15.035   0.358  1.00  0.00     0.002 A 
HETATM   21  C   UNL     1      40.583 -14.522   1.567  1.00  0.00     0.029 A 
ENDBRANCH  13  16
ENDBRANCH  10  12
BRANCH   9  22
HETATM   22  C   UNL     1      42.782 -14.278   5.733  1.00  0.00    -0.011 A 
HETATM   23  C   UNL     1      42.292 -14.702   6.966  1.00  0.00     0.125 A 
HETATM   24  N   UNL     1      42.210 -15.996   7.347  1.00  0.00    -0.272 NA
HETATM   25  C   UNL     1      42.635 -16.921   6.462  1.00  0.00     0.116 A 
HETATM   26  C   UNL     1      43.149 -16.611   5.216  1.00  0.00     0.020 A 
HETATM   27  C   UNL     1      43.228 -15.270   4.849  1.00  0.00     0.012 A 
ENDBRANCH   9  22
TORSDOF 3
ENDMDL
MODEL 8
REMARK VINA RESULT:      -6.8      7.997     10.868
REMARK  3 active torsions:
REMARK  status: ('A' for Active; 'I' for Inactive)
REMARK    1  A    between atoms: C_9  and  C_10 
REMARK    2  A    between atoms: C_16  and  C_17 
REMARK       I    between atoms: C_17  and  N_18 
REMARK    3  A    between atoms: N_18  and  C_19 
ROOT
HETATM    1  C   UNL     1      43.209  -7.118  14.255  1.00  0.00     0.070 C 
HETATM    2  C   UNL     1      41.758  -7.000  13.857  1.00  0.00     0.037 C 
HETATM    3  N   UNL     1      41.011  -6.073  14.580  1.00  0.00    -0.191 N 
HETATM    4  C   UNL     1      39.667  -5.993  14.499  1.00  0.00     0.735 A 
HETATM    5  N   UNL     1      39.005  -6.764  13.587  1.00  0.00    -0.092 N 
HETATM    6  N   UNL     1      37.679  -6.596  13.711  1.00  0.00     0.012 NA
HETATM    7  N   UNL     1      37.548  -5.685  14.672  1.00  0.00     0.033 NA
HETATM    8  N   UNL     1      38.779  -5.302  15.172  1.00  0.00     0.030 NA
HETATM    9  C   UNL     1      39.647  -7.682  12.650  1.00  0.00     0.199 C 
HETATM   10  C   UNL     1      41.149  -7.762  12.915  1.00  0.00     0.062 C 
HETATM   11  H   UNL     1      41.481  -5.574  15.333  1.00  0.00     0.184 HD
ENDROOT
BRANCH  10  12
HETATM   12  C   UNL     1      41.835  -8.820  12.123  1.00  0.00     0.256 C 
HETATM   13  N   UNL     1      42.593  -8.321  11.089  1.00  0.00    -0.323 N 
HETATM   14  H   UNL     1      42.614  -7.316  10.970  1.00  0.00     0.169 HD
HETATM   15  O   UNL     1      41.623  -9.990  12.410  1.00  0.00    -0.267 OA
BRANCH  13  16
HETATM   16  C   UNL     1      43.351  -9.056  10.153  1.00  0.00     0.035 A 
HETATM   17  C   UNL     1      42.877  -9.449   8.900  1.00  0.00     0.029 A 
HETATM   18  C   UNL     1      43.693 -10.180   8.031  1.00  0.00     0.002 A 
HETATM   19  C   UNL     1      44.986 -10.530   8.409  1.00  0.00     0.000 A 
HETATM   20  C   UNL     1      45.469 -10.145   9.656  1.00  0.00     0.002 A 
HETATM   21  C   UNL     1      44.656  -9.408  10.522  1.00  0.00     0.029 A 
ENDBRANCH  13  16
ENDBRANCH  10  12
BRANCH   9  22
HETATM   22  C   UNL     1      39.339  -7.279  11.219  1.00  0.00    -0.011 A 
HETATM   23  C   UNL     1      38.759  -8.200  10.348  1.00  0.00     0.125 A 
HETATM   24  N   UNL     1      38.461  -7.939   9.056  1.00  0.00    -0.272 NA
HETATM   25  C   UNL     1      38.751  -6.703   8.599  1.00  0.00     0.116 A 
HETATM   26  C   UNL     1      39.336  -5.716   9.374  1.00  0.00     0.020 A 
HETATM   27  C   UNL     1      39.639  -6.012  10.701  1.00  0.00     0.012 A 
ENDBRANCH   9  22
TORSDOF 3
ENDMDL
MODEL 9
REMARK VINA RESULT:      -6.8      2.773      3.887
REMARK  3 active torsions:
REMARK  status: ('A' for Active; 'I' for Inactive)
REMARK    1  A    between atoms: C_9  and  C_10 
REMARK    2  A    between atoms: C_16  and  C_17 
REMARK       I    between atoms: C_17  and  N_18 
REMARK    3  A    between atoms: N_18  and  C_19 
ROOT
HETATM    1  C   UNL     1      41.835 -10.813   3.869  1.00  0.00     0.070 C 
HETATM    2  C   UNL     1      40.801 -11.115   2.813  1.00  0.00     0.037 C 
HETATM    3  N   UNL     1      39.773 -10.183   2.697  1.00  0.00    -0.191 N 
HETATM    4  C   UNL     1      38.665 -10.402   1.959  1.00  0.00     0.735 A 
HETATM    5  N   UNL     1      38.584 -11.530   1.193  1.00  0.00    -0.092 N 
HETATM    6  N   UNL     1      37.385 -11.602   0.596  1.00  0.00     0.012 NA
HETATM    7  N   UNL     1      36.760 -10.489   0.971  1.00  0.00     0.033 NA
HETATM    8  N   UNL     1      37.547  -9.733   1.821  1.00  0.00     0.030 NA
HETATM    9  C   UNL     1      39.634 -12.540   1.085  1.00  0.00     0.199 C 
HETATM   10  C   UNL     1      40.781 -12.233   2.045  1.00  0.00     0.062 C 
HETATM   11  H   UNL     1      39.775  -9.395   3.342  1.00  0.00     0.184 HD
ENDROOT
BRANCH  10  12
HETATM   12  C   UNL     1      41.795 -13.320   2.125  1.00  0.00     0.256 C 
HETATM   13  N   UNL     1      41.336 -14.447   2.768  1.00  0.00    -0.323 N 
HETATM   14  H   UNL     1      40.385 -14.431   3.113  1.00  0.00     0.169 HD
HETATM   15  O   UNL     1      42.916 -13.101   1.687  1.00  0.00    -0.267 OA
BRANCH  13  16
HETATM   16  C   UNL     1      42.050 -15.639   3.017  1.00  0.00     0.035 A 
HETATM   17  C   UNL     1      42.035 -16.749   2.171  1.00  0.00     0.029 A 
HETATM   18  C   UNL     1      42.770 -17.895   2.493  1.00  0.00     0.002 A 
HETATM   19  C   UNL     1      43.518 -17.943   3.666  1.00  0.00     0.000 A 
HETATM   20  C   UNL     1      43.540 -16.842   4.518  1.00  0.00     0.002 A 
HETATM   21  C   UNL     1      42.812 -15.694   4.192  1.00  0.00     0.029 A 
ENDBRANCH  13  16
ENDBRANCH  10  12
BRANCH   9  22
HETATM   22  C   UNL     1      40.107 -12.660  -0.353  1.00  0.00    -0.011 A 
HETATM   23  C   UNL     1      40.784 -11.600  -0.953  1.00  0.00     0.125 A 
HETATM   24  N   UNL     1      41.230 -11.608  -2.228  1.00  0.00    -0.272 NA
HETATM   25  C   UNL     1      40.996 -12.723  -2.950  1.00  0.00     0.116 A 
HETATM   26  C   UNL     1      40.325 -13.829  -2.458  1.00  0.00     0.020 A 
HETATM   27  C   UNL     1      39.871 -13.794  -1.142  1.00  0.00     0.012 A 
ENDBRANCH   9  22
TORSDOF 3
ENDMDL
MODEL 10
REMARK VINA RESULT:      -6.7     22.067     23.911
REMARK  3 active torsions:
REMARK  status: ('A' for Active; 'I' for Inactive)
REMARK    1  A    between atoms: C_9  and  C_10 
REMARK    2  A    between atoms: C_16  and  C_17 
REMARK       I    between atoms: C_17  and  N_18 
REMARK    3  A    between atoms: N_18  and  C_19 
ROOT
HETATM    1  C   UNL     1      28.374 -32.790  16.920  1.00  0.00     0.070 C 
HETATM    2  C   UNL     1      29.521 -32.119  17.635  1.00  0.00     0.037 C 
HETATM    3  N   UNL     1      29.407 -32.053  19.021  1.00  0.00    -0.191 N 
HETATM    4  C   UNL     1      30.230 -31.308  19.789  1.00  0.00     0.735 A 
HETATM    5  N   UNL     1      31.297 -30.680  19.212  1.00  0.00    -0.092 N 
HETATM    6  N   UNL     1      31.945 -29.936  20.121  1.00  0.00     0.012 NA
HETATM    7  N   UNL     1      31.291 -30.155  21.258  1.00  0.00     0.033 NA
HETATM    8  N   UNL     1      30.219 -31.008  21.065  1.00  0.00     0.030 NA
HETATM    9  C   UNL     1      31.646 -30.764  17.796  1.00  0.00     0.199 C 
HETATM   10  C   UNL     1      30.584 -31.540  17.022  1.00  0.00     0.062 C 
HETATM   11  H   UNL     1      28.560 -32.427  19.443  1.00  0.00     0.184 HD
ENDROOT
BRANCH  10  12
HETATM   12  C   UNL     1      30.779 -31.501  15.546  1.00  0.00     0.256 C 
HETATM   13  N   UNL     1      31.033 -32.737  14.997  1.00  0.00    -0.323 N 
HETATM   14  H   UNL     1      31.061 -33.528  15.626  1.00  0.00     0.169 HD
HETATM   15  O   UNL     1      30.759 -30.413  14.987  1.00  0.00    -0.267 OA
BRANCH  13  16
HETATM   16  C   UNL     1      31.274 -33.035  13.639  1.00  0.00     0.035 A 
HETATM   17  C   UNL     1      32.547 -33.202  13.089  1.00  0.00     0.029 A 
HETATM   18  C   UNL     1      32.698 -33.494  11.730  1.00  0.00     0.002 A 
HETATM   19  C   UNL     1      31.581 -33.613  10.908  1.00  0.00     0.000 A 
HETATM   20  C   UNL     1      30.308 -33.448  11.445  1.00  0.00     0.002 A 
HETATM   21  C   UNL     1      30.155 -33.164  12.805  1.00  0.00     0.029 A 
ENDBRANCH  13  16
ENDBRANCH  10  12
BRANCH   9  22
HETATM   22  C   UNL     1      33.031 -31.362  17.627  1.00  0.00    -0.011 A 
HETATM   23  C   UNL     1      34.046 -30.610  17.040  1.00  0.00     0.125 A 
HETATM   24  N   UNL     1      35.304 -31.060  16.835  1.00  0.00    -0.272 NA
HETATM   25  C   UNL     1      35.573 -32.321  17.231  1.00  0.00     0.116 A 
HETATM   26  C   UNL     1      34.639 -33.159  17.815  1.00  0.00     0.020 A 
HETATM   27  C   UNL     1      33.349 -32.673  18.010  1.00  0.00     0.012 A 
ENDBRANCH   9  22
TORSDOF 3
ENDMDL
