MODEL 1
REMARK VINA RESULT:      -7.3      0.000      0.000
REMARK  8 active torsions:
REMARK  status: ('A' for Active; 'I' for Inactive)
REMARK    1  A    between atoms: C_4  and  O_5 
REMARK    2  A    between atoms: O_5  and  C_6 
REMARK    3  A    between atoms: C_6  and  C_7 
REMARK    4  A    between atoms: C_7  and  N_8 
REMARK    5  A    between atoms: N_8  and  C_9 
REMARK    6  A    between atoms: C_10  and  C_11 
REMARK       I    between atoms: C_11  and  N_12 
REMARK    7  A    between atoms: N_12  and  C_13 
REMARK    8  A    between atoms: C_13  and  C_14 
ROOT
HETATM    1  C   UNL     1      41.472 -14.093   6.251  1.00  0.00     0.024 A 
HETATM    2  C   UNL     1      42.846 -14.019   5.934  1.00  0.00     0.053 A 
HETATM    3  C   UNL     1      43.601 -15.199   5.797  1.00  0.00     0.019 A 
HETATM    4  C   UNL     1      43.017 -16.448   5.998  1.00  0.00     0.001 A 
HETATM    5  C   UNL     1      41.673 -16.532   6.343  1.00  0.00     0.002 A 
HETATM    6  C   UNL     1      40.909 -15.367   6.464  1.00  0.00     0.024 A 
ENDROOT
BRANCH   1   7
HETATM    7  N   UNL     1      40.602 -12.978   6.295  1.00  0.00    -0.290 NA
HETATM    8  H   UNL     1      40.169 -12.885   7.213  1.00  0.00     0.127 HD
BRANCH   7   9
HETATM    9  C   UNL     1      39.574 -12.934   5.233  1.00  0.00     0.119 C 
BRANCH   9  10
HETATM   10  C   UNL     1      40.151 -12.762   3.821  1.00  0.00     0.190 C 
BRANCH  10  11
HETATM   11  O   UNL     1      39.965 -13.947   3.043  1.00  0.00    -0.350 OA
BRANCH  11  12
HETATM   12  C   UNL     1      41.074 -14.674   2.705  1.00  0.00     0.068 A 
HETATM   13  C   UNL     1      42.301 -14.161   2.281  1.00  0.00     0.037 A 
HETATM   14  C   UNL     1      43.348 -15.027   1.951  1.00  0.00     0.003 A 
HETATM   15  C   UNL     1      43.177 -16.407   2.046  1.00  0.00     0.000 A 
HETATM   16  C   UNL     1      41.954 -16.924   2.462  1.00  0.00     0.003 A 
HETATM   17  C   UNL     1      40.907 -16.059   2.785  1.00  0.00     0.037 A 
ENDBRANCH  11  12
ENDBRANCH  10  11
ENDBRANCH   9  10
ENDBRANCH   7   9
ENDBRANCH   1   7
BRANCH   2  18
HETATM   18  C   UNL     1      43.610 -12.744   5.790  1.00  0.00     0.253 C 
HETATM   19  N   UNL     1      44.678 -12.579   6.634  1.00  0.00    -0.351 N 
HETATM   20  H   UNL     1      44.878 -13.310   7.313  1.00  0.00     0.163 HD
HETATM   21  O   UNL     1      43.299 -11.926   4.931  1.00  0.00    -0.268 OA
BRANCH  19  22
HETATM   22  C   UNL     1      45.574 -11.457   6.517  1.00  0.00     0.187 C 
BRANCH  22  23
HETATM   23  C   UNL     1      45.495 -10.649   7.757  1.00  0.00     0.070 A 
HETATM   24  O   UNL     1      44.657 -11.104   8.734  1.00  0.00    -0.325 OA
HETATM   25  C   UNL     1      44.737 -10.226   9.766  1.00  0.00     0.142 A 
HETATM   26  C   UNL     1      45.612  -9.209   9.465  1.00  0.00     0.027 A 
HETATM   27  C   UNL     1      46.101  -9.479   8.165  1.00  0.00     0.036 A 
ENDBRANCH  22  23
ENDBRANCH  19  22
ENDBRANCH   2  18
TORSDOF 8
ENDMDL
MODEL 2
REMARK VINA RESULT:      -6.8      1.488      2.676
REMARK  8 active torsions:
REMARK  status: ('A' for Active; 'I' for Inactive)
REMARK    1  A    between atoms: C_4  and  O_5 
REMARK    2  A    between atoms: O_5  and  C_6 
REMARK    3  A    between atoms: C_6  and  C_7 
REMARK    4  A    between atoms: C_7  and  N_8 
REMARK    5  A    between atoms: N_8  and  C_9 
REMARK    6  A    between atoms: C_10  and  C_11 
REMARK       I    between atoms: C_11  and  N_12 
REMARK    7  A    between atoms: N_12  and  C_13 
REMARK    8  A    between atoms: C_13  and  C_14 
ROOT
HETATM    1  C   UNL     1      41.583 -12.547   5.060  1.00  0.00     0.024 A 
HETATM    2  C   UNL     1      42.934 -12.184   4.866  1.00  0.00     0.053 A 
HETATM    3  C   UNL     1      43.359 -11.703   3.613  1.00  0.00     0.019 A 
HETATM    4  C   UNL     1      42.470 -11.605   2.546  1.00  0.00     0.001 A 
HETATM    5  C   UNL     1      41.145 -11.990   2.717  1.00  0.00     0.002 A 
HETATM    6  C   UNL     1      40.707 -12.453   3.961  1.00  0.00     0.024 A 
ENDROOT
BRANCH   1   7
HETATM    7  N   UNL     1      41.031 -12.928   6.306  1.00  0.00    -0.290 NA
HETATM    8  H   UNL     1      41.737 -12.913   7.042  1.00  0.00     0.127 HD
BRANCH   7   9
HETATM    9  C   UNL     1      40.309 -14.218   6.311  1.00  0.00     0.119 C 
BRANCH   9  10
HETATM   10  C   UNL     1      41.233 -15.443   6.372  1.00  0.00     0.190 C 
BRANCH  10  11
HETATM   11  O   UNL     1      40.938 -16.362   5.318  1.00  0.00    -0.350 OA
BRANCH  11  12
HETATM   12  C   UNL     1      41.347 -16.040   4.053  1.00  0.00     0.068 A 
HETATM   13  C   UNL     1      40.540 -15.959   2.918  1.00  0.00     0.037 A 
HETATM   14  C   UNL     1      41.100 -15.633   1.679  1.00  0.00     0.003 A 
HETATM   15  C   UNL     1      42.467 -15.384   1.568  1.00  0.00     0.000 A 
HETATM   16  C   UNL     1      43.278 -15.469   2.695  1.00  0.00     0.003 A 
HETATM   17  C   UNL     1      42.719 -15.801   3.931  1.00  0.00     0.037 A 
ENDBRANCH  11  12
ENDBRANCH  10  11
ENDBRANCH   9  10
ENDBRANCH   7   9
ENDBRANCH   1   7
BRANCH   2  18
HETATM   18  C   UNL     1      44.004 -12.334   5.897  1.00  0.00     0.253 C 
HETATM   19  N   UNL     1      44.790 -11.234   6.119  1.00  0.00    -0.351 N 
HETATM   20  H   UNL     1      44.621 -10.397   5.566  1.00  0.00     0.163 HD
HETATM   21  O   UNL     1      44.123 -13.383   6.521  1.00  0.00    -0.268 OA
BRANCH  19  22
HETATM   22  C   UNL     1      45.773 -11.201   7.171  1.00  0.00     0.187 C 
BRANCH  22  23
HETATM   23  C   UNL     1      45.200 -10.493   8.340  1.00  0.00     0.070 A 
HETATM   24  O   UNL     1      44.347 -11.207   9.133  1.00  0.00    -0.325 OA
HETATM   25  C   UNL     1      43.946 -10.378  10.130  1.00  0.00     0.142 A 
HETATM   26  C   UNL     1      44.525  -9.139   9.989  1.00  0.00     0.027 A 
HETATM   27  C   UNL     1      45.334  -9.211   8.831  1.00  0.00     0.036 A 
ENDBRANCH  22  23
ENDBRANCH  19  22
ENDBRANCH   2  18
TORSDOF 8
ENDMDL
MODEL 3
REMARK VINA RESULT:      -6.7      3.295      7.330
REMARK  8 active torsions:
REMARK  status: ('A' for Active; 'I' for Inactive)
REMARK    1  A    between atoms: C_4  and  O_5 
REMARK    2  A    between atoms: O_5  and  C_6 
REMARK    3  A    between atoms: C_6  and  C_7 
REMARK    4  A    between atoms: C_7  and  N_8 
REMARK    5  A    between atoms: N_8  and  C_9 
REMARK    6  A    between atoms: C_10  and  C_11 
REMARK       I    between atoms: C_11  and  N_12 
REMARK    7  A    between atoms: N_12  and  C_13 
REMARK    8  A    between atoms: C_13  and  C_14 
ROOT
HETATM    1  C   UNL     1      41.224 -16.069   3.551  1.00  0.00     0.024 A 
HETATM    2  C   UNL     1      41.256 -15.369   2.324  1.00  0.00     0.053 A 
HETATM    3  C   UNL     1      42.330 -15.559   1.435  1.00  0.00     0.019 A 
HETATM    4  C   UNL     1      43.385 -16.410   1.759  1.00  0.00     0.001 A 
HETATM    5  C   UNL     1      43.380 -17.078   2.978  1.00  0.00     0.002 A 
HETATM    6  C   UNL     1      42.310 -16.911   3.862  1.00  0.00     0.024 A 
ENDROOT
BRANCH   1   7
HETATM    7  N   UNL     1      40.139 -16.039   4.458  1.00  0.00    -0.290 NA
HETATM    8  H   UNL     1      39.407 -15.406   4.137  1.00  0.00     0.127 HD
BRANCH   7   9
HETATM    9  C   UNL     1      40.495 -15.744   5.863  1.00  0.00     0.119 C 
BRANCH   9  10
HETATM   10  C   UNL     1      40.362 -14.261   6.236  1.00  0.00     0.190 C 
BRANCH  10  11
HETATM   11  O   UNL     1      41.622 -13.593   6.142  1.00  0.00    -0.350 OA
BRANCH  11  12
HETATM   12  C   UNL     1      41.858 -12.819   5.038  1.00  0.00     0.068 A 
HETATM   13  C   UNL     1      40.998 -11.861   4.502  1.00  0.00     0.037 A 
HETATM   14  C   UNL     1      41.365 -11.151   3.354  1.00  0.00     0.003 A 
HETATM   15  C   UNL     1      42.592 -11.394   2.738  1.00  0.00     0.000 A 
HETATM   16  C   UNL     1      43.451 -12.353   3.265  1.00  0.00     0.003 A 
HETATM   17  C   UNL     1      43.081 -13.066   4.408  1.00  0.00     0.037 A 
ENDBRANCH  11  12
ENDBRANCH  10  11
ENDBRANCH   9  10
ENDBRANCH   7   9
ENDBRANCH   1   7
BRANCH   2  18
HETATM   18  C   UNL     1      40.241 -14.359   1.905  1.00  0.00     0.253 C 
HETATM   19  N   UNL     1      40.482 -13.712   0.720  1.00  0.00    -0.351 N 
HETATM   20  H   UNL     1      41.334 -13.936   0.211  1.00  0.00     0.163 HD
HETATM   21  O   UNL     1      39.237 -14.167   2.582  1.00  0.00    -0.268 OA
BRANCH  19  22
HETATM   22  C   UNL     1      39.525 -12.809   0.137  1.00  0.00     0.187 C 
BRANCH  22  23
HETATM   23  C   UNL     1      38.985 -13.417  -1.102  1.00  0.00     0.070 A 
HETATM   24  O   UNL     1      37.871 -12.835  -1.637  1.00  0.00    -0.325 OA
HETATM   25  C   UNL     1      37.551 -13.541  -2.752  1.00  0.00     0.142 A 
HETATM   26  C   UNL     1      38.440 -14.573  -2.939  1.00  0.00     0.027 A 
HETATM   27  C   UNL     1      39.366 -14.496  -1.873  1.00  0.00     0.036 A 
ENDBRANCH  22  23
ENDBRANCH  19  22
ENDBRANCH   2  18
TORSDOF 8
ENDMDL
MODEL 4
REMARK VINA RESULT:      -6.7      1.843      2.601
REMARK  8 active torsions:
REMARK  status: ('A' for Active; 'I' for Inactive)
REMARK    1  A    between atoms: C_4  and  O_5 
REMARK    2  A    between atoms: O_5  and  C_6 
REMARK    3  A    between atoms: C_6  and  C_7 
REMARK    4  A    between atoms: C_7  and  N_8 
REMARK    5  A    between atoms: N_8  and  C_9 
REMARK    6  A    between atoms: C_10  and  C_11 
REMARK       I    between atoms: C_11  and  N_12 
REMARK    7  A    between atoms: N_12  and  C_13 
REMARK    8  A    between atoms: C_13  and  C_14 
ROOT
HETATM    1  C   UNL     1      41.703 -14.321   4.920  1.00  0.00     0.024 A 
HETATM    2  C   UNL     1      42.749 -13.987   5.810  1.00  0.00     0.053 A 
HETATM    3  C   UNL     1      42.962 -14.762   6.965  1.00  0.00     0.019 A 
HETATM    4  C   UNL     1      42.135 -15.843   7.263  1.00  0.00     0.001 A 
HETATM    5  C   UNL     1      41.083 -16.160   6.412  1.00  0.00     0.002 A 
HETATM    6  C   UNL     1      40.872 -15.409   5.252  1.00  0.00     0.024 A 
ENDROOT
BRANCH   1   7
HETATM    7  N   UNL     1      41.479 -13.682   3.678  1.00  0.00    -0.290 NA
HETATM    8  H   UNL     1      40.583 -13.195   3.670  1.00  0.00     0.127 HD
BRANCH   7   9
HETATM    9  C   UNL     1      41.604 -14.550   2.487  1.00  0.00     0.119 C 
BRANCH   9  10
HETATM   10  C   UNL     1      43.007 -15.143   2.299  1.00  0.00     0.190 C 
BRANCH  10  11
HETATM   11  O   UNL     1      42.936 -16.510   1.888  1.00  0.00    -0.350 OA
BRANCH  11  12
HETATM   12  C   UNL     1      43.340 -17.469   2.775  1.00  0.00     0.068 A 
HETATM   13  C   UNL     1      43.770 -17.255   4.085  1.00  0.00     0.037 A 
HETATM   14  C   UNL     1      44.171 -18.335   4.878  1.00  0.00     0.003 A 
HETATM   15  C   UNL     1      44.143 -19.632   4.369  1.00  0.00     0.000 A 
HETATM   16  C   UNL     1      43.720 -19.851   3.061  1.00  0.00     0.003 A 
HETATM   17  C   UNL     1      43.326 -18.772   2.268  1.00  0.00     0.037 A 
ENDBRANCH  11  12
ENDBRANCH  10  11
ENDBRANCH   9  10
ENDBRANCH   7   9
ENDBRANCH   1   7
BRANCH   2  18
HETATM   18  C   UNL     1      43.639 -12.799   5.655  1.00  0.00     0.253 C 
HETATM   19  N   UNL     1      44.533 -12.576   6.670  1.00  0.00    -0.351 N 
HETATM   20  H   UNL     1      44.529 -13.206   7.468  1.00  0.00     0.163 HD
HETATM   21  O   UNL     1      43.578 -12.103   4.648  1.00  0.00    -0.268 OA
BRANCH  19  22
HETATM   22  C   UNL     1      45.534 -11.543   6.590  1.00  0.00     0.187 C 
BRANCH  22  23
HETATM   23  C   UNL     1      45.363 -10.619   7.736  1.00  0.00     0.070 A 
HETATM   24  O   UNL     1      46.033  -9.431   7.672  1.00  0.00    -0.325 OA
HETATM   25  C   UNL     1      45.739  -8.748   8.808  1.00  0.00     0.142 A 
HETATM   26  C   UNL     1      44.892  -9.482   9.605  1.00  0.00     0.027 A 
HETATM   27  C   UNL     1      44.650 -10.693   8.915  1.00  0.00     0.036 A 
ENDBRANCH  22  23
ENDBRANCH  19  22
ENDBRANCH   2  18
TORSDOF 8
ENDMDL
MODEL 5
REMARK VINA RESULT:      -6.6      2.423      4.074
REMARK  8 active torsions:
REMARK  status: ('A' for Active; 'I' for Inactive)
REMARK    1  A    between atoms: C_4  and  O_5 
REMARK    2  A    between atoms: O_5  and  C_6 
REMARK    3  A    between atoms: C_6  and  C_7 
REMARK    4  A    between atoms: C_7  and  N_8 
REMARK    5  A    between atoms: N_8  and  C_9 
REMARK    6  A    between atoms: C_10  and  C_11 
REMARK       I    between atoms: C_11  and  N_12 
REMARK    7  A    between atoms: N_12  and  C_13 
REMARK    8  A    between atoms: C_13  and  C_14 
ROOT
HETATM    1  C   UNL     1      40.888 -14.654   3.042  1.00  0.00     0.024 A 
HETATM    2  C   UNL     1      41.316 -13.636   2.161  1.00  0.00     0.053 A 
HETATM    3  C   UNL     1      40.998 -13.713   0.792  1.00  0.00     0.019 A 
HETATM    4  C   UNL     1      40.288 -14.798   0.283  1.00  0.00     0.001 A 
HETATM    5  C   UNL     1      39.891 -15.821   1.136  1.00  0.00     0.002 A 
HETATM    6  C   UNL     1      40.186 -15.747   2.500  1.00  0.00     0.024 A 
ENDROOT
BRANCH   1   7
HETATM    7  N   UNL     1      41.053 -14.613   4.447  1.00  0.00    -0.290 NA
HETATM    8  H   UNL     1      41.833 -14.012   4.710  1.00  0.00     0.127 HD
BRANCH   7   9
HETATM    9  C   UNL     1      41.172 -15.930   5.109  1.00  0.00     0.119 C 
BRANCH   9  10
HETATM   10  C   UNL     1      42.591 -16.247   5.603  1.00  0.00     0.190 C 
BRANCH  10  11
HETATM   11  O   UNL     1      43.486 -16.434   4.505  1.00  0.00    -0.350 OA
BRANCH  11  12
HETATM   12  C   UNL     1      43.541 -17.671   3.924  1.00  0.00     0.068 A 
HETATM   13  C   UNL     1      43.110 -18.000   2.638  1.00  0.00     0.037 A 
HETATM   14  C   UNL     1      43.214 -19.317   2.178  1.00  0.00     0.003 A 
HETATM   15  C   UNL     1      43.749 -20.309   2.998  1.00  0.00     0.000 A 
HETATM   16  C   UNL     1      44.174 -19.988   4.283  1.00  0.00     0.003 A 
HETATM   17  C   UNL     1      44.065 -18.675   4.744  1.00  0.00     0.037 A 
ENDBRANCH  11  12
ENDBRANCH  10  11
ENDBRANCH   9  10
ENDBRANCH   7   9
ENDBRANCH   1   7
BRANCH   2  18
HETATM   18  C   UNL     1      42.163 -12.475   2.563  1.00  0.00     0.253 C 
HETATM   19  N   UNL     1      43.208 -12.750   3.408  1.00  0.00    -0.351 N 
HETATM   20  H   UNL     1      43.335 -13.708   3.726  1.00  0.00     0.163 HD
HETATM   21  O   UNL     1      41.937 -11.355   2.117  1.00  0.00    -0.268 OA
BRANCH  19  22
HETATM   22  C   UNL     1      44.176 -11.748   3.772  1.00  0.00     0.187 C 
BRANCH  22  23
HETATM   23  C   UNL     1      44.057 -11.471   5.223  1.00  0.00     0.070 A 
HETATM   24  O   UNL     1      45.164 -11.709   5.987  1.00  0.00    -0.325 OA
HETATM   25  C   UNL     1      44.838 -11.392   7.266  1.00  0.00     0.142 A 
HETATM   26  C   UNL     1      43.535 -10.958   7.338  1.00  0.00     0.027 A 
HETATM   27  C   UNL     1      43.028 -11.010   6.018  1.00  0.00     0.036 A 
ENDBRANCH  22  23
ENDBRANCH  19  22
ENDBRANCH   2  18
TORSDOF 8
ENDMDL
MODEL 6
REMARK VINA RESULT:      -6.6      1.750      3.415
REMARK  8 active torsions:
REMARK  status: ('A' for Active; 'I' for Inactive)
REMARK    1  A    between atoms: C_4  and  O_5 
REMARK    2  A    between atoms: O_5  and  C_6 
REMARK    3  A    between atoms: C_6  and  C_7 
REMARK    4  A    between atoms: C_7  and  N_8 
REMARK    5  A    between atoms: N_8  and  C_9 
REMARK    6  A    between atoms: C_10  and  C_11 
REMARK       I    between atoms: C_11  and  N_12 
REMARK    7  A    between atoms: N_12  and  C_13 
REMARK    8  A    between atoms: C_13  and  C_14 
ROOT
HETATM    1  C   UNL     1      41.281 -15.108   3.435  1.00  0.00     0.024 A 
HETATM    2  C   UNL     1      42.375 -14.405   2.883  1.00  0.00     0.053 A 
HETATM    3  C   UNL     1      43.339 -15.091   2.120  1.00  0.00     0.019 A 
HETATM    4  C   UNL     1      43.247 -16.467   1.923  1.00  0.00     0.001 A 
HETATM    5  C   UNL     1      42.193 -17.174   2.490  1.00  0.00     0.002 A 
HETATM    6  C   UNL     1      41.221 -16.501   3.234  1.00  0.00     0.024 A 
ENDROOT
BRANCH   1   7
HETATM    7  N   UNL     1      40.201 -14.497   4.115  1.00  0.00    -0.290 NA
HETATM    8  H   UNL     1      39.919 -13.632   3.655  1.00  0.00     0.127 HD
BRANCH   7   9
HETATM    9  C   UNL     1      40.411 -14.267   5.561  1.00  0.00     0.119 C 
BRANCH   9  10
HETATM   10  C   UNL     1      40.161 -15.511   6.426  1.00  0.00     0.190 C 
BRANCH  10  11
HETATM   11  O   UNL     1      41.251 -15.740   7.322  1.00  0.00    -0.350 OA
BRANCH  11  12
HETATM   12  C   UNL     1      42.457 -16.100   6.787  1.00  0.00     0.068 A 
HETATM   13  C   UNL     1      43.578 -15.280   6.650  1.00  0.00     0.037 A 
HETATM   14  C   UNL     1      44.747 -15.781   6.066  1.00  0.00     0.003 A 
HETATM   15  C   UNL     1      44.802 -17.100   5.620  1.00  0.00     0.000 A 
HETATM   16  C   UNL     1      43.686 -17.920   5.749  1.00  0.00     0.003 A 
HETATM   17  C   UNL     1      42.517 -17.418   6.326  1.00  0.00     0.037 A 
ENDBRANCH  11  12
ENDBRANCH  10  11
ENDBRANCH   9  10
ENDBRANCH   7   9
ENDBRANCH   1   7
BRANCH   2  18
HETATM   18  C   UNL     1      42.639 -12.952   3.102  1.00  0.00     0.253 C 
HETATM   19  N   UNL     1      43.311 -12.625   4.252  1.00  0.00    -0.351 N 
HETATM   20  H   UNL     1      43.571 -13.372   4.892  1.00  0.00     0.163 HD
HETATM   21  O   UNL     1      42.297 -12.124   2.265  1.00  0.00    -0.268 OA
BRANCH  19  22
HETATM   22  C   UNL     1      43.741 -11.278   4.525  1.00  0.00     0.187 C 
BRANCH  22  23
HETATM   23  C   UNL     1      44.294 -11.219   5.899  1.00  0.00     0.070 A 
HETATM   24  O   UNL     1      43.391 -11.134   6.920  1.00  0.00    -0.325 OA
HETATM   25  C   UNL     1      44.103 -11.093   8.076  1.00  0.00     0.142 A 
HETATM   26  C   UNL     1      45.451 -11.145   7.812  1.00  0.00     0.027 A 
HETATM   27  C   UNL     1      45.577 -11.225   6.405  1.00  0.00     0.036 A 
ENDBRANCH  22  23
ENDBRANCH  19  22
ENDBRANCH   2  18
TORSDOF 8
ENDMDL
MODEL 7
REMARK VINA RESULT:      -6.5      3.326      5.030
REMARK  8 active torsions:
REMARK  status: ('A' for Active; 'I' for Inactive)
REMARK    1  A    between atoms: C_4  and  O_5 
REMARK    2  A    between atoms: O_5  and  C_6 
REMARK    3  A    between atoms: C_6  and  C_7 
REMARK    4  A    between atoms: C_7  and  N_8 
REMARK    5  A    between atoms: N_8  and  C_9 
REMARK    6  A    between atoms: C_10  and  C_11 
REMARK       I    between atoms: C_11  and  N_12 
REMARK    7  A    between atoms: N_12  and  C_13 
REMARK    8  A    between atoms: C_13  and  C_14 
ROOT
HETATM    1  C   UNL     1      43.624 -18.422   3.452  1.00  0.00     0.024 A 
HETATM    2  C   UNL     1      43.819 -18.482   4.850  1.00  0.00     0.053 A 
HETATM    3  C   UNL     1      44.045 -19.723   5.475  1.00  0.00     0.019 A 
HETATM    4  C   UNL     1      44.051 -20.905   4.737  1.00  0.00     0.001 A 
HETATM    5  C   UNL     1      43.827 -20.860   3.366  1.00  0.00     0.002 A 
HETATM    6  C   UNL     1      43.619 -19.633   2.732  1.00  0.00     0.024 A 
ENDROOT
BRANCH   1   7
HETATM    7  N   UNL     1      43.507 -17.221   2.715  1.00  0.00    -0.290 NA
HETATM    8  H   UNL     1      43.851 -16.424   3.250  1.00  0.00     0.127 HD
BRANCH   7   9
HETATM    9  C   UNL     1      42.159 -16.936   2.176  1.00  0.00     0.119 C 
BRANCH   9  10
HETATM   10  C   UNL     1      41.277 -16.111   3.124  1.00  0.00     0.190 C 
BRANCH  10  11
HETATM   11  O   UNL     1      40.138 -15.586   2.438  1.00  0.00    -0.350 OA
BRANCH  11  12
HETATM   12  C   UNL     1      40.345 -14.607   1.505  1.00  0.00     0.068 A 
HETATM   13  C   UNL     1      40.892 -13.345   1.738  1.00  0.00     0.037 A 
HETATM   14  C   UNL     1      41.032 -12.435   0.686  1.00  0.00     0.003 A 
HETATM   15  C   UNL     1      40.629 -12.781  -0.603  1.00  0.00     0.000 A 
HETATM   16  C   UNL     1      40.077 -14.036  -0.840  1.00  0.00     0.003 A 
HETATM   17  C   UNL     1      39.932 -14.942   0.212  1.00  0.00     0.037 A 
ENDBRANCH  11  12
ENDBRANCH  10  11
ENDBRANCH   9  10
ENDBRANCH   7   9
ENDBRANCH   1   7
BRANCH   2  18
HETATM   18  C   UNL     1      43.739 -17.304   5.763  1.00  0.00     0.253 C 
HETATM   19  N   UNL     1      42.505 -17.033   6.296  1.00  0.00    -0.351 N 
HETATM   20  H   UNL     1      41.721 -17.624   6.030  1.00  0.00     0.163 HD
HETATM   21  O   UNL     1      44.745 -16.657   6.034  1.00  0.00    -0.268 OA
BRANCH  19  22
HETATM   22  C   UNL     1      42.313 -16.007   7.288  1.00  0.00     0.187 C 
BRANCH  22  23
HETATM   23  C   UNL     1      41.789 -14.790   6.623  1.00  0.00     0.070 A 
HETATM   24  O   UNL     1      40.432 -14.690   6.504  1.00  0.00    -0.325 OA
HETATM   25  C   UNL     1      40.174 -13.516   5.875  1.00  0.00     0.142 A 
HETATM   26  C   UNL     1      41.346 -12.859   5.582  1.00  0.00     0.027 A 
HETATM   27  C   UNL     1      42.392 -13.682   6.063  1.00  0.00     0.036 A 
ENDBRANCH  22  23
ENDBRANCH  19  22
ENDBRANCH   2  18
TORSDOF 8
ENDMDL
MODEL 8
REMARK VINA RESULT:      -6.5      2.588      6.759
REMARK  8 active torsions:
REMARK  status: ('A' for Active; 'I' for Inactive)
REMARK    1  A    between atoms: C_4  and  O_5 
REMARK    2  A    between atoms: O_5  and  C_6 
REMARK    3  A    between atoms: C_6  and  C_7 
REMARK    4  A    between atoms: C_7  and  N_8 
REMARK    5  A    between atoms: N_8  and  C_9 
REMARK    6  A    between atoms: C_10  and  C_11 
REMARK       I    between atoms: C_11  and  N_12 
REMARK    7  A    between atoms: N_12  and  C_13 
REMARK    8  A    between atoms: C_13  and  C_14 
ROOT
HETATM    1  C   UNL     1      43.583 -17.336   4.302  1.00  0.00     0.024 A 
HETATM    2  C   UNL     1      42.702 -17.021   3.243  1.00  0.00     0.053 A 
HETATM    3  C   UNL     1      42.504 -17.942   2.197  1.00  0.00     0.019 A 
HETATM    4  C   UNL     1      43.189 -19.154   2.172  1.00  0.00     0.001 A 
HETATM    5  C   UNL     1      44.084 -19.460   3.192  1.00  0.00     0.002 A 
HETATM    6  C   UNL     1      44.275 -18.562   4.245  1.00  0.00     0.024 A 
ENDROOT
BRANCH   1   7
HETATM    7  N   UNL     1      43.763 -16.536   5.455  1.00  0.00    -0.290 NA
HETATM    8  H   UNL     1      44.715 -16.611   5.811  1.00  0.00     0.127 HD
BRANCH   7   9
HETATM    9  C   UNL     1      42.786 -16.762   6.542  1.00  0.00     0.119 C 
BRANCH   9  10
HETATM   10  C   UNL     1      42.519 -15.518   7.401  1.00  0.00     0.190 C 
BRANCH  10  11
HETATM   11  O   UNL     1      41.914 -14.480   6.628  1.00  0.00    -0.350 OA
BRANCH  11  12
HETATM   12  C   UNL     1      42.692 -13.417   6.258  1.00  0.00     0.068 A 
HETATM   13  C   UNL     1      42.416 -12.504   5.240  1.00  0.00     0.037 A 
HETATM   14  C   UNL     1      43.315 -11.470   4.960  1.00  0.00     0.003 A 
HETATM   15  C   UNL     1      44.492 -11.342   5.697  1.00  0.00     0.000 A 
HETATM   16  C   UNL     1      44.775 -12.253   6.709  1.00  0.00     0.003 A 
HETATM   17  C   UNL     1      43.880 -13.289   6.983  1.00  0.00     0.037 A 
ENDBRANCH  11  12
ENDBRANCH  10  11
ENDBRANCH   9  10
ENDBRANCH   7   9
ENDBRANCH   1   7
BRANCH   2  18
HETATM   18  C   UNL     1      41.985 -15.720   3.103  1.00  0.00     0.253 C 
HETATM   19  N   UNL     1      42.460 -14.867   2.140  1.00  0.00    -0.351 N 
HETATM   20  H   UNL     1      43.271 -15.152   1.597  1.00  0.00     0.163 HD
HETATM   21  O   UNL     1      41.006 -15.470   3.798  1.00  0.00    -0.268 OA
BRANCH  19  22
HETATM   22  C   UNL     1      41.786 -13.637   1.814  1.00  0.00     0.187 C 
BRANCH  22  23
HETATM   23  C   UNL     1      40.926 -13.861   0.628  1.00  0.00     0.070 A 
HETATM   24  O   UNL     1      40.935 -12.887  -0.330  1.00  0.00    -0.325 OA
HETATM   25  C   UNL     1      40.090 -13.290  -1.313  1.00  0.00     0.142 A 
HETATM   26  C   UNL     1      39.532 -14.507  -0.999  1.00  0.00     0.027 A 
HETATM   27  C   UNL     1      40.070 -14.877   0.256  1.00  0.00     0.036 A 
ENDBRANCH  22  23
ENDBRANCH  19  22
ENDBRANCH   2  18
TORSDOF 8
ENDMDL
MODEL 9
REMARK VINA RESULT:      -6.4      3.659      7.416
REMARK  8 active torsions:
REMARK  status: ('A' for Active; 'I' for Inactive)
REMARK    1  A    between atoms: C_4  and  O_5 
REMARK    2  A    between atoms: O_5  and  C_6 
REMARK    3  A    between atoms: C_6  and  C_7 
REMARK    4  A    between atoms: C_7  and  N_8 
REMARK    5  A    between atoms: N_8  and  C_9 
REMARK    6  A    between atoms: C_10  and  C_11 
REMARK       I    between atoms: C_11  and  N_12 
REMARK    7  A    between atoms: N_12  and  C_13 
REMARK    8  A    between atoms: C_13  and  C_14 
ROOT
HETATM    1  C   UNL     1      39.780 -13.412   4.607  1.00  0.00     0.024 A 
HETATM    2  C   UNL     1      39.723 -13.203   3.211  1.00  0.00     0.053 A 
HETATM    3  C   UNL     1      39.557 -11.901   2.702  1.00  0.00     0.019 A 
HETATM    4  C   UNL     1      39.418 -10.811   3.558  1.00  0.00     0.001 A 
HETATM    5  C   UNL     1      39.440 -11.009   4.934  1.00  0.00     0.002 A 
HETATM    6  C   UNL     1      39.621 -12.295   5.451  1.00  0.00     0.024 A 
ENDROOT
BRANCH   1   7
HETATM    7  N   UNL     1      40.060 -14.658   5.216  1.00  0.00    -0.290 NA
HETATM    8  H   UNL     1      39.204 -15.116   5.529  1.00  0.00     0.127 HD
BRANCH   7   9
HETATM    9  C   UNL     1      41.053 -14.619   6.311  1.00  0.00     0.119 C 
BRANCH   9  10
HETATM   10  C   UNL     1      42.033 -15.801   6.298  1.00  0.00     0.190 C 
BRANCH  10  11
HETATM   11  O   UNL     1      43.188 -15.501   5.510  1.00  0.00    -0.350 OA
BRANCH  11  12
HETATM   12  C   UNL     1      43.152 -15.805   4.177  1.00  0.00     0.068 A 
HETATM   13  C   UNL     1      42.995 -17.076   3.622  1.00  0.00     0.037 A 
HETATM   14  C   UNL     1      42.993 -17.241   2.233  1.00  0.00     0.003 A 
HETATM   15  C   UNL     1      43.145 -16.139   1.393  1.00  0.00     0.000 A 
HETATM   16  C   UNL     1      43.308 -14.871   1.941  1.00  0.00     0.003 A 
HETATM   17  C   UNL     1      43.316 -14.707   3.327  1.00  0.00     0.037 A 
ENDBRANCH  11  12
ENDBRANCH  10  11
ENDBRANCH   9  10
ENDBRANCH   7   9
ENDBRANCH   1   7
BRANCH   2  18
HETATM   18  C   UNL     1      39.760 -14.294   2.194  1.00  0.00     0.253 C 
HETATM   19  N   UNL     1      39.800 -13.899   0.882  1.00  0.00    -0.351 N 
HETATM   20  H   UNL     1      39.781 -12.904   0.674  1.00  0.00     0.163 HD
HETATM   21  O   UNL     1      39.793 -15.469   2.543  1.00  0.00    -0.268 OA
BRANCH  19  22
HETATM   22  C   UNL     1      39.966 -14.843  -0.193  1.00  0.00     0.187 C 
BRANCH  22  23
HETATM   23  C   UNL     1      39.176 -14.386  -1.360  1.00  0.00     0.070 A 
HETATM   24  O   UNL     1      38.526 -13.192  -1.232  1.00  0.00    -0.325 OA
HETATM   25  C   UNL     1      37.873 -12.968  -2.401  1.00  0.00     0.142 A 
HETATM   26  C   UNL     1      38.089 -14.004  -3.279  1.00  0.00     0.027 A 
HETATM   27  C   UNL     1      38.929 -14.923  -2.607  1.00  0.00     0.036 A 
ENDBRANCH  22  23
ENDBRANCH  19  22
ENDBRANCH   2  18
TORSDOF 8
ENDMDL
MODEL 10
REMARK VINA RESULT:      -6.4      3.283      4.609
REMARK  8 active torsions:
REMARK  status: ('A' for Active; 'I' for Inactive)
REMARK    1  A    between atoms: C_4  and  O_5 
REMARK    2  A    between atoms: O_5  and  C_6 
REMARK    3  A    between atoms: C_6  and  C_7 
REMARK    4  A    between atoms: C_7  and  N_8 
REMARK    5  A    between atoms: N_8  and  C_9 
REMARK    6  A    between atoms: C_10  and  C_11 
REMARK       I    between atoms: C_11  and  N_12 
REMARK    7  A    between atoms: N_12  and  C_13 
REMARK    8  A    between atoms: C_13  and  C_14 
ROOT
HETATM    1  C   UNL     1      43.191 -17.063   3.286  1.00  0.00     0.024 A 
HETATM    2  C   UNL     1      43.770 -17.372   4.536  1.00  0.00     0.053 A 
HETATM    3  C   UNL     1      44.234 -18.676   4.793  1.00  0.00     0.019 A 
HETATM    4  C   UNL     1      44.104 -19.682   3.838  1.00  0.00     0.001 A 
HETATM    5  C   UNL     1      43.505 -19.397   2.616  1.00  0.00     0.002 A 
HETATM    6  C   UNL     1      43.057 -18.101   2.343  1.00  0.00     0.024 A 
ENDROOT
BRANCH   1   7
HETATM    7  N   UNL     1      42.802 -15.763   2.886  1.00  0.00    -0.290 NA
HETATM    8  H   UNL     1      42.131 -15.361   3.540  1.00  0.00     0.127 HD
BRANCH   7   9
HETATM    9  C   UNL     1      42.302 -15.649   1.499  1.00  0.00     0.119 C 
BRANCH   9  10
HETATM   10  C   UNL     1      41.333 -14.477   1.286  1.00  0.00     0.190 C 
BRANCH  10  11
HETATM   11  O   UNL     1      40.192 -14.886   0.528  1.00  0.00    -0.350 OA
BRANCH  11  12
HETATM   12  C   UNL     1      39.947 -14.249  -0.657  1.00  0.00     0.068 A 
HETATM   13  C   UNL     1      39.192 -14.743  -1.721  1.00  0.00     0.037 A 
HETATM   14  C   UNL     1      39.037 -13.985  -2.886  1.00  0.00     0.003 A 
HETATM   15  C   UNL     1      39.633 -12.729  -2.993  1.00  0.00     0.000 A 
HETATM   16  C   UNL     1      40.392 -12.233  -1.938  1.00  0.00     0.003 A 
HETATM   17  C   UNL     1      40.552 -12.994  -0.778  1.00  0.00     0.037 A 
ENDBRANCH  11  12
ENDBRANCH  10  11
ENDBRANCH   9  10
ENDBRANCH   7   9
ENDBRANCH   1   7
BRANCH   2  18
HETATM   18  C   UNL     1      43.878 -16.412   5.675  1.00  0.00     0.253 C 
HETATM   19  N   UNL     1      42.835 -15.537   5.831  1.00  0.00    -0.351 N 
HETATM   20  H   UNL     1      42.067 -15.573   5.164  1.00  0.00     0.163 HD
HETATM   21  O   UNL     1      44.840 -16.454   6.434  1.00  0.00    -0.268 OA
BRANCH  19  22
HETATM   22  C   UNL     1      42.751 -14.646   6.959  1.00  0.00     0.187 C 
BRANCH  22  23
HETATM   23  C   UNL     1      43.382 -13.355   6.599  1.00  0.00     0.070 A 
HETATM   24  O   UNL     1      44.046 -12.697   7.595  1.00  0.00    -0.325 OA
HETATM   25  C   UNL     1      44.540 -11.554   7.054  1.00  0.00     0.142 A 
HETATM   26  C   UNL     1      44.201 -11.465   5.725  1.00  0.00     0.027 A 
HETATM   27  C   UNL     1      43.450 -12.627   5.429  1.00  0.00     0.036 A 
ENDBRANCH  22  23
ENDBRANCH  19  22
ENDBRANCH   2  18
TORSDOF 8
ENDMDL
