MODEL 1
REMARK VINA RESULT:      -8.9      0.000      0.000
REMARK  4 active torsions:
REMARK  status: ('A' for Active; 'I' for Inactive)
REMARK    1  A    between atoms: C_7  and  C_8 
REMARK    2  A    between atoms: C_8  and  N_9 
REMARK    3  A    between atoms: N_15  and  C_17 
REMARK    4  A    between atoms: C_17  and  C_18 
ROOT
HETATM    1  N   UNL     1      44.077 -11.611   6.788  1.00  0.00    -0.067 N 
HETATM    2  H   UNL     1      44.960 -11.158   6.515  1.00  0.00     0.280 HD
HETATM    3  C   UNL     1      44.371 -13.089   6.777  1.00  0.00     0.236 C 
HETATM    4  C   UNL     1      43.086 -13.901   6.922  1.00  0.00     0.039 C 
HETATM    5  C   UNL     1      42.003 -13.565   5.860  1.00  0.00    -0.013 C 
HETATM    6  C   UNL     1      42.391 -14.038   4.434  1.00  0.00     0.244 C 
HETATM    7  N   UNL     1      42.444 -15.540   4.359  1.00  0.00    -0.065 N 
HETATM    8  H   UNL     1      43.154 -15.886   5.026  1.00  0.00     0.280 HD
HETATM    9  C   UNL     1      41.130 -16.194   4.676  1.00  0.00     0.235 C 
HETATM   10  C   UNL     1      40.686 -15.768   6.068  1.00  0.00     0.029 C 
HETATM   11  C   UNL     1      40.660 -14.248   6.231  1.00  0.00     0.013 C 
HETATM   12  C   UNL     1      41.790 -12.024   5.868  1.00  0.00     0.039 C 
HETATM   13  C   UNL     1      43.074 -11.205   5.744  1.00  0.00     0.236 C 
ENDROOT
BRANCH   7  14
HETATM   14  C   UNL     1      43.045 -16.033   3.039  1.00  0.00     0.293 C 
BRANCH  14  15
HETATM   15  C   UNL     1      43.366 -17.513   3.116  1.00  0.00     0.060 A 
HETATM   16  N   UNL     1      44.060 -17.922   4.225  1.00  0.00    -0.264 NA
HETATM   17  C   UNL     1      44.284 -19.255   4.338  1.00  0.00     0.117 A 
HETATM   18  C   UNL     1      43.897 -20.186   3.390  1.00  0.00     0.019 A 
HETATM   19  C   UNL     1      43.216 -19.739   2.263  1.00  0.00     0.003 A 
HETATM   20  C   UNL     1      42.933 -18.385   2.123  1.00  0.00     0.029 A 
ENDBRANCH  14  15
ENDBRANCH   7  14
BRANCH   1  21
HETATM   21  C   UNL     1      43.799 -11.008   8.164  1.00  0.00     0.278 C 
BRANCH  21  22
HETATM   22  C   UNL     1      44.128  -9.569   8.263  1.00  0.00     0.025 A 
HETATM   23  C   UNL     1      43.224  -8.479   8.426  1.00  0.00     0.068 A 
HETATM   24  C   UNL     1      41.742  -8.484   8.496  1.00  0.00     0.073 C 
HETATM   25  N   UNL     1      43.881  -7.325   8.549  1.00  0.00    -0.133 NA
HETATM   26  O   UNL     1      45.214  -7.620   8.392  1.00  0.00    -0.217 OA
HETATM   27  C   UNL     1      45.365  -8.956   8.202  1.00  0.00     0.085 A 
HETATM   28  C   UNL     1      46.755  -9.413   8.001  1.00  0.00     0.079 C 
ENDBRANCH  21  22
ENDBRANCH   1  21
TORSDOF 4
ENDMDL
MODEL 2
REMARK VINA RESULT:      -8.4      4.989      7.574
REMARK  4 active torsions:
REMARK  status: ('A' for Active; 'I' for Inactive)
REMARK    1  A    between atoms: C_7  and  C_8 
REMARK    2  A    between atoms: C_8  and  N_9 
REMARK    3  A    between atoms: N_15  and  C_17 
REMARK    4  A    between atoms: C_17  and  C_18 
ROOT
HETATM    1  N   UNL     1      39.403 -13.422   0.889  1.00  0.00    -0.067 N 
HETATM    2  H   UNL     1      38.840 -14.241   0.620  1.00  0.00     0.280 HD
HETATM    3  C   UNL     1      40.820 -13.925   0.971  1.00  0.00     0.236 C 
HETATM    4  C   UNL     1      41.735 -12.877   1.601  1.00  0.00     0.039 C 
HETATM    5  C   UNL     1      41.262 -12.383   2.997  1.00  0.00    -0.013 C 
HETATM    6  C   UNL     1      41.398 -13.469   4.097  1.00  0.00     0.244 C 
HETATM    7  N   UNL     1      42.843 -13.798   4.357  1.00  0.00    -0.065 N 
HETATM    8  H   UNL     1      43.269 -14.156   3.485  1.00  0.00     0.280 HD
HETATM    9  C   UNL     1      43.641 -12.617   4.830  1.00  0.00     0.235 C 
HETATM   10  C   UNL     1      43.550 -11.507   3.793  1.00  0.00     0.029 C 
HETATM   11  C   UNL     1      42.103 -11.157   3.442  1.00  0.00     0.013 C 
HETATM   12  C   UNL     1      39.777 -11.941   2.867  1.00  0.00     0.039 C 
HETATM   13  C   UNL     1      38.860 -12.977   2.218  1.00  0.00     0.236 C 
ENDROOT
BRANCH   7  14
HETATM   14  C   UNL     1      43.005 -15.021   5.264  1.00  0.00     0.293 C 
BRANCH  14  15
HETATM   15  C   UNL     1      43.353 -16.251   4.448  1.00  0.00     0.060 A 
HETATM   16  N   UNL     1      44.081 -17.215   5.093  1.00  0.00    -0.264 NA
HETATM   17  C   UNL     1      44.331 -18.351   4.394  1.00  0.00     0.117 A 
HETATM   18  C   UNL     1      43.936 -18.553   3.083  1.00  0.00     0.019 A 
HETATM   19  C   UNL     1      43.220 -17.546   2.446  1.00  0.00     0.003 A 
HETATM   20  C   UNL     1      42.910 -16.379   3.136  1.00  0.00     0.029 A 
ENDBRANCH  14  15
ENDBRANCH   7  14
BRANCH   1  21
HETATM   21  C   UNL     1      39.123 -12.433  -0.243  1.00  0.00     0.278 C 
BRANCH  21  22
HETATM   22  C   UNL     1      39.835 -12.749  -1.501  1.00  0.00     0.025 A 
HETATM   23  C   UNL     1      40.840 -11.974  -2.150  1.00  0.00     0.068 A 
HETATM   24  C   UNL     1      41.402 -10.654  -1.775  1.00  0.00     0.073 C 
HETATM   25  N   UNL     1      41.310 -12.603  -3.228  1.00  0.00    -0.133 NA
HETATM   26  O   UNL     1      40.575 -13.758  -3.353  1.00  0.00    -0.217 OA
HETATM   27  C   UNL     1      39.680 -13.841  -2.335  1.00  0.00     0.085 A 
HETATM   28  C   UNL     1      38.808 -15.031  -2.355  1.00  0.00     0.079 C 
ENDBRANCH  21  22
ENDBRANCH   1  21
TORSDOF 4
ENDMDL
MODEL 3
REMARK VINA RESULT:      -8.1      3.955      8.521
REMARK  4 active torsions:
REMARK  status: ('A' for Active; 'I' for Inactive)
REMARK    1  A    between atoms: C_7  and  C_8 
REMARK    2  A    between atoms: C_8  and  N_9 
REMARK    3  A    between atoms: N_15  and  C_17 
REMARK    4  A    between atoms: C_17  and  C_18 
ROOT
HETATM    1  N   UNL     1      42.585 -15.973   3.194  1.00  0.00    -0.067 N 
HETATM    2  H   UNL     1      42.946 -15.957   4.158  1.00  0.00     0.280 HD
HETATM    3  C   UNL     1      42.801 -14.578   2.668  1.00  0.00     0.236 C 
HETATM    4  C   UNL     1      42.089 -14.384   1.331  1.00  0.00     0.039 C 
HETATM    5  C   UNL     1      40.570 -14.710   1.371  1.00  0.00    -0.013 C 
HETATM    6  C   UNL     1      39.755 -13.678   2.195  1.00  0.00     0.244 C 
HETATM    7  N   UNL     1      39.765 -12.328   1.532  1.00  0.00    -0.065 N 
HETATM    8  H   UNL     1      40.742 -11.995   1.460  1.00  0.00     0.280 HD
HETATM    9  C   UNL     1      39.161 -12.339   0.158  1.00  0.00     0.235 C 
HETATM   10  C   UNL     1      39.916 -13.338  -0.709  1.00  0.00     0.029 C 
HETATM   11  C   UNL     1      39.988 -14.725  -0.068  1.00  0.00     0.013 C 
HETATM   12  C   UNL     1      40.404 -16.130   1.983  1.00  0.00     0.039 C 
HETATM   13  C   UNL     1      41.132 -16.337   3.312  1.00  0.00     0.236 C 
ENDROOT
BRANCH   7  14
HETATM   14  C   UNL     1      39.170 -11.238   2.429  1.00  0.00     0.293 C 
BRANCH  14  15
HETATM   15  C   UNL     1      40.139 -10.863   3.533  1.00  0.00     0.060 A 
HETATM   16  N   UNL     1      39.631 -10.860   4.805  1.00  0.00    -0.264 NA
HETATM   17  C   UNL     1      40.511 -10.600   5.805  1.00  0.00     0.117 A 
HETATM   18  C   UNL     1      41.847 -10.301   5.600  1.00  0.00     0.019 A 
HETATM   19  C   UNL     1      42.328 -10.287   4.296  1.00  0.00     0.003 A 
HETATM   20  C   UNL     1      41.470 -10.583   3.242  1.00  0.00     0.029 A 
ENDBRANCH  14  15
ENDBRANCH   7  14
BRANCH   1  21
HETATM   21  C   UNL     1      43.432 -17.061   2.534  1.00  0.00     0.278 C 
BRANCH  21  22
HETATM   22  C   UNL     1      43.720 -18.211   3.419  1.00  0.00     0.025 A 
HETATM   23  C   UNL     1      43.687 -19.597   3.085  1.00  0.00     0.068 A 
HETATM   24  C   UNL     1      43.320 -20.249   1.804  1.00  0.00     0.073 C 
HETATM   25  N   UNL     1      44.074 -20.349   4.116  1.00  0.00    -0.133 NA
HETATM   26  O   UNL     1      44.294 -19.487   5.163  1.00  0.00    -0.217 OA
HETATM   27  C   UNL     1      44.066 -18.211   4.758  1.00  0.00     0.085 A 
HETATM   28  C   UNL     1      44.249 -17.176   5.795  1.00  0.00     0.079 C 
ENDBRANCH  21  22
ENDBRANCH   1  21
TORSDOF 4
ENDMDL
MODEL 4
REMARK VINA RESULT:      -7.8      4.936      8.501
REMARK  4 active torsions:
REMARK  status: ('A' for Active; 'I' for Inactive)
REMARK    1  A    between atoms: C_7  and  C_8 
REMARK    2  A    between atoms: C_8  and  N_9 
REMARK    3  A    between atoms: N_15  and  C_17 
REMARK    4  A    between atoms: C_17  and  C_18 
ROOT
HETATM    1  N   UNL     1      42.624 -17.096   2.972  1.00  0.00    -0.067 N 
HETATM    2  H   UNL     1      42.184 -17.982   2.686  1.00  0.00     0.280 HD
HETATM    3  C   UNL     1      41.510 -16.271   3.560  1.00  0.00     0.236 C 
HETATM    4  C   UNL     1      41.966 -14.834   3.803  1.00  0.00     0.039 C 
HETATM    5  C   UNL     1      42.540 -14.132   2.541  1.00  0.00    -0.013 C 
HETATM    6  C   UNL     1      41.455 -13.831   1.473  1.00  0.00     0.244 C 
HETATM    7  N   UNL     1      40.472 -12.810   1.975  1.00  0.00    -0.065 N 
HETATM    8  H   UNL     1      40.007 -13.177   2.823  1.00  0.00     0.280 HD
HETATM    9  C   UNL     1      41.108 -11.491   2.312  1.00  0.00     0.235 C 
HETATM   10  C   UNL     1      42.190 -11.715   3.359  1.00  0.00     0.029 C 
HETATM   11  C   UNL     1      43.199 -12.783   2.933  1.00  0.00     0.013 C 
HETATM   12  C   UNL     1      43.636 -15.057   1.939  1.00  0.00     0.039 C 
HETATM   13  C   UNL     1      43.193 -16.502   1.713  1.00  0.00     0.236 C 
ENDROOT
BRANCH   7  14
HETATM   14  C   UNL     1      39.264 -12.662   1.045  1.00  0.00     0.293 C 
BRANCH  14  15
HETATM   15  C   UNL     1      39.675 -12.858  -0.401  1.00  0.00     0.060 A 
HETATM   16  N   UNL     1      40.333 -11.809  -0.988  1.00  0.00    -0.264 NA
HETATM   17  C   UNL     1      40.770 -12.007  -2.258  1.00  0.00     0.117 A 
HETATM   18  C   UNL     1      40.548 -13.166  -2.980  1.00  0.00     0.019 A 
HETATM   19  C   UNL     1      39.854 -14.204  -2.367  1.00  0.00     0.003 A 
HETATM   20  C   UNL     1      39.419 -14.059  -1.054  1.00  0.00     0.029 A 
ENDBRANCH  14  15
ENDBRANCH   7  14
BRANCH   1  21
HETATM   21  C   UNL     1      43.694 -17.556   3.962  1.00  0.00     0.278 C 
BRANCH  21  22
HETATM   22  C   UNL     1      43.701 -19.016   4.197  1.00  0.00     0.025 A 
HETATM   23  C   UNL     1      43.630 -19.698   5.447  1.00  0.00     0.068 A 
HETATM   24  C   UNL     1      43.574 -19.143   6.822  1.00  0.00     0.073 C 
HETATM   25  N   UNL     1      43.589 -21.019   5.272  1.00  0.00    -0.133 NA
HETATM   26  O   UNL     1      43.710 -21.235   3.920  1.00  0.00    -0.217 OA
HETATM   27  C   UNL     1      43.797 -20.043   3.276  1.00  0.00     0.085 A 
HETATM   28  C   UNL     1      43.949 -20.127   1.810  1.00  0.00     0.079 C 
ENDBRANCH  21  22
ENDBRANCH   1  21
TORSDOF 4
ENDMDL
MODEL 5
REMARK VINA RESULT:      -7.7      4.196      6.774
REMARK  4 active torsions:
REMARK  status: ('A' for Active; 'I' for Inactive)
REMARK    1  A    between atoms: C_7  and  C_8 
REMARK    2  A    between atoms: C_8  and  N_9 
REMARK    3  A    between atoms: N_15  and  C_17 
REMARK    4  A    between atoms: C_17  and  C_18 
ROOT
HETATM    1  N   UNL     1      40.951 -14.428   1.570  1.00  0.00    -0.067 N 
HETATM    2  H   UNL     1      40.552 -15.187   1.000  1.00  0.00     0.280 HD
HETATM    3  C   UNL     1      42.238 -14.982   2.122  1.00  0.00     0.236 C 
HETATM    4  C   UNL     1      42.818 -14.053   3.187  1.00  0.00     0.039 C 
HETATM    5  C   UNL     1      41.835 -13.733   4.348  1.00  0.00    -0.013 C 
HETATM    6  C   UNL     1      41.562 -14.957   5.261  1.00  0.00     0.244 C 
HETATM    7  N   UNL     1      42.803 -15.361   6.009  1.00  0.00    -0.065 N 
HETATM    8  H   UNL     1      43.539 -15.615   5.328  1.00  0.00     0.280 HD
HETATM    9  C   UNL     1      43.333 -14.278   6.905  1.00  0.00     0.235 C 
HETATM   10  C   UNL     1      43.622 -13.039   6.069  1.00  0.00     0.029 C 
HETATM   11  C   UNL     1      42.413 -12.602   5.240  1.00  0.00     0.013 C 
HETATM   12  C   UNL     1      40.504 -13.231   3.719  1.00  0.00     0.039 C 
HETATM   13  C   UNL     1      39.929 -14.145   2.637  1.00  0.00     0.236 C 
ENDROOT
BRANCH   7  14
HETATM   14  C   UNL     1      42.632 -16.697   6.737  1.00  0.00     0.293 C 
BRANCH  14  15
HETATM   15  C   UNL     1      43.280 -17.821   5.955  1.00  0.00     0.060 A 
HETATM   16  N   UNL     1      43.281 -19.052   6.557  1.00  0.00    -0.264 NA
HETATM   17  C   UNL     1      43.792 -20.078   5.830  1.00  0.00     0.117 A 
HETATM   18  C   UNL     1      44.338 -19.934   4.567  1.00  0.00     0.019 A 
HETATM   19  C   UNL     1      44.347 -18.668   3.992  1.00  0.00     0.003 A 
HETATM   20  C   UNL     1      43.801 -17.593   4.685  1.00  0.00     0.029 A 
ENDBRANCH  14  15
ENDBRANCH   7  14
BRANCH   1  21
HETATM   21  C   UNL     1      41.104 -13.292   0.560  1.00  0.00     0.278 C 
BRANCH  21  22
HETATM   22  C   UNL     1      39.824 -12.838  -0.027  1.00  0.00     0.025 A 
HETATM   23  C   UNL     1      39.107 -13.426  -1.110  1.00  0.00     0.068 A 
HETATM   24  C   UNL     1      39.460 -14.596  -1.951  1.00  0.00     0.073 C 
HETATM   25  N   UNL     1      37.954 -12.791  -1.323  1.00  0.00    -0.133 NA
HETATM   26  O   UNL     1      37.925 -11.735  -0.443  1.00  0.00    -0.217 OA
HETATM   27  C   UNL     1      39.048 -11.748   0.320  1.00  0.00     0.085 A 
HETATM   28  C   UNL     1      39.158 -10.651   1.302  1.00  0.00     0.079 C 
ENDBRANCH  21  22
ENDBRANCH   1  21
TORSDOF 4
ENDMDL
MODEL 6
REMARK VINA RESULT:      -7.7      5.151      7.905
REMARK  4 active torsions:
REMARK  status: ('A' for Active; 'I' for Inactive)
REMARK    1  A    between atoms: C_7  and  C_8 
REMARK    2  A    between atoms: C_8  and  N_9 
REMARK    3  A    between atoms: N_15  and  C_17 
REMARK    4  A    between atoms: C_17  and  C_18 
ROOT
HETATM    1  N   UNL     1      41.494 -15.723   2.457  1.00  0.00    -0.067 N 
HETATM    2  H   UNL     1      41.790 -16.485   1.831  1.00  0.00     0.280 HD
HETATM    3  C   UNL     1      40.153 -15.279   1.933  1.00  0.00     0.236 C 
HETATM    4  C   UNL     1      39.703 -13.988   2.614  1.00  0.00     0.039 C 
HETATM    5  C   UNL     1      40.729 -12.826   2.506  1.00  0.00    -0.013 C 
HETATM    6  C   UNL     1      40.858 -12.270   1.063  1.00  0.00     0.244 C 
HETATM    7  N   UNL     1      39.584 -11.599   0.627  1.00  0.00    -0.065 N 
HETATM    8  H   UNL     1      38.815 -12.291   0.646  1.00  0.00     0.280 HD
HETATM    9  C   UNL     1      39.201 -10.435   1.494  1.00  0.00     0.235 C 
HETATM   10  C   UNL     1      39.059 -10.912   2.933  1.00  0.00     0.029 C 
HETATM   11  C   UNL     1      40.304 -11.651   3.426  1.00  0.00     0.013 C 
HETATM   12  C   UNL     1      42.106 -13.360   2.995  1.00  0.00     0.039 C 
HETATM   13  C   UNL     1      42.552 -14.663   2.332  1.00  0.00     0.236 C 
ENDROOT
BRANCH   7  14
HETATM   14  C   UNL     1      39.596 -11.246  -0.863  1.00  0.00     0.293 C 
BRANCH  14  15
HETATM   15  C   UNL     1      39.068 -12.399  -1.693  1.00  0.00     0.060 A 
HETATM   16  N   UNL     1      37.720 -12.397  -1.938  1.00  0.00    -0.264 NA
HETATM   17  C   UNL     1      37.252 -13.384  -2.743  1.00  0.00     0.117 A 
HETATM   18  C   UNL     1      38.042 -14.389  -3.272  1.00  0.00     0.019 A 
HETATM   19  C   UNL     1      39.403 -14.380  -2.985  1.00  0.00     0.003 A 
HETATM   20  C   UNL     1      39.933 -13.367  -2.193  1.00  0.00     0.029 A 
ENDBRANCH  14  15
ENDBRANCH   7  14
BRANCH   1  21
HETATM   21  C   UNL     1      41.471 -16.401   3.826  1.00  0.00     0.278 C 
BRANCH  21  22
HETATM   22  C   UNL     1      42.797 -16.879   4.277  1.00  0.00     0.025 A 
HETATM   23  C   UNL     1      43.592 -16.365   5.343  1.00  0.00     0.068 A 
HETATM   24  C   UNL     1      43.335 -15.211   6.239  1.00  0.00     0.073 C 
HETATM   25  N   UNL     1      44.698 -17.090   5.510  1.00  0.00    -0.133 NA
HETATM   26  O   UNL     1      44.692 -18.041   4.518  1.00  0.00    -0.217 OA
HETATM   27  C   UNL     1      43.568 -17.907   3.767  1.00  0.00     0.085 A 
HETATM   28  C   UNL     1      43.439 -18.860   2.647  1.00  0.00     0.079 C 
ENDBRANCH  21  22
ENDBRANCH   1  21
TORSDOF 4
ENDMDL
MODEL 7
REMARK VINA RESULT:      -7.2      3.173      9.023
REMARK  4 active torsions:
REMARK  status: ('A' for Active; 'I' for Inactive)
REMARK    1  A    between atoms: C_7  and  C_8 
REMARK    2  A    between atoms: C_8  and  N_9 
REMARK    3  A    between atoms: N_15  and  C_17 
REMARK    4  A    between atoms: C_17  and  C_18 
ROOT
HETATM    1  N   UNL     1      42.439 -13.462   5.520  1.00  0.00    -0.067 N 
HETATM    2  H   UNL     1      41.433 -13.675   5.463  1.00  0.00     0.280 HD
HETATM    3  C   UNL     1      42.708 -13.204   6.979  1.00  0.00     0.236 C 
HETATM    4  C   UNL     1      44.110 -12.633   7.182  1.00  0.00     0.039 C 
HETATM    5  C   UNL     1      44.395 -11.350   6.353  1.00  0.00    -0.013 C 
HETATM    6  C   UNL     1      43.592 -10.120   6.853  1.00  0.00     0.244 C 
HETATM    7  N   UNL     1      44.038  -9.705   8.228  1.00  0.00    -0.065 N 
HETATM    8  H   UNL     1      43.881 -10.490   8.884  1.00  0.00     0.280 HD
HETATM    9  C   UNL     1      45.487  -9.314   8.287  1.00  0.00     0.235 C 
HETATM   10  C   UNL     1      46.337 -10.481   7.806  1.00  0.00     0.029 C 
HETATM   11  C   UNL     1      45.902 -10.988   6.430  1.00  0.00     0.013 C 
HETATM   12  C   UNL     1      44.037 -11.652   4.870  1.00  0.00     0.039 C 
HETATM   13  C   UNL     1      42.643 -12.244   4.662  1.00  0.00     0.236 C 
ENDROOT
BRANCH   7  14
HETATM   14  C   UNL     1      43.116  -8.648   8.842  1.00  0.00     0.293 C 
BRANCH  14  15
HETATM   15  C   UNL     1      43.031  -8.819  10.346  1.00  0.00     0.060 A 
HETATM   16  N   UNL     1      42.980  -7.664  11.081  1.00  0.00    -0.264 NA
HETATM   17  C   UNL     1      42.827  -7.809  12.422  1.00  0.00     0.117 A 
HETATM   18  C   UNL     1      42.769  -9.033  13.064  1.00  0.00     0.019 A 
HETATM   19  C   UNL     1      42.848 -10.188  12.295  1.00  0.00     0.003 A 
HETATM   20  C   UNL     1      42.969 -10.087  10.913  1.00  0.00     0.029 A 
ENDBRANCH  14  15
ENDBRANCH   7  14
BRANCH   1  21
HETATM   21  C   UNL     1      43.085 -14.723   4.946  1.00  0.00     0.278 C 
BRANCH  21  22
HETATM   22  C   UNL     1      42.232 -15.440   3.973  1.00  0.00     0.025 A 
HETATM   23  C   UNL     1      42.431 -15.565   2.567  1.00  0.00     0.068 A 
HETATM   24  C   UNL     1      43.497 -14.989   1.711  1.00  0.00     0.073 C 
HETATM   25  N   UNL     1      41.499 -16.344   2.017  1.00  0.00    -0.133 NA
HETATM   26  O   UNL     1      40.631 -16.682   3.028  1.00  0.00    -0.217 OA
HETATM   27  C   UNL     1      41.053 -16.128   4.194  1.00  0.00     0.085 A 
HETATM   28  C   UNL     1      40.198 -16.397   5.367  1.00  0.00     0.079 C 
ENDBRANCH  21  22
ENDBRANCH   1  21
TORSDOF 4
ENDMDL
MODEL 8
REMARK VINA RESULT:      -7.2      4.707      8.874
REMARK  4 active torsions:
REMARK  status: ('A' for Active; 'I' for Inactive)
REMARK    1  A    between atoms: C_7  and  C_8 
REMARK    2  A    between atoms: C_8  and  N_9 
REMARK    3  A    between atoms: N_15  and  C_17 
REMARK    4  A    between atoms: C_17  and  C_18 
ROOT
HETATM    1  N   UNL     1      42.352 -15.760   3.268  1.00  0.00    -0.067 N 
HETATM    2  H   UNL     1      42.565 -15.794   4.274  1.00  0.00     0.280 HD
HETATM    3  C   UNL     1      42.463 -14.306   2.888  1.00  0.00     0.236 C 
HETATM    4  C   UNL     1      41.932 -14.070   1.477  1.00  0.00     0.039 C 
HETATM    5  C   UNL     1      40.477 -14.567   1.258  1.00  0.00    -0.013 C 
HETATM    6  C   UNL     1      39.428 -13.717   2.023  1.00  0.00     0.244 C 
HETATM    7  N   UNL     1      39.363 -12.318   1.474  1.00  0.00    -0.065 N 
HETATM    8  H   UNL     1      40.290 -11.871   1.578  1.00  0.00     0.280 HD
HETATM    9  C   UNL     1      38.968 -12.269   0.025  1.00  0.00     0.235 C 
HETATM   10  C   UNL     1      39.960 -13.089  -0.788  1.00  0.00     0.029 C 
HETATM   11  C   UNL     1      40.114 -14.513  -0.250  1.00  0.00     0.013 C 
HETATM   12  C   UNL     1      40.404 -16.048   1.727  1.00  0.00     0.039 C 
HETATM   13  C   UNL     1      40.954 -16.296   3.132  1.00  0.00     0.236 C 
ENDROOT
BRANCH   7  14
HETATM   14  C   UNL     1      38.512 -11.392   2.348  1.00  0.00     0.293 C 
BRANCH  14  15
HETATM   15  C   UNL     1      39.259 -10.109   2.655  1.00  0.00     0.060 A 
HETATM   16  N   UNL     1      39.356  -9.771   3.979  1.00  0.00    -0.264 NA
HETATM   17  C   UNL     1      40.089  -8.665   4.266  1.00  0.00     0.117 A 
HETATM   18  C   UNL     1      40.684  -7.862   3.309  1.00  0.00     0.019 A 
HETATM   19  C   UNL     1      40.547  -8.216   1.972  1.00  0.00     0.003 A 
HETATM   20  C   UNL     1      39.835  -9.362   1.633  1.00  0.00     0.029 A 
ENDBRANCH  14  15
ENDBRANCH   7  14
BRANCH   1  21
HETATM   21  C   UNL     1      43.415 -16.678   2.666  1.00  0.00     0.278 C 
BRANCH  21  22
HETATM   22  C   UNL     1      43.700 -17.878   3.484  1.00  0.00     0.025 A 
HETATM   23  C   UNL     1      44.117 -17.923   4.846  1.00  0.00     0.068 A 
HETATM   24  C   UNL     1      44.413 -16.809   5.780  1.00  0.00     0.073 C 
HETATM   25  N   UNL     1      44.209 -19.181   5.278  1.00  0.00    -0.133 NA
HETATM   26  O   UNL     1      43.933 -19.984   4.197  1.00  0.00    -0.217 OA
HETATM   27  C   UNL     1      43.647 -19.210   3.118  1.00  0.00     0.085 A 
HETATM   28  C   UNL     1      43.347 -19.946   1.874  1.00  0.00     0.079 C 
ENDBRANCH  21  22
ENDBRANCH   1  21
TORSDOF 4
ENDMDL
MODEL 9
REMARK VINA RESULT:      -7.2      1.827      2.970
REMARK  4 active torsions:
REMARK  status: ('A' for Active; 'I' for Inactive)
REMARK    1  A    between atoms: C_7  and  C_8 
REMARK    2  A    between atoms: C_8  and  N_9 
REMARK    3  A    between atoms: N_15  and  C_17 
REMARK    4  A    between atoms: C_17  and  C_18 
ROOT
HETATM    1  N   UNL     1      42.666 -11.490   7.085  1.00  0.00    -0.067 N 
HETATM    2  H   UNL     1      42.542 -11.854   8.040  1.00  0.00     0.280 HD
HETATM    3  C   UNL     1      41.350 -11.734   6.395  1.00  0.00     0.236 C 
HETATM    4  C   UNL     1      41.464 -11.469   4.896  1.00  0.00     0.039 C 
HETATM    5  C   UNL     1      42.590 -12.278   4.195  1.00  0.00    -0.013 C 
HETATM    6  C   UNL     1      42.282 -13.797   4.118  1.00  0.00     0.244 C 
HETATM    7  N   UNL     1      41.105 -14.064   3.220  1.00  0.00    -0.065 N 
HETATM    8  H   UNL     1      40.275 -13.578   3.599  1.00  0.00     0.280 HD
HETATM    9  C   UNL     1      41.324 -13.607   1.806  1.00  0.00     0.235 C 
HETATM   10  C   UNL     1      41.635 -12.117   1.809  1.00  0.00     0.029 C 
HETATM   11  C   UNL     1      42.793 -11.766   2.744  1.00  0.00     0.013 C 
HETATM   12  C   UNL     1      43.908 -12.042   4.988  1.00  0.00     0.039 C 
HETATM   13  C   UNL     1      43.795 -12.286   6.493  1.00  0.00     0.236 C 
ENDROOT
BRANCH   7  14
HETATM   14  C   UNL     1      40.632 -15.519   3.303  1.00  0.00     0.293 C 
BRANCH  14  15
HETATM   15  C   UNL     1      41.812 -16.458   3.461  1.00  0.00     0.060 A 
HETATM   16  N   UNL     1      42.206 -16.718   4.747  1.00  0.00    -0.264 NA
HETATM   17  C   UNL     1      43.212 -17.617   4.898  1.00  0.00     0.117 A 
HETATM   18  C   UNL     1      43.868 -18.227   3.844  1.00  0.00     0.019 A 
HETATM   19  C   UNL     1      43.463 -17.924   2.549  1.00  0.00     0.003 A 
HETATM   20  C   UNL     1      42.412 -17.035   2.347  1.00  0.00     0.029 A 
ENDBRANCH  14  15
ENDBRANCH   7  14
BRANCH   1  21
HETATM   21  C   UNL     1      43.018 -10.023   7.326  1.00  0.00     0.278 C 
BRANCH  21  22
HETATM   22  C   UNL     1      43.749  -9.784   8.590  1.00  0.00     0.025 A 
HETATM   23  C   UNL     1      45.161  -9.749   8.786  1.00  0.00     0.068 A 
HETATM   24  C   UNL     1      46.254  -9.979   7.811  1.00  0.00     0.073 C 
HETATM   25  N   UNL     1      45.463  -9.436  10.047  1.00  0.00    -0.133 NA
HETATM   26  O   UNL     1      44.268  -9.336  10.718  1.00  0.00    -0.217 OA
HETATM   27  C   UNL     1      43.242  -9.562   9.857  1.00  0.00     0.085 A 
HETATM   28  C   UNL     1      41.893  -9.503  10.453  1.00  0.00     0.079 C 
ENDBRANCH  21  22
ENDBRANCH   1  21
TORSDOF 4
ENDMDL
MODEL 10
REMARK VINA RESULT:      -7.2      3.910      6.887
REMARK  4 active torsions:
REMARK  status: ('A' for Active; 'I' for Inactive)
REMARK    1  A    between atoms: C_7  and  C_8 
REMARK    2  A    between atoms: C_8  and  N_9 
REMARK    3  A    between atoms: N_15  and  C_17 
REMARK    4  A    between atoms: C_17  and  C_18 
ROOT
HETATM    1  N   UNL     1      41.683  -8.610  10.566  1.00  0.00    -0.067 N 
HETATM    2  H   UNL     1      40.697  -8.883  10.682  1.00  0.00     0.280 HD
HETATM    3  C   UNL     1      41.931  -8.644   9.081  1.00  0.00     0.236 C 
HETATM    4  C   UNL     1      43.420  -8.501   8.774  1.00  0.00     0.039 C 
HETATM    5  C   UNL     1      44.316  -9.551   9.488  1.00  0.00    -0.013 C 
HETATM    6  C   UNL     1      44.123 -10.986   8.931  1.00  0.00     0.244 C 
HETATM    7  N   UNL     1      44.606 -11.083   7.509  1.00  0.00    -0.065 N 
HETATM    8  H   UNL     1      44.063 -10.426   6.923  1.00  0.00     0.280 HD
HETATM    9  C   UNL     1      46.066 -10.766   7.357  1.00  0.00     0.235 C 
HETATM   10  C   UNL     1      46.327  -9.364   7.890  1.00  0.00     0.029 C 
HETATM   11  C   UNL     1      45.813  -9.179   9.318  1.00  0.00     0.013 C 
HETATM   12  C   UNL     1      43.970  -9.518  11.004  1.00  0.00     0.039 C 
HETATM   13  C   UNL     1      42.479  -9.640  11.318  1.00  0.00     0.236 C 
ENDROOT
BRANCH   7  14
HETATM   14  C   UNL     1      44.220 -12.414   6.857  1.00  0.00     0.293 C 
BRANCH  14  15
HETATM   15  C   UNL     1      42.788 -12.374   6.362  1.00  0.00     0.060 A 
HETATM   16  N   UNL     1      42.141 -13.580   6.290  1.00  0.00    -0.264 NA
HETATM   17  C   UNL     1      40.836 -13.542   5.921  1.00  0.00     0.117 A 
HETATM   18  C   UNL     1      40.163 -12.383   5.579  1.00  0.00     0.019 A 
HETATM   19  C   UNL     1      40.852 -11.177   5.636  1.00  0.00     0.003 A 
HETATM   20  C   UNL     1      42.182 -11.163   6.044  1.00  0.00     0.029 A 
ENDBRANCH  14  15
ENDBRANCH   7  14
BRANCH   1  21
HETATM   21  C   UNL     1      41.728  -7.223  11.206  1.00  0.00     0.278 C 
BRANCH  21  22
HETATM   22  C   UNL     1      41.092  -7.161  12.541  1.00  0.00     0.025 A 
HETATM   23  C   UNL     1      41.737  -7.112  13.811  1.00  0.00     0.068 A 
HETATM   24  C   UNL     1      43.183  -7.153  14.136  1.00  0.00     0.073 C 
HETATM   25  N   UNL     1      40.847  -6.990  14.797  1.00  0.00    -0.133 NA
HETATM   26  O   UNL     1      39.607  -7.033  14.207  1.00  0.00    -0.217 OA
HETATM   27  C   UNL     1      39.747  -7.154  12.862  1.00  0.00     0.085 A 
HETATM   28  C   UNL     1      38.485  -7.231  12.099  1.00  0.00     0.079 C 
ENDBRANCH  21  22
ENDBRANCH   1  21
TORSDOF 4
ENDMDL
