MODEL 1
REMARK VINA RESULT:      -7.7      0.000      0.000
REMARK  6 active torsions:
REMARK  status: ('A' for Active; 'I' for Inactive)
REMARK    1  A    between atoms: C_6  and  C_7 
REMARK    2  A    between atoms: C_7  and  N_8 
REMARK    3  A    between atoms: C_7  and  C_24 
REMARK       I    between atoms: N_8  and  C_9 
REMARK       I    between atoms: C_9  and  N_10 
REMARK    4  A    between atoms: N_10  and  C_11 
REMARK    5  A    between atoms: C_14  and  C_15 
REMARK    6  A    between atoms: C_24  and  O_25 
ROOT
HETATM    1  N   UNL     1      42.021 -15.537   4.114  1.00  0.00    -0.331 N 
HETATM    2  C   UNL     1      42.037 -14.532   5.031  1.00  0.00     0.321 C 
HETATM    3  N   UNL     1      43.056 -13.630   4.923  1.00  0.00    -0.309 N 
HETATM    4  O   UNL     1      41.135 -14.523   5.864  1.00  0.00    -0.247 OA
HETATM    5  H   UNL     1      41.244 -16.163   4.273  1.00  0.00     0.165 HD
HETATM    6  H   UNL     1      43.719 -13.788   4.185  1.00  0.00     0.170 HD
ENDROOT
BRANCH   1   7
HETATM    7  C   UNL     1      42.950 -15.886   3.043  1.00  0.00     0.161 C 
BRANCH   7   8
HETATM    8  C   UNL     1      43.331 -17.325   3.200  1.00  0.00     0.056 A 
HETATM    9  N   UNL     1      44.043 -17.810   4.273  1.00  0.00    -0.277 N 
HETATM   10  C   UNL     1      44.522 -17.078   5.423  1.00  0.00     0.179 C 
HETATM   11  N   UNL     1      44.303 -19.127   4.189  1.00  0.00    -0.185 NA
HETATM   12  C   UNL     1      43.725 -19.501   3.048  1.00  0.00     0.141 A 
HETATM   13  C   UNL     1      43.112 -18.426   2.389  1.00  0.00     0.050 A 
ENDBRANCH   7   8
BRANCH   7  14
HETATM   14  C   UNL     1      42.312 -15.631   1.658  1.00  0.00     0.198 C 
BRANCH  14  15
HETATM   15  O   UNL     1      40.889 -15.753   1.769  1.00  0.00    -0.394 OA
HETATM   16  C   UNL     1      40.216 -15.060   0.727  1.00  0.00     0.201 C 
ENDBRANCH  14  15
ENDBRANCH   7  14
ENDBRANCH   1   7
BRANCH   3  17
HETATM   17  C   UNL     1      43.300 -12.501   5.732  1.00  0.00     0.036 A 
HETATM   18  C   UNL     1      42.459 -11.396   5.812  1.00  0.00     0.030 A 
HETATM   19  C   UNL     1      42.775 -10.318   6.651  1.00  0.00     0.010 A 
HETATM   20  C   UNL     1      43.931 -10.315   7.450  1.00  0.00    -0.054 A 
HETATM   21  C   UNL     1      44.786 -11.419   7.330  1.00  0.00     0.010 A 
HETATM   22  C   UNL     1      44.470 -12.499   6.494  1.00  0.00     0.030 A 
BRANCH  20  23
HETATM   23  C   UNL     1      44.243  -9.107   8.339  1.00  0.00     0.018 C 
HETATM   24  C   UNL     1      43.031  -8.612   9.163  1.00  0.00     0.009 C 
HETATM   25  C   UNL     1      42.695  -9.546  10.324  1.00  0.00     0.001 C 
HETATM   26  C   UNL     1      43.888  -9.727  11.255  1.00  0.00     0.000 C 
HETATM   27  C   UNL     1      45.137 -10.173  10.499  1.00  0.00     0.001 C 
HETATM   28  C   UNL     1      45.440  -9.260   9.307  1.00  0.00     0.009 C 
ENDBRANCH  20  23
ENDBRANCH   3  17
TORSDOF 6
ENDMDL
MODEL 2
REMARK VINA RESULT:      -7.6      3.582      8.952
REMARK  6 active torsions:
REMARK  status: ('A' for Active; 'I' for Inactive)
REMARK    1  A    between atoms: C_6  and  C_7 
REMARK    2  A    between atoms: C_7  and  N_8 
REMARK    3  A    between atoms: C_7  and  C_24 
REMARK       I    between atoms: N_8  and  C_9 
REMARK       I    between atoms: C_9  and  N_10 
REMARK    4  A    between atoms: N_10  and  C_11 
REMARK    5  A    between atoms: C_14  and  C_15 
REMARK    6  A    between atoms: C_24  and  O_25 
ROOT
HETATM    1  N   UNL     1      43.978  -9.886   8.952  1.00  0.00    -0.331 N 
HETATM    2  C   UNL     1      44.227 -10.910   8.091  1.00  0.00     0.321 C 
HETATM    3  N   UNL     1      43.160 -11.368   7.372  1.00  0.00    -0.309 N 
HETATM    4  O   UNL     1      45.381 -11.322   8.035  1.00  0.00    -0.247 OA
HETATM    5  H   UNL     1      44.816  -9.617   9.450  1.00  0.00     0.165 HD
HETATM    6  H   UNL     1      42.277 -10.923   7.545  1.00  0.00     0.170 HD
ENDROOT
BRANCH   1   7
HETATM    7  C   UNL     1      42.739  -9.204   9.315  1.00  0.00     0.161 C 
BRANCH   7   8
HETATM    8  C   UNL     1      42.413  -9.544  10.736  1.00  0.00     0.056 A 
HETATM    9  N   UNL     1      41.128  -9.692  11.207  1.00  0.00    -0.277 N 
HETATM   10  C   UNL     1      39.894  -9.583  10.464  1.00  0.00     0.179 C 
HETATM   11  N   UNL     1      41.070  -9.963  12.523  1.00  0.00    -0.185 NA
HETATM   12  C   UNL     1      42.347 -10.013  12.901  1.00  0.00     0.141 A 
HETATM   13  C   UNL     1      43.224  -9.756  11.838  1.00  0.00     0.050 A 
ENDBRANCH   7   8
BRANCH   7  14
HETATM   14  C   UNL     1      42.879  -7.676   9.130  1.00  0.00     0.198 C 
BRANCH  14  15
HETATM   15  O   UNL     1      43.090  -7.389   7.743  1.00  0.00    -0.394 OA
HETATM   16  C   UNL     1      41.905  -7.568   6.980  1.00  0.00     0.201 C 
ENDBRANCH  14  15
ENDBRANCH   7  14
ENDBRANCH   1   7
BRANCH   3  17
HETATM   17  C   UNL     1      43.145 -12.404   6.415  1.00  0.00     0.036 A 
HETATM   18  C   UNL     1      43.170 -13.759   6.725  1.00  0.00     0.030 A 
HETATM   19  C   UNL     1      43.143 -14.725   5.709  1.00  0.00     0.010 A 
HETATM   20  C   UNL     1      43.071 -14.370   4.351  1.00  0.00    -0.054 A 
HETATM   21  C   UNL     1      43.083 -13.000   4.055  1.00  0.00     0.010 A 
HETATM   22  C   UNL     1      43.107 -12.034   5.070  1.00  0.00     0.030 A 
BRANCH  20  23
HETATM   23  C   UNL     1      43.061 -15.458   3.275  1.00  0.00     0.018 C 
HETATM   24  C   UNL     1      42.043 -16.593   3.548  1.00  0.00     0.009 C 
HETATM   25  C   UNL     1      40.601 -16.153   3.305  1.00  0.00     0.001 C 
HETATM   26  C   UNL     1      40.408 -15.645   1.881  1.00  0.00     0.000 C 
HETATM   27  C   UNL     1      41.412 -14.551   1.526  1.00  0.00     0.001 C 
HETATM   28  C   UNL     1      42.852 -14.981   1.818  1.00  0.00     0.009 C 
ENDBRANCH  20  23
ENDBRANCH   3  17
TORSDOF 6
ENDMDL
MODEL 3
REMARK VINA RESULT:      -7.6      1.375      1.837
REMARK  6 active torsions:
REMARK  status: ('A' for Active; 'I' for Inactive)
REMARK    1  A    between atoms: C_6  and  C_7 
REMARK    2  A    between atoms: C_7  and  N_8 
REMARK    3  A    between atoms: C_7  and  C_24 
REMARK       I    between atoms: N_8  and  C_9 
REMARK       I    between atoms: C_9  and  N_10 
REMARK    4  A    between atoms: N_10  and  C_11 
REMARK    5  A    between atoms: C_14  and  C_15 
REMARK    6  A    between atoms: C_24  and  O_25 
ROOT
HETATM    1  N   UNL     1      40.161 -14.379   4.573  1.00  0.00    -0.331 N 
HETATM    2  C   UNL     1      40.593 -13.474   5.493  1.00  0.00     0.321 C 
HETATM    3  N   UNL     1      41.800 -12.886   5.242  1.00  0.00    -0.309 N 
HETATM    4  O   UNL     1      39.861 -13.265   6.456  1.00  0.00    -0.247 OA
HETATM    5  H   UNL     1      39.269 -14.773   4.841  1.00  0.00     0.165 HD
HETATM    6  H   UNL     1      42.276 -13.177   4.408  1.00  0.00     0.170 HD
ENDROOT
BRANCH   1   7
HETATM    7  C   UNL     1      40.787 -14.908   3.365  1.00  0.00     0.161 C 
BRANCH   7   8
HETATM    8  C   UNL     1      41.851 -15.880   3.773  1.00  0.00     0.056 A 
HETATM    9  N   UNL     1      42.992 -16.110   3.039  1.00  0.00    -0.277 N 
HETATM   10  C   UNL     1      43.394 -15.478   1.804  1.00  0.00     0.179 C 
HETATM   11  N   UNL     1      43.790 -17.050   3.575  1.00  0.00    -0.185 NA
HETATM   12  C   UNL     1      43.160 -17.414   4.691  1.00  0.00     0.141 A 
HETATM   13  C   UNL     1      41.949 -16.727   4.864  1.00  0.00     0.050 A 
ENDBRANCH   7   8
BRANCH   7  14
HETATM   14  C   UNL     1      39.739 -15.585   2.454  1.00  0.00     0.198 C 
BRANCH  14  15
HETATM   15  O   UNL     1      40.063 -15.315   1.086  1.00  0.00    -0.394 OA
HETATM   16  C   UNL     1      40.094 -13.921   0.815  1.00  0.00     0.201 C 
ENDBRANCH  14  15
ENDBRANCH   7  14
ENDBRANCH   1   7
BRANCH   3  17
HETATM   17  C   UNL     1      42.468 -11.919   6.021  1.00  0.00     0.036 A 
HETATM   18  C   UNL     1      42.056 -10.597   6.156  1.00  0.00     0.030 A 
HETATM   19  C   UNL     1      42.776  -9.703   6.960  1.00  0.00     0.010 A 
HETATM   20  C   UNL     1      43.921 -10.102   7.670  1.00  0.00    -0.054 A 
HETATM   21  C   UNL     1      44.343 -11.427   7.495  1.00  0.00     0.010 A 
HETATM   22  C   UNL     1      43.622 -12.324   6.694  1.00  0.00     0.030 A 
BRANCH  20  23
HETATM   23  C   UNL     1      44.686  -9.086   8.523  1.00  0.00     0.018 C 
HETATM   24  C   UNL     1      43.812  -7.909   9.020  1.00  0.00     0.009 C 
HETATM   25  C   UNL     1      42.855  -8.325  10.136  1.00  0.00     0.001 C 
HETATM   26  C   UNL     1      43.609  -8.919  11.320  1.00  0.00     0.000 C 
HETATM   27  C   UNL     1      44.528 -10.061  10.895  1.00  0.00     0.001 C 
HETATM   28  C   UNL     1      45.451  -9.652   9.743  1.00  0.00     0.009 C 
ENDBRANCH  20  23
ENDBRANCH   3  17
TORSDOF 6
ENDMDL
MODEL 4
REMARK VINA RESULT:      -7.4      3.582      5.780
REMARK  6 active torsions:
REMARK  status: ('A' for Active; 'I' for Inactive)
REMARK    1  A    between atoms: C_6  and  C_7 
REMARK    2  A    between atoms: C_7  and  N_8 
REMARK    3  A    between atoms: C_7  and  C_24 
REMARK       I    between atoms: N_8  and  C_9 
REMARK       I    between atoms: C_9  and  N_10 
REMARK    4  A    between atoms: N_10  and  C_11 
REMARK    5  A    between atoms: C_14  and  C_15 
REMARK    6  A    between atoms: C_24  and  O_25 
ROOT
HETATM    1  N   UNL     1      44.494 -12.019   6.983  1.00  0.00    -0.331 N 
HETATM    2  C   UNL     1      44.647 -11.125   7.998  1.00  0.00     0.321 C 
HETATM    3  N   UNL     1      43.539 -10.873   8.755  1.00  0.00    -0.309 N 
HETATM    4  O   UNL     1      45.762 -10.633   8.144  1.00  0.00    -0.247 OA
HETATM    5  H   UNL     1      45.356 -12.138   6.469  1.00  0.00     0.165 HD
HETATM    6  H   UNL     1      42.698 -11.356   8.494  1.00  0.00     0.170 HD
ENDROOT
BRANCH   1   7
HETATM    7  C   UNL     1      43.321 -12.735   6.491  1.00  0.00     0.161 C 
BRANCH   7   8
HETATM    8  C   UNL     1      43.002 -12.229   5.118  1.00  0.00     0.056 A 
HETATM    9  N   UNL     1      41.734 -12.231   4.583  1.00  0.00    -0.277 N 
HETATM   10  C   UNL     1      40.508 -12.672   5.208  1.00  0.00     0.179 C 
HETATM   11  N   UNL     1      41.686 -11.763   3.323  1.00  0.00    -0.185 NA
HETATM   12  C   UNL     1      42.948 -11.431   3.051  1.00  0.00     0.141 A 
HETATM   13  C   UNL     1      43.809 -11.702   4.124  1.00  0.00     0.050 A 
ENDBRANCH   7   8
BRANCH   7  14
HETATM   14  C   UNL     1      43.574 -14.259   6.473  1.00  0.00     0.198 C 
BRANCH  14  15
HETATM   15  O   UNL     1      42.956 -14.850   7.622  1.00  0.00    -0.394 OA
HETATM   16  C   UNL     1      42.280 -16.057   7.297  1.00  0.00     0.201 C 
ENDBRANCH  14  15
ENDBRANCH   7  14
ENDBRANCH   1   7
BRANCH   3  17
HETATM   17  C   UNL     1      43.426 -10.004   9.859  1.00  0.00     0.036 A 
HETATM   18  C   UNL     1      43.365  -8.618   9.765  1.00  0.00     0.030 A 
HETATM   19  C   UNL     1      43.244  -7.828  10.917  1.00  0.00     0.010 A 
HETATM   20  C   UNL     1      43.163  -8.397  12.200  1.00  0.00    -0.054 A 
HETATM   21  C   UNL     1      43.264  -9.792  12.280  1.00  0.00     0.010 A 
HETATM   22  C   UNL     1      43.381 -10.583  11.129  1.00  0.00     0.030 A 
BRANCH  20  23
HETATM   23  C   UNL     1      43.049  -7.494  13.431  1.00  0.00     0.018 C 
HETATM   24  C   UNL     1      42.363  -6.136  13.145  1.00  0.00     0.009 C 
HETATM   25  C   UNL     1      40.856  -6.275  12.944  1.00  0.00     0.001 C 
HETATM   26  C   UNL     1      40.192  -6.922  14.154  1.00  0.00     0.000 C 
HETATM   27  C   UNL     1      40.850  -8.249  14.522  1.00  0.00     0.001 C 
HETATM   28  C   UNL     1      42.367  -8.112  14.674  1.00  0.00     0.009 C 
ENDBRANCH  20  23
ENDBRANCH   3  17
TORSDOF 6
ENDMDL
MODEL 5
REMARK VINA RESULT:      -7.0      2.304      4.016
REMARK  6 active torsions:
REMARK  status: ('A' for Active; 'I' for Inactive)
REMARK    1  A    between atoms: C_6  and  C_7 
REMARK    2  A    between atoms: C_7  and  N_8 
REMARK    3  A    between atoms: C_7  and  C_24 
REMARK       I    between atoms: N_8  and  C_9 
REMARK       I    between atoms: C_9  and  N_10 
REMARK    4  A    between atoms: N_10  and  C_11 
REMARK    5  A    between atoms: C_14  and  C_15 
REMARK    6  A    between atoms: C_24  and  O_25 
ROOT
HETATM    1  N   UNL     1      42.698 -13.076   2.710  1.00  0.00    -0.331 N 
HETATM    2  C   UNL     1      43.327 -12.282   3.619  1.00  0.00     0.321 C 
HETATM    3  N   UNL     1      42.845 -12.324   4.896  1.00  0.00    -0.309 N 
HETATM    4  O   UNL     1      44.270 -11.609   3.213  1.00  0.00    -0.247 OA
HETATM    5  H   UNL     1      43.109 -12.976   1.792  1.00  0.00     0.165 HD
HETATM    6  H   UNL     1      42.058 -12.926   5.059  1.00  0.00     0.170 HD
ENDROOT
BRANCH   1   7
HETATM    7  C   UNL     1      41.528 -13.941   2.825  1.00  0.00     0.161 C 
BRANCH   7   8
HETATM    8  C   UNL     1      40.794 -13.917   1.520  1.00  0.00     0.056 A 
HETATM    9  N   UNL     1      40.037 -12.849   1.094  1.00  0.00    -0.277 N 
HETATM   10  C   UNL     1      39.827 -11.587   1.766  1.00  0.00     0.179 C 
HETATM   11  N   UNL     1      39.438 -13.059  -0.092  1.00  0.00    -0.185 NA
HETATM   12  C   UNL     1      39.838 -14.280  -0.446  1.00  0.00     0.141 A 
HETATM   13  C   UNL     1      40.675 -14.863   0.517  1.00  0.00     0.050 A 
ENDBRANCH   7   8
BRANCH   7  14
HETATM   14  C   UNL     1      41.945 -15.382   3.198  1.00  0.00     0.198 C 
BRANCH  14  15
HETATM   15  O   UNL     1      42.241 -15.437   4.598  1.00  0.00    -0.394 OA
HETATM   16  C   UNL     1      42.683 -16.727   4.995  1.00  0.00     0.201 C 
ENDBRANCH  14  15
ENDBRANCH   7  14
ENDBRANCH   1   7
BRANCH   3  17
HETATM   17  C   UNL     1      43.314 -11.614   6.020  1.00  0.00     0.036 A 
HETATM   18  C   UNL     1      44.432 -11.973   6.765  1.00  0.00     0.030 A 
HETATM   19  C   UNL     1      44.835 -11.204   7.866  1.00  0.00     0.010 A 
HETATM   20  C   UNL     1      44.145 -10.040   8.248  1.00  0.00    -0.054 A 
HETATM   21  C   UNL     1      43.000  -9.713   7.509  1.00  0.00     0.010 A 
HETATM   22  C   UNL     1      42.598 -10.479   6.407  1.00  0.00     0.030 A 
BRANCH  20  23
HETATM   23  C   UNL     1      44.611  -9.241   9.467  1.00  0.00     0.018 C 
HETATM   24  C   UNL     1      43.565  -8.220   9.978  1.00  0.00     0.009 C 
HETATM   25  C   UNL     1      42.399  -8.893  10.699  1.00  0.00     0.001 C 
HETATM   26  C   UNL     1      42.884  -9.737  11.872  1.00  0.00     0.000 C 
HETATM   27  C   UNL     1      43.954 -10.739  11.448  1.00  0.00     0.001 C 
HETATM   28  C   UNL     1      45.097 -10.065  10.683  1.00  0.00     0.009 C 
ENDBRANCH  20  23
ENDBRANCH   3  17
TORSDOF 6
ENDMDL
MODEL 6
REMARK VINA RESULT:      -6.8      6.038      9.650
REMARK  6 active torsions:
REMARK  status: ('A' for Active; 'I' for Inactive)
REMARK    1  A    between atoms: C_6  and  C_7 
REMARK    2  A    between atoms: C_7  and  N_8 
REMARK    3  A    between atoms: C_7  and  C_24 
REMARK       I    between atoms: N_8  and  C_9 
REMARK       I    between atoms: C_9  and  N_10 
REMARK    4  A    between atoms: N_10  and  C_11 
REMARK    5  A    between atoms: C_14  and  C_15 
REMARK    6  A    between atoms: C_24  and  O_25 
ROOT
HETATM    1  N   UNL     1      40.645 -10.917  -3.482  1.00  0.00    -0.331 N 
HETATM    2  C   UNL     1      40.813 -12.049  -2.746  1.00  0.00     0.321 C 
HETATM    3  N   UNL     1      40.393 -11.996  -1.448  1.00  0.00    -0.309 N 
HETATM    4  O   UNL     1      41.319 -13.013  -3.314  1.00  0.00    -0.247 OA
HETATM    5  H   UNL     1      40.992 -11.039  -4.423  1.00  0.00     0.165 HD
HETATM    6  H   UNL     1      40.006 -11.123  -1.137  1.00  0.00     0.170 HD
ENDROOT
BRANCH   1   7
HETATM    7  C   UNL     1      40.146  -9.593  -3.122  1.00  0.00     0.161 C 
BRANCH   7   8
HETATM    8  C   UNL     1      41.276  -8.617  -3.234  1.00  0.00     0.056 A 
HETATM    9  N   UNL     1      42.109  -8.296  -2.186  1.00  0.00    -0.277 N 
HETATM   10  C   UNL     1      42.087  -8.824  -0.842  1.00  0.00     0.179 C 
HETATM   11  N   UNL     1      43.032  -7.371  -2.504  1.00  0.00    -0.185 NA
HETATM   12  C   UNL     1      42.801  -7.109  -3.790  1.00  0.00     0.141 A 
HETATM   13  C   UNL     1      41.721  -7.847  -4.295  1.00  0.00     0.050 A 
ENDBRANCH   7   8
BRANCH   7  14
HETATM   14  C   UNL     1      38.969  -9.183  -4.035  1.00  0.00     0.198 C 
BRANCH  14  15
HETATM   15  O   UNL     1      37.828  -9.990  -3.720  1.00  0.00    -0.394 OA
HETATM   16  C   UNL     1      36.625  -9.234  -3.730  1.00  0.00     0.201 C 
ENDBRANCH  14  15
ENDBRANCH   7  14
ENDBRANCH   1   7
BRANCH   3  17
HETATM   17  C   UNL     1      40.444 -13.021  -0.481  1.00  0.00     0.036 A 
HETATM   18  C   UNL     1      39.844 -14.267  -0.625  1.00  0.00     0.030 A 
HETATM   19  C   UNL     1      39.952 -15.233   0.386  1.00  0.00     0.010 A 
HETATM   20  C   UNL     1      40.678 -14.994   1.565  1.00  0.00    -0.054 A 
HETATM   21  C   UNL     1      41.246 -13.721   1.710  1.00  0.00     0.010 A 
HETATM   22  C   UNL     1      41.141 -12.755   0.699  1.00  0.00     0.030 A 
BRANCH  20  23
HETATM   23  C   UNL     1      40.755 -16.073   2.648  1.00  0.00     0.018 C 
HETATM   24  C   UNL     1      41.822 -17.158   2.370  1.00  0.00     0.009 C 
HETATM   25  C   UNL     1      43.245 -16.647   2.591  1.00  0.00     0.001 C 
HETATM   26  C   UNL     1      43.431 -16.120   4.009  1.00  0.00     0.000 C 
HETATM   27  C   UNL     1      42.380 -15.073   4.369  1.00  0.00     0.001 C 
HETATM   28  C   UNL     1      40.958 -15.574   4.099  1.00  0.00     0.009 C 
ENDBRANCH  20  23
ENDBRANCH   3  17
TORSDOF 6
ENDMDL
MODEL 7
REMARK VINA RESULT:      -6.7      3.812      9.237
REMARK  6 active torsions:
REMARK  status: ('A' for Active; 'I' for Inactive)
REMARK    1  A    between atoms: C_6  and  C_7 
REMARK    2  A    between atoms: C_7  and  N_8 
REMARK    3  A    between atoms: C_7  and  C_24 
REMARK       I    between atoms: N_8  and  C_9 
REMARK       I    between atoms: C_9  and  N_10 
REMARK    4  A    between atoms: N_10  and  C_11 
REMARK    5  A    between atoms: C_14  and  C_15 
REMARK    6  A    between atoms: C_24  and  O_25 
ROOT
HETATM    1  N   UNL     1      39.549  -9.923   8.365  1.00  0.00    -0.331 N 
HETATM    2  C   UNL     1      39.357 -10.792   7.336  1.00  0.00     0.321 C 
HETATM    3  N   UNL     1      40.482 -11.328   6.778  1.00  0.00    -0.309 N 
HETATM    4  O   UNL     1      38.196 -11.017   7.007  1.00  0.00    -0.247 OA
HETATM    5  H   UNL     1      38.669  -9.566   8.710  1.00  0.00     0.165 HD
HETATM    6  H   UNL     1      41.360 -11.029   7.163  1.00  0.00     0.170 HD
ENDROOT
BRANCH   1   7
HETATM    7  C   UNL     1      40.767  -9.387   8.965  1.00  0.00     0.161 C 
BRANCH   7   8
HETATM    8  C   UNL     1      41.154  -8.148   8.218  1.00  0.00     0.056 A 
HETATM    9  N   UNL     1      42.459  -7.776   7.988  1.00  0.00    -0.277 N 
HETATM   10  C   UNL     1      43.662  -8.478   8.373  1.00  0.00     0.179 C 
HETATM   11  N   UNL     1      42.573  -6.610   7.328  1.00  0.00    -0.185 NA
HETATM   12  C   UNL     1      41.313  -6.236   7.109  1.00  0.00     0.141 A 
HETATM   13  C   UNL     1      40.390  -7.147   7.643  1.00  0.00     0.050 A 
ENDBRANCH   7   8
BRANCH   7  14
HETATM   14  C   UNL     1      40.552  -9.083  10.465  1.00  0.00     0.198 C 
BRANCH  14  15
HETATM   15  O   UNL     1      39.516  -9.932  10.971  1.00  0.00    -0.394 OA
HETATM   16  C   UNL     1      39.740 -10.291  12.328  1.00  0.00     0.201 C 
ENDBRANCH  14  15
ENDBRANCH   7  14
ENDBRANCH   1   7
BRANCH   3  17
HETATM   17  C   UNL     1      40.563 -12.251   5.715  1.00  0.00     0.036 A 
HETATM   18  C   UNL     1      40.644 -13.629   5.875  1.00  0.00     0.030 A 
HETATM   19  C   UNL     1      40.713 -14.476   4.760  1.00  0.00     0.010 A 
HETATM   20  C   UNL     1      40.685 -13.975   3.447  1.00  0.00    -0.054 A 
HETATM   21  C   UNL     1      40.640 -12.582   3.303  1.00  0.00     0.010 A 
HETATM   22  C   UNL     1      40.568 -11.734   4.417  1.00  0.00     0.030 A 
BRANCH  20  23
HETATM   23  C   UNL     1      40.780 -14.936   2.259  1.00  0.00     0.018 C 
HETATM   24  C   UNL     1      41.931 -14.602   1.279  1.00  0.00     0.009 C 
HETATM   25  C   UNL     1      43.303 -14.958   1.848  1.00  0.00     0.001 C 
HETATM   26  C   UNL     1      43.382 -16.434   2.222  1.00  0.00     0.000 C 
HETATM   27  C   UNL     1      42.247 -16.846   3.154  1.00  0.00     0.001 C 
HETATM   28  C   UNL     1      40.877 -16.442   2.602  1.00  0.00     0.009 C 
ENDBRANCH  20  23
ENDBRANCH   3  17
TORSDOF 6
ENDMDL
MODEL 8
REMARK VINA RESULT:      -6.7      3.391      8.888
REMARK  6 active torsions:
REMARK  status: ('A' for Active; 'I' for Inactive)
REMARK    1  A    between atoms: C_6  and  C_7 
REMARK    2  A    between atoms: C_7  and  N_8 
REMARK    3  A    between atoms: C_7  and  C_24 
REMARK       I    between atoms: N_8  and  C_9 
REMARK       I    between atoms: C_9  and  N_10 
REMARK    4  A    between atoms: N_10  and  C_11 
REMARK    5  A    between atoms: C_14  and  C_15 
REMARK    6  A    between atoms: C_24  and  O_25 
ROOT
HETATM    1  N   UNL     1      41.697  -9.626   8.337  1.00  0.00    -0.331 N 
HETATM    2  C   UNL     1      41.464 -10.160   7.107  1.00  0.00     0.321 C 
HETATM    3  N   UNL     1      42.201 -11.261   6.776  1.00  0.00    -0.309 N 
HETATM    4  O   UNL     1      40.614  -9.611   6.413  1.00  0.00    -0.247 OA
HETATM    5  H   UNL     1      41.120  -8.811   8.496  1.00  0.00     0.165 HD
HETATM    6  H   UNL     1      42.863 -11.580   7.460  1.00  0.00     0.170 HD
ENDROOT
BRANCH   1   7
HETATM    7  C   UNL     1      42.659  -9.975   9.379  1.00  0.00     0.161 C 
BRANCH   7   8
HETATM    8  C   UNL     1      44.015  -9.517   8.940  1.00  0.00     0.056 A 
HETATM    9  N   UNL     1      44.353  -8.193   8.773  1.00  0.00    -0.277 N 
HETATM   10  C   UNL     1      43.525  -7.031   9.001  1.00  0.00     0.179 C 
HETATM   11  N   UNL     1      45.614  -8.015   8.340  1.00  0.00    -0.185 NA
HETATM   12  C   UNL     1      46.103  -9.251   8.247  1.00  0.00     0.141 A 
HETATM   13  C   UNL     1      45.157 -10.223   8.601  1.00  0.00     0.050 A 
ENDBRANCH   7   8
BRANCH   7  14
HETATM   14  C   UNL     1      42.267  -9.330  10.727  1.00  0.00     0.198 C 
BRANCH  14  15
HETATM   15  O   UNL     1      40.919  -8.851  10.643  1.00  0.00    -0.394 OA
HETATM   16  C   UNL     1      40.595  -7.989  11.725  1.00  0.00     0.201 C 
ENDBRANCH  14  15
ENDBRANCH   7  14
ENDBRANCH   1   7
BRANCH   3  17
HETATM   17  C   UNL     1      42.152 -12.006   5.579  1.00  0.00     0.036 A 
HETATM   18  C   UNL     1      41.026 -12.680   5.120  1.00  0.00     0.030 A 
HETATM   19  C   UNL     1      41.063 -13.390   3.911  1.00  0.00     0.010 A 
HETATM   20  C   UNL     1      42.218 -13.435   3.113  1.00  0.00    -0.054 A 
HETATM   21  C   UNL     1      43.354 -12.781   3.609  1.00  0.00     0.010 A 
HETATM   22  C   UNL     1      43.319 -12.068   4.815  1.00  0.00     0.030 A 
BRANCH  20  23
HETATM   23  C   UNL     1      42.217 -14.238   1.810  1.00  0.00     0.018 C 
HETATM   24  C   UNL     1      43.426 -15.194   1.667  1.00  0.00     0.009 C 
HETATM   25  C   UNL     1      43.313 -16.417   2.575  1.00  0.00     0.001 C 
HETATM   26  C   UNL     1      42.030 -17.194   2.301  1.00  0.00     0.000 C 
HETATM   27  C   UNL     1      40.796 -16.301   2.381  1.00  0.00     0.001 C 
HETATM   28  C   UNL     1      40.936 -15.052   1.507  1.00  0.00     0.009 C 
ENDBRANCH  20  23
ENDBRANCH   3  17
TORSDOF 6
ENDMDL
MODEL 9
REMARK VINA RESULT:      -6.7      3.763      6.283
REMARK  6 active torsions:
REMARK  status: ('A' for Active; 'I' for Inactive)
REMARK    1  A    between atoms: C_6  and  C_7 
REMARK    2  A    between atoms: C_7  and  N_8 
REMARK    3  A    between atoms: C_7  and  C_24 
REMARK       I    between atoms: N_8  and  C_9 
REMARK       I    between atoms: C_9  and  N_10 
REMARK    4  A    between atoms: N_10  and  C_11 
REMARK    5  A    between atoms: C_14  and  C_15 
REMARK    6  A    between atoms: C_24  and  O_25 
ROOT
HETATM    1  N   UNL     1      42.823 -10.447   6.584  1.00  0.00    -0.331 N 
HETATM    2  C   UNL     1      42.669  -9.698   7.709  1.00  0.00     0.321 C 
HETATM    3  N   UNL     1      42.969 -10.313   8.891  1.00  0.00    -0.309 N 
HETATM    4  O   UNL     1      42.282  -8.543   7.561  1.00  0.00    -0.247 OA
HETATM    5  H   UNL     1      42.570  -9.921   5.759  1.00  0.00     0.165 HD
HETATM    6  H   UNL     1      43.266 -11.270   8.836  1.00  0.00     0.170 HD
ENDROOT
BRANCH   1   7
HETATM    7  C   UNL     1      43.197 -11.845   6.394  1.00  0.00     0.161 C 
BRANCH   7   8
HETATM    8  C   UNL     1      42.685 -12.293   5.060  1.00  0.00     0.056 A 
HETATM    9  N   UNL     1      41.484 -12.942   4.885  1.00  0.00    -0.277 N 
HETATM   10  C   UNL     1      40.507 -13.284   5.893  1.00  0.00     0.179 C 
HETATM   11  N   UNL     1      41.243 -13.282   3.607  1.00  0.00    -0.185 NA
HETATM   12  C   UNL     1      42.302 -12.821   2.942  1.00  0.00     0.141 A 
HETATM   13  C   UNL     1      43.232 -12.203   3.791  1.00  0.00     0.050 A 
ENDBRANCH   7   8
BRANCH   7  14
HETATM   14  C   UNL     1      44.729 -12.022   6.486  1.00  0.00     0.198 C 
BRANCH  14  15
HETATM   15  O   UNL     1      45.341 -10.735   6.627  1.00  0.00    -0.394 OA
HETATM   16  C   UNL     1      46.325 -10.725   7.652  1.00  0.00     0.201 C 
ENDBRANCH  14  15
ENDBRANCH   7  14
ENDBRANCH   1   7
BRANCH   3  17
HETATM   17  C   UNL     1      42.903  -9.767  10.190  1.00  0.00     0.036 A 
HETATM   18  C   UNL     1      43.959  -9.123  10.825  1.00  0.00     0.030 A 
HETATM   19  C   UNL     1      43.804  -8.601  12.117  1.00  0.00     0.010 A 
HETATM   20  C   UNL     1      42.585  -8.687  12.810  1.00  0.00    -0.054 A 
HETATM   21  C   UNL     1      41.542  -9.370  12.170  1.00  0.00     0.010 A 
HETATM   22  C   UNL     1      41.694  -9.891  10.877  1.00  0.00     0.030 A 
BRANCH  20  23
HETATM   23  C   UNL     1      42.467  -8.117  14.226  1.00  0.00     0.018 C 
HETATM   24  C   UNL     1      43.007  -6.673  14.361  1.00  0.00     0.009 C 
HETATM   25  C   UNL     1      42.078  -5.641  13.726  1.00  0.00     0.001 C 
HETATM   26  C   UNL     1      40.680  -5.707  14.329  1.00  0.00     0.000 C 
HETATM   27  C   UNL     1      40.101  -7.118  14.270  1.00  0.00     0.001 C 
HETATM   28  C   UNL     1      41.058  -8.154  14.865  1.00  0.00     0.009 C 
ENDBRANCH  20  23
ENDBRANCH   3  17
TORSDOF 6
ENDMDL
MODEL 10
REMARK VINA RESULT:      -6.7      3.669      9.112
REMARK  6 active torsions:
REMARK  status: ('A' for Active; 'I' for Inactive)
REMARK    1  A    between atoms: C_6  and  C_7 
REMARK    2  A    between atoms: C_7  and  N_8 
REMARK    3  A    between atoms: C_7  and  C_24 
REMARK       I    between atoms: N_8  and  C_9 
REMARK       I    between atoms: C_9  and  N_10 
REMARK    4  A    between atoms: N_10  and  C_11 
REMARK    5  A    between atoms: C_14  and  C_15 
REMARK    6  A    between atoms: C_24  and  O_25 
ROOT
HETATM    1  N   UNL     1      41.161  -9.250   7.468  1.00  0.00    -0.331 N 
HETATM    2  C   UNL     1      41.410 -10.228   6.555  1.00  0.00     0.321 C 
HETATM    3  N   UNL     1      40.742 -11.406   6.732  1.00  0.00    -0.309 N 
HETATM    4  O   UNL     1      42.205  -9.964   5.658  1.00  0.00    -0.247 OA
HETATM    5  H   UNL     1      41.703  -8.420   7.270  1.00  0.00     0.165 HD
HETATM    6  H   UNL     1      40.130 -11.460   7.526  1.00  0.00     0.170 HD
ENDROOT
BRANCH   1   7
HETATM    7  C   UNL     1      40.339  -9.237   8.674  1.00  0.00     0.161 C 
BRANCH   7   8
HETATM    8  C   UNL     1      41.243  -9.081   9.858  1.00  0.00     0.056 A 
HETATM    9  N   UNL     1      40.902  -9.474  11.132  1.00  0.00    -0.277 N 
HETATM   10  C   UNL     1      39.679 -10.110  11.566  1.00  0.00     0.179 C 
HETATM   11  N   UNL     1      41.852  -9.206  12.046  1.00  0.00    -0.185 NA
HETATM   12  C   UNL     1      42.835  -8.649  11.338  1.00  0.00     0.141 A 
HETATM   13  C   UNL     1      42.512  -8.540   9.978  1.00  0.00     0.050 A 
ENDBRANCH   7   8
BRANCH   7  14
HETATM   14  C   UNL     1      39.299  -8.096   8.619  1.00  0.00     0.198 C 
BRANCH  14  15
HETATM   15  O   UNL     1      38.614  -8.148   7.363  1.00  0.00    -0.394 OA
HETATM   16  C   UNL     1      38.369  -6.850   6.839  1.00  0.00     0.201 C 
ENDBRANCH  14  15
ENDBRANCH   7  14
ENDBRANCH   1   7
BRANCH   3  17
HETATM   17  C   UNL     1      40.811 -12.566   5.934  1.00  0.00     0.036 A 
HETATM   18  C   UNL     1      41.582 -13.683   6.238  1.00  0.00     0.030 A 
HETATM   19  C   UNL     1      41.585 -14.801   5.392  1.00  0.00     0.010 A 
HETATM   20  C   UNL     1      40.805 -14.848   4.224  1.00  0.00    -0.054 A 
HETATM   21  C   UNL     1      40.063 -13.700   3.913  1.00  0.00     0.010 A 
HETATM   22  C   UNL     1      40.056 -12.584   4.760  1.00  0.00     0.030 A 
BRANCH  20  23
HETATM   23  C   UNL     1      40.854 -16.083   3.321  1.00  0.00     0.018 C 
HETATM   24  C   UNL     1      40.723 -15.756   1.813  1.00  0.00     0.009 C 
HETATM   25  C   UNL     1      41.991 -15.125   1.241  1.00  0.00     0.001 C 
HETATM   26  C   UNL     1      43.202 -16.026   1.451  1.00  0.00     0.000 C 
HETATM   27  C   UNL     1      43.367 -16.426   2.915  1.00  0.00     0.001 C 
HETATM   28  C   UNL     1      42.078 -17.013   3.495  1.00  0.00     0.009 C 
ENDBRANCH  20  23
ENDBRANCH   3  17
TORSDOF 6
ENDMDL
