MODEL 1
REMARK VINA RESULT:      -9.1      0.000      0.000
REMARK  6 active torsions:
REMARK  status: ('A' for Active; 'I' for Inactive)
REMARK    1  A    between atoms: O_2  and  C_3 
REMARK    2  A    between atoms: C_6  and  C_7 
REMARK    3  A    between atoms: C_12  and  C_13 
REMARK       I    between atoms: C_13  and  N_14 
REMARK    4  A    between atoms: N_14  and  C_15 
REMARK    5  A    between atoms: C_15  and  C_16 
REMARK    6  A    between atoms: C_24  and  C_25 
ROOT
HETATM    1  C   UNL     1      40.221 -15.409   3.020  1.00  0.00     0.118 C 
HETATM    2  N   UNL     1      39.824 -15.378   1.619  1.00  0.00    -0.366 N 
HETATM    3  C   UNL     1      40.160 -14.364   0.797  1.00  0.00     0.123 A 
HETATM    4  N   UNL     1      40.781 -13.236   1.256  1.00  0.00    -0.240 N 
HETATM    5  N   UNL     1      41.020 -12.319   0.299  1.00  0.00    -0.165 NA
HETATM    6  C   UNL     1      40.564 -12.911  -0.829  1.00  0.00     0.148 A 
HETATM    7  C   UNL     1      40.005 -14.188  -0.551  1.00  0.00     0.088 A 
HETATM    8  C   UNL     1      41.129 -12.998   2.644  1.00  0.00     0.221 C 
HETATM    9  C   UNL     1      40.395 -13.985   3.575  1.00  0.00     0.066 C 
HETATM   10  H   UNL     1      39.507 -16.271   1.240  1.00  0.00     0.161 HD
ENDROOT
BRANCH   6  11
HETATM   11  C   UNL     1      40.672 -12.280  -2.152  1.00  0.00     0.272 C 
HETATM   12  N   UNL     1      40.459 -10.924  -2.131  1.00  0.00    -0.351 N 
HETATM   13  H   UNL     1      40.238 -10.514  -1.229  1.00  0.00     0.163 HD
HETATM   14  O   UNL     1      40.950 -12.915  -3.165  1.00  0.00    -0.266 OA
BRANCH  12  15
HETATM   15  C   UNL     1      40.574 -10.092  -3.301  1.00  0.00     0.161 C 
BRANCH  15  16
HETATM   16  C   UNL     1      41.463  -8.891  -3.080  1.00  0.00    -0.041 A 
HETATM   17  C   UNL     1      42.125  -8.677  -1.861  1.00  0.00     0.009 A 
HETATM   18  C   UNL     1      42.980  -7.585  -1.695  1.00  0.00     0.001 A 
HETATM   19  C   UNL     1      43.199  -6.704  -2.752  1.00  0.00     0.000 A 
HETATM   20  C   UNL     1      42.565  -6.915  -3.974  1.00  0.00     0.001 A 
HETATM   21  C   UNL     1      41.706  -8.003  -4.139  1.00  0.00     0.009 A 
ENDBRANCH  15  16
ENDBRANCH  12  15
ENDBRANCH   6  11
BRANCH   8  22
HETATM   22  C   UNL     1      42.630 -12.985   2.823  1.00  0.00     0.409 C 
HETATM   23  F   UNL     1      43.192 -11.775   2.646  1.00  0.00    -0.169 F 
HETATM   24  F   UNL     1      42.997 -13.424   4.051  1.00  0.00    -0.169 F 
HETATM   25  F   UNL     1      43.214 -13.831   1.934  1.00  0.00    -0.169 F 
ENDBRANCH   8  22
BRANCH   1  26
HETATM   26  C   UNL     1      41.389 -16.343   3.277  1.00  0.00    -0.035 A 
HETATM   27  C   UNL     1      41.990 -17.115   2.272  1.00  0.00     0.012 A 
HETATM   28  C   UNL     1      43.083 -17.945   2.550  1.00  0.00     0.037 A 
HETATM   29  C   UNL     1      43.585 -18.035   3.845  1.00  0.00     0.068 A 
HETATM   30  C   UNL     1      42.972 -17.305   4.863  1.00  0.00     0.037 A 
HETATM   31  C   UNL     1      41.893 -16.461   4.583  1.00  0.00     0.012 A 
BRANCH  29  32
HETATM   32  O   UNL     1      44.644 -18.804   4.241  1.00  0.00    -0.356 OA
HETATM   33  C   UNL     1      44.324 -20.025   4.895  1.00  0.00     0.210 C 
ENDBRANCH  29  32
ENDBRANCH   1  26
TORSDOF 6
ENDMDL
MODEL 2
REMARK VINA RESULT:      -8.6      5.494      8.258
REMARK  6 active torsions:
REMARK  status: ('A' for Active; 'I' for Inactive)
REMARK    1  A    between atoms: O_2  and  C_3 
REMARK    2  A    between atoms: C_6  and  C_7 
REMARK    3  A    between atoms: C_12  and  C_13 
REMARK       I    between atoms: C_13  and  N_14 
REMARK    4  A    between atoms: N_14  and  C_15 
REMARK    5  A    between atoms: C_15  and  C_16 
REMARK    6  A    between atoms: C_24  and  C_25 
ROOT
HETATM    1  C   UNL     1      42.223 -14.785   2.933  1.00  0.00     0.118 C 
HETATM    2  N   UNL     1      43.181 -13.796   3.407  1.00  0.00    -0.366 N 
HETATM    3  C   UNL     1      43.045 -13.172   4.595  1.00  0.00     0.123 A 
HETATM    4  N   UNL     1      41.931 -13.329   5.371  1.00  0.00    -0.240 N 
HETATM    5  N   UNL     1      41.957 -12.612   6.512  1.00  0.00    -0.165 NA
HETATM    6  C   UNL     1      43.165 -12.003   6.475  1.00  0.00     0.148 A 
HETATM    7  C   UNL     1      43.866 -12.320   5.281  1.00  0.00     0.088 A 
HETATM    8  C   UNL     1      40.791 -14.150   5.013  1.00  0.00     0.221 C 
HETATM    9  C   UNL     1      40.823 -14.520   3.516  1.00  0.00     0.066 C 
HETATM   10  H   UNL     1      44.077 -13.794   2.919  1.00  0.00     0.161 HD
ENDROOT
BRANCH   6  11
HETATM   11  C   UNL     1      43.651 -11.144   7.566  1.00  0.00     0.272 C 
HETATM   12  N   UNL     1      42.877 -10.029   7.771  1.00  0.00    -0.351 N 
HETATM   13  H   UNL     1      42.080  -9.910   7.151  1.00  0.00     0.163 HD
HETATM   14  O   UNL     1      44.641 -11.424   8.234  1.00  0.00    -0.266 OA
BRANCH  12  15
HETATM   15  C   UNL     1      43.128  -9.080   8.825  1.00  0.00     0.161 C 
BRANCH  15  16
HETATM   16  C   UNL     1      42.457  -9.456  10.124  1.00  0.00    -0.041 A 
HETATM   17  C   UNL     1      43.198  -9.819  11.260  1.00  0.00     0.009 A 
HETATM   18  C   UNL     1      42.557 -10.117  12.464  1.00  0.00     0.001 A 
HETATM   19  C   UNL     1      41.169 -10.036  12.555  1.00  0.00     0.000 A 
HETATM   20  C   UNL     1      40.422  -9.658  11.442  1.00  0.00     0.001 A 
HETATM   21  C   UNL     1      41.061  -9.366  10.235  1.00  0.00     0.009 A 
ENDBRANCH  15  16
ENDBRANCH  12  15
ENDBRANCH   6  11
BRANCH   8  22
HETATM   22  C   UNL     1      40.679 -15.341   5.939  1.00  0.00     0.409 C 
HETATM   23  F   UNL     1      39.753 -15.198   6.905  1.00  0.00    -0.169 F 
HETATM   24  F   UNL     1      40.386 -16.478   5.265  1.00  0.00    -0.169 F 
HETATM   25  F   UNL     1      41.868 -15.566   6.555  1.00  0.00    -0.169 F 
ENDBRANCH   8  22
BRANCH   1  26
HETATM   26  C   UNL     1      42.723 -16.209   3.094  1.00  0.00    -0.035 A 
HETATM   27  C   UNL     1      42.357 -17.252   2.231  1.00  0.00     0.012 A 
HETATM   28  C   UNL     1      42.862 -18.547   2.401  1.00  0.00     0.037 A 
HETATM   29  C   UNL     1      43.731 -18.828   3.452  1.00  0.00     0.068 A 
HETATM   30  C   UNL     1      44.072 -17.811   4.342  1.00  0.00     0.037 A 
HETATM   31  C   UNL     1      43.583 -16.514   4.161  1.00  0.00     0.012 A 
BRANCH  29  32
HETATM   32  O   UNL     1      44.292 -20.046   3.721  1.00  0.00    -0.356 OA
HETATM   33  C   UNL     1      44.113 -20.542   5.042  1.00  0.00     0.210 C 
ENDBRANCH  29  32
ENDBRANCH   1  26
TORSDOF 6
ENDMDL
MODEL 3
REMARK VINA RESULT:      -8.4      6.086      8.809
REMARK  6 active torsions:
REMARK  status: ('A' for Active; 'I' for Inactive)
REMARK    1  A    between atoms: O_2  and  C_3 
REMARK    2  A    between atoms: C_6  and  C_7 
REMARK    3  A    between atoms: C_12  and  C_13 
REMARK       I    between atoms: C_13  and  N_14 
REMARK    4  A    between atoms: N_14  and  C_15 
REMARK    5  A    between atoms: C_15  and  C_16 
REMARK    6  A    between atoms: C_24  and  C_25 
ROOT
HETATM    1  C   UNL     1      42.818 -12.292   2.904  1.00  0.00     0.118 C 
HETATM    2  N   UNL     1      43.955 -11.962   3.753  1.00  0.00    -0.366 N 
HETATM    3  C   UNL     1      43.813 -11.634   5.053  1.00  0.00     0.123 A 
HETATM    4  N   UNL     1      42.583 -11.460   5.625  1.00  0.00    -0.240 N 
HETATM    5  N   UNL     1      42.633 -11.112   6.925  1.00  0.00    -0.165 NA
HETATM    6  C   UNL     1      43.958 -11.104   7.201  1.00  0.00     0.148 A 
HETATM    7  C   UNL     1      44.727 -11.412   6.046  1.00  0.00     0.088 A 
HETATM    8  C   UNL     1      41.324 -11.590   4.918  1.00  0.00     0.221 C 
HETATM    9  C   UNL     1      41.543 -11.582   3.391  1.00  0.00     0.066 C 
HETATM   10  H   UNL     1      44.865 -12.241   3.384  1.00  0.00     0.161 HD
ENDROOT
BRANCH   6  11
HETATM   11  C   UNL     1      44.484 -10.822   8.545  1.00  0.00     0.272 C 
HETATM   12  N   UNL     1      43.506 -10.557   9.471  1.00  0.00    -0.351 N 
HETATM   13  H   UNL     1      42.548 -10.566   9.134  1.00  0.00     0.163 HD
HETATM   14  O   UNL     1      45.683 -10.850   8.802  1.00  0.00    -0.266 OA
BRANCH  12  15
HETATM   15  C   UNL     1      43.786 -10.314  10.863  1.00  0.00     0.161 C 
BRANCH  15  16
HETATM   16  C   UNL     1      43.278  -8.974  11.338  1.00  0.00    -0.041 A 
HETATM   17  C   UNL     1      43.150  -8.674  12.703  1.00  0.00     0.009 A 
HETATM   18  C   UNL     1      42.723  -7.412  13.120  1.00  0.00     0.001 A 
HETATM   19  C   UNL     1      42.436  -6.426  12.178  1.00  0.00     0.000 A 
HETATM   20  C   UNL     1      42.577  -6.702  10.820  1.00  0.00     0.001 A 
HETATM   21  C   UNL     1      42.999  -7.966  10.402  1.00  0.00     0.009 A 
ENDBRANCH  15  16
ENDBRANCH  12  15
ENDBRANCH   6  11
BRANCH   8  22
HETATM   22  C   UNL     1      40.551 -12.789   5.422  1.00  0.00     0.409 C 
HETATM   23  F   UNL     1      41.317 -13.725   6.012  1.00  0.00    -0.169 F 
HETATM   24  F   UNL     1      39.592 -12.435   6.310  1.00  0.00    -0.169 F 
HETATM   25  F   UNL     1      39.903 -13.393   4.392  1.00  0.00    -0.169 F 
ENDBRANCH   8  22
BRANCH   1  26
HETATM   26  C   UNL     1      42.671 -13.785   2.676  1.00  0.00    -0.035 A 
HETATM   27  C   UNL     1      42.025 -14.330   1.557  1.00  0.00     0.012 A 
HETATM   28  C   UNL     1      41.934 -15.716   1.373  1.00  0.00     0.037 A 
HETATM   29  C   UNL     1      42.473 -16.585   2.318  1.00  0.00     0.068 A 
HETATM   30  C   UNL     1      43.082 -16.059   3.456  1.00  0.00     0.037 A 
HETATM   31  C   UNL     1      43.190 -14.676   3.630  1.00  0.00     0.012 A 
BRANCH  29  32
HETATM   32  O   UNL     1      42.451 -17.951   2.251  1.00  0.00    -0.356 OA
HETATM   33  C   UNL     1      43.606 -18.622   2.738  1.00  0.00     0.210 C 
ENDBRANCH  29  32
ENDBRANCH   1  26
TORSDOF 6
ENDMDL
MODEL 4
REMARK VINA RESULT:      -8.3      7.395     10.406
REMARK  6 active torsions:
REMARK  status: ('A' for Active; 'I' for Inactive)
REMARK    1  A    between atoms: O_2  and  C_3 
REMARK    2  A    between atoms: C_6  and  C_7 
REMARK    3  A    between atoms: C_12  and  C_13 
REMARK       I    between atoms: C_13  and  N_14 
REMARK    4  A    between atoms: N_14  and  C_15 
REMARK    5  A    between atoms: C_15  and  C_16 
REMARK    6  A    between atoms: C_24  and  C_25 
ROOT
HETATM    1  C   UNL     1      43.232  -7.870   8.267  1.00  0.00     0.118 C 
HETATM    2  N   UNL     1      42.674  -8.845   7.340  1.00  0.00    -0.366 N 
HETATM    3  C   UNL     1      43.084 -10.129   7.312  1.00  0.00     0.123 A 
HETATM    4  N   UNL     1      44.141 -10.568   8.061  1.00  0.00    -0.240 N 
HETATM    5  N   UNL     1      44.423 -11.874   7.891  1.00  0.00    -0.165 NA
HETATM    6  C   UNL     1      43.474 -12.293   7.022  1.00  0.00     0.148 A 
HETATM    7  C   UNL     1      42.627 -11.222   6.628  1.00  0.00     0.088 A 
HETATM    8  C   UNL     1      44.932  -9.724   8.936  1.00  0.00     0.221 C 
HETATM    9  C   UNL     1      44.680  -8.231   8.643  1.00  0.00     0.066 C 
HETATM   10  H   UNL     1      41.794  -8.571   6.902  1.00  0.00     0.161 HD
ENDROOT
BRANCH   6  11
HETATM   11  C   UNL     1      43.364 -13.693   6.586  1.00  0.00     0.272 C 
HETATM   12  N   UNL     1      42.159 -13.991   5.998  1.00  0.00    -0.351 N 
HETATM   13  H   UNL     1      41.482 -13.235   5.945  1.00  0.00     0.163 HD
HETATM   14  O   UNL     1      44.280 -14.498   6.720  1.00  0.00    -0.266 OA
BRANCH  12  15
HETATM   15  C   UNL     1      41.854 -15.283   5.441  1.00  0.00     0.161 C 
BRANCH  15  16
HETATM   16  C   UNL     1      42.380 -15.454   4.036  1.00  0.00    -0.041 A 
HETATM   17  C   UNL     1      42.696 -14.351   3.226  1.00  0.00     0.009 A 
HETATM   18  C   UNL     1      43.226 -14.534   1.948  1.00  0.00     0.001 A 
HETATM   19  C   UNL     1      43.466 -15.820   1.469  1.00  0.00     0.000 A 
HETATM   20  C   UNL     1      43.177 -16.923   2.268  1.00  0.00     0.001 A 
HETATM   21  C   UNL     1      42.641 -16.742   3.545  1.00  0.00     0.009 A 
ENDBRANCH  15  16
ENDBRANCH  12  15
ENDBRANCH   6  11
BRANCH   8  22
HETATM   22  C   UNL     1      44.722 -10.111  10.383  1.00  0.00     0.409 C 
HETATM   23  F   UNL     1      43.567 -10.763  10.613  1.00  0.00    -0.169 F 
HETATM   24  F   UNL     1      45.725 -10.894  10.847  1.00  0.00    -0.169 F 
HETATM   25  F   UNL     1      44.718  -9.002  11.167  1.00  0.00    -0.169 F 
ENDBRANCH   8  22
BRANCH   1  26
HETATM   26  C   UNL     1      42.316  -7.590   9.444  1.00  0.00    -0.035 A 
HETATM   27  C   UNL     1      41.176  -8.356   9.727  1.00  0.00     0.012 A 
HETATM   28  C   UNL     1      40.372  -8.078  10.840  1.00  0.00     0.037 A 
HETATM   29  C   UNL     1      40.683  -7.014  11.682  1.00  0.00     0.068 A 
HETATM   30  C   UNL     1      41.790  -6.218  11.390  1.00  0.00     0.037 A 
HETATM   31  C   UNL     1      42.604  -6.508  10.291  1.00  0.00     0.012 A 
BRANCH  29  32
HETATM   32  O   UNL     1      39.981  -6.645  12.796  1.00  0.00    -0.356 OA
HETATM   33  C   UNL     1      38.603  -6.995  12.815  1.00  0.00     0.210 C 
ENDBRANCH  29  32
ENDBRANCH   1  26
TORSDOF 6
ENDMDL
MODEL 5
REMARK VINA RESULT:      -8.2      4.141      8.107
REMARK  6 active torsions:
REMARK  status: ('A' for Active; 'I' for Inactive)
REMARK    1  A    between atoms: O_2  and  C_3 
REMARK    2  A    between atoms: C_6  and  C_7 
REMARK    3  A    between atoms: C_12  and  C_13 
REMARK       I    between atoms: C_13  and  N_14 
REMARK    4  A    between atoms: N_14  and  C_15 
REMARK    5  A    between atoms: C_15  and  C_16 
REMARK    6  A    between atoms: C_24  and  C_25 
ROOT
HETATM    1  C   UNL     1      39.791 -14.383   2.216  1.00  0.00     0.118 C 
HETATM    2  N   UNL     1      40.063 -13.478   3.324  1.00  0.00    -0.366 N 
HETATM    3  C   UNL     1      41.156 -13.601   4.103  1.00  0.00     0.123 A 
HETATM    4  N   UNL     1      42.012 -14.662   3.987  1.00  0.00    -0.240 N 
HETATM    5  N   UNL     1      43.036 -14.632   4.862  1.00  0.00    -0.165 NA
HETATM    6  C   UNL     1      42.843 -13.475   5.538  1.00  0.00     0.148 A 
HETATM    7  C   UNL     1      41.666 -12.812   5.098  1.00  0.00     0.088 A 
HETATM    8  C   UNL     1      41.841 -15.754   3.050  1.00  0.00     0.221 C 
HETATM    9  C   UNL     1      40.412 -15.768   2.470  1.00  0.00     0.066 C 
HETATM   10  H   UNL     1      39.527 -12.610   3.315  1.00  0.00     0.161 HD
ENDROOT
BRANCH   6  11
HETATM   11  C   UNL     1      43.771 -13.002   6.575  1.00  0.00     0.272 C 
HETATM   12  N   UNL     1      44.541 -11.937   6.177  1.00  0.00    -0.351 N 
HETATM   13  H   UNL     1      44.403 -11.609   5.225  1.00  0.00     0.163 HD
HETATM   14  O   UNL     1      43.823 -13.505   7.693  1.00  0.00    -0.266 OA
BRANCH  12  15
HETATM   15  C   UNL     1      45.474 -11.271   7.048  1.00  0.00     0.161 C 
BRANCH  15  16
HETATM   16  C   UNL     1      44.795 -10.399   8.077  1.00  0.00    -0.041 A 
HETATM   17  C   UNL     1      45.321 -10.233   9.368  1.00  0.00     0.009 A 
HETATM   18  C   UNL     1      44.702  -9.384  10.287  1.00  0.00     0.001 A 
HETATM   19  C   UNL     1      43.560  -8.674   9.922  1.00  0.00     0.000 A 
HETATM   20  C   UNL     1      43.037  -8.813   8.639  1.00  0.00     0.001 A 
HETATM   21  C   UNL     1      43.652  -9.667   7.721  1.00  0.00     0.009 A 
ENDBRANCH  15  16
ENDBRANCH  12  15
ENDBRANCH   6  11
BRANCH   8  22
HETATM   22  C   UNL     1      42.930 -15.732   2.001  1.00  0.00     0.409 C 
HETATM   23  F   UNL     1      43.512 -14.529   1.841  1.00  0.00    -0.169 F 
HETATM   24  F   UNL     1      43.914 -16.621   2.275  1.00  0.00    -0.169 F 
HETATM   25  F   UNL     1      42.424 -16.095   0.794  1.00  0.00    -0.169 F 
ENDBRANCH   8  22
BRANCH   1  26
HETATM   26  C   UNL     1      40.121 -13.772   0.866  1.00  0.00    -0.035 A 
HETATM   27  C   UNL     1      39.874 -14.422  -0.351  1.00  0.00     0.012 A 
HETATM   28  C   UNL     1      40.171 -13.810  -1.575  1.00  0.00     0.037 A 
HETATM   29  C   UNL     1      40.740 -12.540  -1.605  1.00  0.00     0.068 A 
HETATM   30  C   UNL     1      41.029 -11.897  -0.402  1.00  0.00     0.037 A 
HETATM   31  C   UNL     1      40.714 -12.500   0.820  1.00  0.00     0.012 A 
BRANCH  29  32
HETATM   32  O   UNL     1      41.071 -11.839  -2.731  1.00  0.00    -0.356 OA
HETATM   33  C   UNL     1      40.571 -10.510  -2.813  1.00  0.00     0.210 C 
ENDBRANCH  29  32
ENDBRANCH   1  26
TORSDOF 6
ENDMDL
MODEL 6
REMARK VINA RESULT:      -8.1      7.557     10.647
REMARK  6 active torsions:
REMARK  status: ('A' for Active; 'I' for Inactive)
REMARK    1  A    between atoms: O_2  and  C_3 
REMARK    2  A    between atoms: C_6  and  C_7 
REMARK    3  A    between atoms: C_12  and  C_13 
REMARK       I    between atoms: C_13  and  N_14 
REMARK    4  A    between atoms: N_14  and  C_15 
REMARK    5  A    between atoms: C_15  and  C_16 
REMARK    6  A    between atoms: C_24  and  C_25 
ROOT
HETATM    1  C   UNL     1      42.488  -7.760   9.308  1.00  0.00     0.118 C 
HETATM    2  N   UNL     1      41.577  -8.493   8.439  1.00  0.00    -0.366 N 
HETATM    3  C   UNL     1      41.980  -9.541   7.693  1.00  0.00     0.123 A 
HETATM    4  N   UNL     1      43.295  -9.902   7.601  1.00  0.00    -0.240 N 
HETATM    5  N   UNL     1      43.515 -10.958   6.794  1.00  0.00    -0.165 NA
HETATM    6  C   UNL     1      42.273 -11.308   6.385  1.00  0.00     0.148 A 
HETATM    7  C   UNL     1      41.289 -10.432   6.918  1.00  0.00     0.088 A 
HETATM    8  C   UNL     1      44.383  -9.211   8.266  1.00  0.00     0.221 C 
HETATM    9  C   UNL     1      43.931  -7.827   8.775  1.00  0.00     0.066 C 
HETATM   10  H   UNL     1      40.586  -8.335   8.621  1.00  0.00     0.161 HD
ENDROOT
BRANCH   6  11
HETATM   11  C   UNL     1      42.025 -12.466   5.514  1.00  0.00     0.272 C 
HETATM   12  N   UNL     1      41.393 -13.506   6.151  1.00  0.00    -0.351 N 
HETATM   13  H   UNL     1      41.186 -13.374   7.137  1.00  0.00     0.163 HD
HETATM   14  O   UNL     1      42.337 -12.477   4.327  1.00  0.00    -0.266 OA
BRANCH  12  15
HETATM   15  C   UNL     1      40.997 -14.715   5.478  1.00  0.00     0.161 C 
BRANCH  15  16
HETATM   16  C   UNL     1      42.053 -15.793   5.539  1.00  0.00    -0.041 A 
HETATM   17  C   UNL     1      42.401 -16.419   6.746  1.00  0.00     0.009 A 
HETATM   18  C   UNL     1      43.346 -17.446   6.771  1.00  0.00     0.001 A 
HETATM   19  C   UNL     1      43.942 -17.874   5.587  1.00  0.00     0.000 A 
HETATM   20  C   UNL     1      43.593 -17.277   4.378  1.00  0.00     0.001 A 
HETATM   21  C   UNL     1      42.651 -16.245   4.354  1.00  0.00     0.009 A 
ENDBRANCH  15  16
ENDBRANCH  12  15
ENDBRANCH   6  11
BRANCH   8  22
HETATM   22  C   UNL     1      44.999 -10.088   9.333  1.00  0.00     0.409 C 
HETATM   23  F   UNL     1      45.515  -9.406  10.372  1.00  0.00    -0.169 F 
HETATM   24  F   UNL     1      44.108 -10.974   9.836  1.00  0.00    -0.169 F 
HETATM   25  F   UNL     1      46.006 -10.830   8.803  1.00  0.00    -0.169 F 
ENDBRANCH   8  22
BRANCH   1  26
HETATM   26  C   UNL     1      42.329  -8.132  10.770  1.00  0.00    -0.035 A 
HETATM   27  C   UNL     1      41.693  -9.307  11.198  1.00  0.00     0.012 A 
HETATM   28  C   UNL     1      41.590  -9.623  12.559  1.00  0.00     0.037 A 
HETATM   29  C   UNL     1      42.106  -8.758  13.521  1.00  0.00     0.068 A 
HETATM   30  C   UNL     1      42.703  -7.567  13.113  1.00  0.00     0.037 A 
HETATM   31  C   UNL     1      42.824  -7.260  11.754  1.00  0.00     0.012 A 
BRANCH  29  32
HETATM   32  O   UNL     1      42.070  -8.955  14.874  1.00  0.00    -0.356 OA
HETATM   33  C   UNL     1      41.348  -7.991  15.630  1.00  0.00     0.210 C 
ENDBRANCH  29  32
ENDBRANCH   1  26
TORSDOF 6
ENDMDL
MODEL 7
REMARK VINA RESULT:      -7.9     16.639     19.830
REMARK  6 active torsions:
REMARK  status: ('A' for Active; 'I' for Inactive)
REMARK    1  A    between atoms: O_2  and  C_3 
REMARK    2  A    between atoms: C_6  and  C_7 
REMARK    3  A    between atoms: C_12  and  C_13 
REMARK       I    between atoms: C_13  and  N_14 
REMARK    4  A    between atoms: N_14  and  C_15 
REMARK    5  A    between atoms: C_15  and  C_16 
REMARK    6  A    between atoms: C_24  and  C_25 
ROOT
HETATM    1  C   UNL     1      45.876 -28.228  -2.562  1.00  0.00     0.118 C 
HETATM    2  N   UNL     1      47.312 -28.328  -2.338  1.00  0.00    -0.366 N 
HETATM    3  C   UNL     1      47.831 -28.898  -1.232  1.00  0.00     0.123 A 
HETATM    4  N   UNL     1      47.044 -29.300  -0.188  1.00  0.00    -0.240 N 
HETATM    5  N   UNL     1      47.735 -29.827   0.842  1.00  0.00    -0.165 NA
HETATM    6  C   UNL     1      49.018 -29.794   0.413  1.00  0.00     0.148 A 
HETATM    7  C   UNL     1      49.116 -29.205  -0.876  1.00  0.00     0.088 A 
HETATM    8  C   UNL     1      45.603 -29.152  -0.143  1.00  0.00     0.221 C 
HETATM    9  C   UNL     1      45.113 -28.169  -1.226  1.00  0.00     0.066 C 
HETATM   10  H   UNL     1      47.890 -28.180  -3.166  1.00  0.00     0.161 HD
ENDROOT
BRANCH   6  11
HETATM   11  C   UNL     1      50.132 -30.329   1.210  1.00  0.00     0.272 C 
HETATM   12  N   UNL     1      50.219 -29.780   2.466  1.00  0.00    -0.351 N 
HETATM   13  H   UNL     1      49.532 -29.069   2.699  1.00  0.00     0.163 HD
HETATM   14  O   UNL     1      50.888 -31.198   0.787  1.00  0.00    -0.266 OA
BRANCH  12  15
HETATM   15  C   UNL     1      51.194 -30.197   3.440  1.00  0.00     0.161 C 
BRANCH  15  16
HETATM   16  C   UNL     1      50.605 -31.070   4.522  1.00  0.00    -0.041 A 
HETATM   17  C   UNL     1      49.229 -31.340   4.586  1.00  0.00     0.009 A 
HETATM   18  C   UNL     1      48.713 -32.188   5.567  1.00  0.00     0.001 A 
HETATM   19  C   UNL     1      49.567 -32.794   6.486  1.00  0.00     0.000 A 
HETATM   20  C   UNL     1      50.937 -32.552   6.423  1.00  0.00     0.001 A 
HETATM   21  C   UNL     1      51.454 -31.699   5.445  1.00  0.00     0.009 A 
ENDBRANCH  15  16
ENDBRANCH  12  15
ENDBRANCH   6  11
BRANCH   8  22
HETATM   22  C   UNL     1      44.926 -30.503  -0.187  1.00  0.00     0.409 C 
HETATM   23  F   UNL     1      45.620 -31.442  -0.855  1.00  0.00    -0.169 F 
HETATM   24  F   UNL     1      44.685 -30.988   1.054  1.00  0.00    -0.169 F 
HETATM   25  F   UNL     1      43.713 -30.399  -0.789  1.00  0.00    -0.169 F 
ENDBRANCH   8  22
BRANCH   1  26
HETATM   26  C   UNL     1      45.363 -29.262  -3.547  1.00  0.00    -0.035 A 
HETATM   27  C   UNL     1      46.131 -30.351  -3.985  1.00  0.00     0.012 A 
HETATM   28  C   UNL     1      45.608 -31.296  -4.877  1.00  0.00     0.037 A 
HETATM   29  C   UNL     1      44.311 -31.159  -5.364  1.00  0.00     0.068 A 
HETATM   30  C   UNL     1      43.551 -30.059  -4.969  1.00  0.00     0.037 A 
HETATM   31  C   UNL     1      44.065 -29.126  -4.064  1.00  0.00     0.012 A 
BRANCH  29  32
HETATM   32  O   UNL     1      43.690 -32.013  -6.232  1.00  0.00    -0.356 OA
HETATM   33  C   UNL     1      43.895 -31.759  -7.617  1.00  0.00     0.210 C 
ENDBRANCH  29  32
ENDBRANCH   1  26
TORSDOF 6
ENDMDL
MODEL 8
REMARK VINA RESULT:      -7.6      5.624      8.801
REMARK  6 active torsions:
REMARK  status: ('A' for Active; 'I' for Inactive)
REMARK    1  A    between atoms: O_2  and  C_3 
REMARK    2  A    between atoms: C_6  and  C_7 
REMARK    3  A    between atoms: C_12  and  C_13 
REMARK       I    between atoms: C_13  and  N_14 
REMARK    4  A    between atoms: N_14  and  C_15 
REMARK    5  A    between atoms: C_15  and  C_16 
REMARK    6  A    between atoms: C_24  and  C_25 
ROOT
HETATM    1  C   UNL     1      40.520 -14.398   3.771  1.00  0.00     0.118 C 
HETATM    2  N   UNL     1      39.924 -13.485   4.737  1.00  0.00    -0.366 N 
HETATM    3  C   UNL     1      40.628 -12.499   5.326  1.00  0.00     0.123 A 
HETATM    4  N   UNL     1      41.979 -12.373   5.156  1.00  0.00    -0.240 N 
HETATM    5  N   UNL     1      42.519 -11.344   5.837  1.00  0.00    -0.165 NA
HETATM    6  C   UNL     1      41.453 -10.766   6.437  1.00  0.00     0.148 A 
HETATM    7  C   UNL     1      40.254 -11.473   6.150  1.00  0.00     0.088 A 
HETATM    8  C   UNL     1      42.791 -13.268   4.356  1.00  0.00     0.221 C 
HETATM    9  C   UNL     1      42.027 -14.568   4.031  1.00  0.00     0.066 C 
HETATM   10  H   UNL     1      38.903 -13.472   4.746  1.00  0.00     0.161 HD
ENDROOT
BRANCH   6  11
HETATM   11  C   UNL     1      41.570  -9.552   7.258  1.00  0.00     0.272 C 
HETATM   12  N   UNL     1      42.767  -9.453   7.923  1.00  0.00    -0.351 N 
HETATM   13  H   UNL     1      43.422 -10.219   7.793  1.00  0.00     0.163 HD
HETATM   14  O   UNL     1      40.683  -8.706   7.314  1.00  0.00    -0.266 OA
BRANCH  12  15
HETATM   15  C   UNL     1      43.124  -8.319   8.735  1.00  0.00     0.161 C 
BRANCH  15  16
HETATM   16  C   UNL     1      42.991  -8.593  10.214  1.00  0.00    -0.041 A 
HETATM   17  C   UNL     1      42.969  -9.901  10.724  1.00  0.00     0.009 A 
HETATM   18  C   UNL     1      42.893 -10.130  12.099  1.00  0.00     0.001 A 
HETATM   19  C   UNL     1      42.858  -9.055  12.984  1.00  0.00     0.000 A 
HETATM   20  C   UNL     1      42.899  -7.751  12.495  1.00  0.00     0.001 A 
HETATM   21  C   UNL     1      42.969  -7.522  11.119  1.00  0.00     0.009 A 
ENDBRANCH  15  16
ENDBRANCH  12  15
ENDBRANCH   6  11
BRANCH   8  22
HETATM   22  C   UNL     1      43.334 -12.553   3.139  1.00  0.00     0.409 C 
HETATM   23  F   UNL     1      44.485 -11.891   3.360  1.00  0.00    -0.169 F 
HETATM   24  F   UNL     1      43.551 -13.403   2.108  1.00  0.00    -0.169 F 
HETATM   25  F   UNL     1      42.430 -11.644   2.690  1.00  0.00    -0.169 F 
ENDBRANCH   8  22
BRANCH   1  26
HETATM   26  C   UNL     1      40.152 -14.057   2.339  1.00  0.00    -0.035 A 
HETATM   27  C   UNL     1      39.629 -12.813   1.957  1.00  0.00     0.012 A 
HETATM   28  C   UNL     1      39.327 -12.532   0.618  1.00  0.00     0.037 A 
HETATM   29  C   UNL     1      39.525 -13.499  -0.364  1.00  0.00     0.068 A 
HETATM   30  C   UNL     1      40.006 -14.754   0.007  1.00  0.00     0.037 A 
HETATM   31  C   UNL     1      40.326 -15.028   1.340  1.00  0.00     0.012 A 
BRANCH  29  32
HETATM   32  O   UNL     1      39.273 -13.345  -1.699  1.00  0.00    -0.356 OA
HETATM   33  C   UNL     1      40.353 -13.630  -2.579  1.00  0.00     0.210 C 
ENDBRANCH  29  32
ENDBRANCH   1  26
TORSDOF 6
ENDMDL
MODEL 9
REMARK VINA RESULT:      -7.6     14.162     17.348
REMARK  6 active torsions:
REMARK  status: ('A' for Active; 'I' for Inactive)
REMARK    1  A    between atoms: O_2  and  C_3 
REMARK    2  A    between atoms: C_6  and  C_7 
REMARK    3  A    between atoms: C_12  and  C_13 
REMARK       I    between atoms: C_13  and  N_14 
REMARK    4  A    between atoms: N_14  and  C_15 
REMARK    5  A    between atoms: C_15  and  C_16 
REMARK    6  A    between atoms: C_24  and  C_25 
ROOT
HETATM    1  C   UNL     1      42.370  -6.071  12.645  1.00  0.00     0.118 C 
HETATM    2  N   UNL     1      42.797  -6.118  14.037  1.00  0.00    -0.366 N 
HETATM    3  C   UNL     1      41.943  -6.391  15.043  1.00  0.00     0.123 A 
HETATM    4  N   UNL     1      40.597  -6.512  14.838  1.00  0.00    -0.240 N 
HETATM    5  N   UNL     1      39.896  -6.764  15.960  1.00  0.00    -0.165 NA
HETATM    6  C   UNL     1      40.849  -6.846  16.918  1.00  0.00     0.148 A 
HETATM    7  C   UNL     1      42.141  -6.603  16.380  1.00  0.00     0.088 A 
HETATM    8  C   UNL     1      39.946  -6.351  13.552  1.00  0.00     0.221 C 
HETATM    9  C   UNL     1      40.888  -5.673  12.536  1.00  0.00     0.066 C 
HETATM   10  H   UNL     1      43.805  -6.187  14.177  1.00  0.00     0.161 HD
ENDROOT
BRANCH   6  11
HETATM   11  C   UNL     1      40.536  -7.165  18.318  1.00  0.00     0.272 C 
HETATM   12  N   UNL     1      40.504  -8.513  18.579  1.00  0.00    -0.351 N 
HETATM   13  H   UNL     1      40.677  -9.132  17.792  1.00  0.00     0.163 HD
HETATM   14  O   UNL     1      40.349  -6.298  19.166  1.00  0.00    -0.266 OA
BRANCH  12  15
HETATM   15  C   UNL     1      40.278  -9.054  19.894  1.00  0.00     0.161 C 
BRANCH  15  16
HETATM   16  C   UNL     1      41.557  -9.446  20.594  1.00  0.00    -0.041 A 
HETATM   17  C   UNL     1      42.376  -8.495  21.223  1.00  0.00     0.009 A 
HETATM   18  C   UNL     1      43.529  -8.886  21.905  1.00  0.00     0.001 A 
HETATM   19  C   UNL     1      43.871 -10.234  21.984  1.00  0.00     0.000 A 
HETATM   20  C   UNL     1      43.058 -11.192  21.381  1.00  0.00     0.001 A 
HETATM   21  C   UNL     1      41.907 -10.801  20.694  1.00  0.00     0.009 A 
ENDBRANCH  15  16
ENDBRANCH  12  15
ENDBRANCH   6  11
BRANCH   8  22
HETATM   22  C   UNL     1      39.372  -7.667  13.076  1.00  0.00     0.409 C 
HETATM   23  F   UNL     1      39.973  -8.749  13.604  1.00  0.00    -0.169 F 
HETATM   24  F   UNL     1      38.049  -7.769  13.348  1.00  0.00    -0.169 F 
HETATM   25  F   UNL     1      39.485  -7.765  11.726  1.00  0.00    -0.169 F 
ENDBRANCH   8  22
BRANCH   1  26
HETATM   26  C   UNL     1      42.756  -7.319  11.872  1.00  0.00    -0.035 A 
HETATM   27  C   UNL     1      42.764  -7.382  10.471  1.00  0.00     0.012 A 
HETATM   28  C   UNL     1      43.151  -8.548   9.798  1.00  0.00     0.037 A 
HETATM   29  C   UNL     1      43.521  -9.682  10.516  1.00  0.00     0.068 A 
HETATM   30  C   UNL     1      43.479  -9.648  11.909  1.00  0.00     0.037 A 
HETATM   31  C   UNL     1      43.112  -8.478  12.581  1.00  0.00     0.012 A 
BRANCH  29  32
HETATM   32  O   UNL     1      43.920 -10.874   9.977  1.00  0.00    -0.356 OA
HETATM   33  C   UNL     1      44.185 -10.874   8.580  1.00  0.00     0.210 C 
ENDBRANCH  29  32
ENDBRANCH   1  26
TORSDOF 6
ENDMDL
MODEL 10
REMARK VINA RESULT:      -7.3     10.786     13.127
REMARK  6 active torsions:
REMARK  status: ('A' for Active; 'I' for Inactive)
REMARK    1  A    between atoms: O_2  and  C_3 
REMARK    2  A    between atoms: C_6  and  C_7 
REMARK    3  A    between atoms: C_12  and  C_13 
REMARK       I    between atoms: C_13  and  N_14 
REMARK    4  A    between atoms: N_14  and  C_15 
REMARK    5  A    between atoms: C_15  and  C_16 
REMARK    6  A    between atoms: C_24  and  C_25 
ROOT
HETATM    1  C   UNL     1      40.078  -8.595  13.556  1.00  0.00     0.118 C 
HETATM    2  N   UNL     1      41.053  -9.648  13.305  1.00  0.00    -0.366 N 
HETATM    3  C   UNL     1      41.814  -9.674  12.192  1.00  0.00     0.123 A 
HETATM    4  N   UNL     1      41.628  -8.789  11.167  1.00  0.00    -0.240 N 
HETATM    5  N   UNL     1      42.463  -8.977  10.127  1.00  0.00    -0.165 NA
HETATM    6  C   UNL     1      43.244 -10.007  10.530  1.00  0.00     0.148 A 
HETATM    7  C   UNL     1      42.855 -10.477  11.814  1.00  0.00     0.088 A 
HETATM    8  C   UNL     1      40.609  -7.757  11.150  1.00  0.00     0.221 C 
HETATM    9  C   UNL     1      39.545  -8.011  12.236  1.00  0.00     0.066 C 
HETATM   10  H   UNL     1      41.306 -10.207  14.120  1.00  0.00     0.161 HD
ENDROOT
BRANCH   6  11
HETATM   11  C   UNL     1      44.352 -10.525   9.715  1.00  0.00     0.272 C 
HETATM   12  N   UNL     1      43.958 -10.976   8.479  1.00  0.00    -0.351 N 
HETATM   13  H   UNL     1      42.965 -10.921   8.272  1.00  0.00     0.163 HD
HETATM   14  O   UNL     1      45.515 -10.525  10.106  1.00  0.00    -0.266 OA
BRANCH  12  15
HETATM   15  C   UNL     1      44.882 -11.470   7.491  1.00  0.00     0.161 C 
BRANCH  15  16
HETATM   16  C   UNL     1      44.205 -12.271   6.405  1.00  0.00    -0.041 A 
HETATM   17  C   UNL     1      43.768 -13.587   6.621  1.00  0.00     0.009 A 
HETATM   18  C   UNL     1      43.102 -14.292   5.617  1.00  0.00     0.001 A 
HETATM   19  C   UNL     1      42.846 -13.684   4.389  1.00  0.00     0.000 A 
HETATM   20  C   UNL     1      43.256 -12.372   4.166  1.00  0.00     0.001 A 
HETATM   21  C   UNL     1      43.928 -11.668   5.169  1.00  0.00     0.009 A 
ENDBRANCH  15  16
ENDBRANCH  12  15
ENDBRANCH   6  11
BRANCH   8  22
HETATM   22  C   UNL     1      41.240  -6.384  11.215  1.00  0.00     0.409 C 
HETATM   23  F   UNL     1      42.318  -6.314  12.018  1.00  0.00    -0.169 F 
HETATM   24  F   UNL     1      41.619  -5.943   9.992  1.00  0.00    -0.169 F 
HETATM   25  F   UNL     1      40.339  -5.478  11.677  1.00  0.00    -0.169 F 
ENDBRANCH   8  22
BRANCH   1  26
HETATM   26  C   UNL     1      40.570  -7.568  14.558  1.00  0.00    -0.035 A 
HETATM   27  C   UNL     1      41.742  -7.731  15.312  1.00  0.00     0.012 A 
HETATM   28  C   UNL     1      42.173  -6.745  16.208  1.00  0.00     0.037 A 
HETATM   29  C   UNL     1      41.429  -5.581  16.381  1.00  0.00     0.068 A 
HETATM   30  C   UNL     1      40.241  -5.422  15.669  1.00  0.00     0.037 A 
HETATM   31  C   UNL     1      39.820  -6.398  14.760  1.00  0.00     0.012 A 
BRANCH  29  32
HETATM   32  O   UNL     1      41.745  -4.548  17.220  1.00  0.00    -0.356 OA
HETATM   33  C   UNL     1      41.955  -4.888  18.584  1.00  0.00     0.210 C 
ENDBRANCH  29  32
ENDBRANCH   1  26
TORSDOF 6
ENDMDL
