MODEL 1
REMARK VINA RESULT:      -8.6      0.000      0.000
REMARK  4 active torsions:
REMARK  status: ('A' for Active; 'I' for Inactive)
REMARK    1  A    between atoms: C_2  and  C_3 
REMARK    2  A    between atoms: C_6  and  C_7 
REMARK    3  A    between atoms: C_10  and  N_11 
REMARK    4  A    between atoms: N_11  and  C_12 
ROOT
HETATM    1  C   UNL     1      43.339 -13.934   5.886  1.00  0.00     0.076 C 
HETATM    2  C   UNL     1      42.996 -12.885   4.850  1.00  0.00     0.144 C 
HETATM    3  S   UNL     1      43.715 -11.276   5.213  1.00  0.00    -0.087 SA
HETATM    4  C   UNL     1      43.359 -11.217   6.895  1.00  0.00     0.157 C 
HETATM    5  N   UNL     1      43.284 -12.346   7.584  1.00  0.00    -0.257 N 
HETATM    6  H   UNL     1      43.153 -12.226   8.583  1.00  0.00     0.191 HD
HETATM    7  N   UNL     1      43.436 -13.694   7.163  1.00  0.00    -0.176 NA
ENDROOT
BRANCH   1   8
HETATM    8  C   UNL     1      43.449 -15.341   5.482  1.00  0.00     0.019 A 
HETATM    9  C   UNL     1      43.314 -15.924   4.166  1.00  0.00     0.005 A 
HETATM   10  C   UNL     1      43.575 -17.294   4.277  1.00  0.00     0.049 A 
HETATM   11  C   UNL     1      43.010 -15.414   2.884  1.00  0.00     0.014 A 
HETATM   12  C   UNL     1      43.577 -18.181   3.181  1.00  0.00    -0.031 A 
HETATM   13  N   UNL     1      43.813 -17.548   5.607  1.00  0.00    -0.364 N 
HETATM   14  C   UNL     1      43.263 -17.625   1.930  1.00  0.00     0.009 A 
HETATM   15  C   UNL     1      42.983 -16.271   1.781  1.00  0.00     0.002 A 
HETATM   16  C   UNL     1      43.749 -16.390   6.335  1.00  0.00     0.102 A 
HETATM   17  H   UNL     1      44.018 -18.465   5.982  1.00  0.00     0.165 HD
BRANCH  12  18
HETATM   18  C   UNL     1      43.876 -19.655   3.295  1.00  0.00     0.036 C 
HETATM   19  C   UNL     1      43.565 -20.399   2.006  1.00  0.00     0.010 C 
ENDBRANCH  12  18
ENDBRANCH   1   8
BRANCH   4  20
HETATM   20  N   UNL     1      43.195 -10.005   7.390  1.00  0.00    -0.365 N 
HETATM   21  H   UNL     1      42.442  -9.494   6.936  1.00  0.00     0.162 HD
BRANCH  20  22
HETATM   22  C   UNL     1      43.969  -9.355   8.449  1.00  0.00     0.083 C 
HETATM   23  C   UNL     1      43.244  -9.492   9.782  1.00  0.00     0.025 C 
HETATM   24  C   UNL     1      44.361  -9.318  10.794  1.00  0.00     0.002 C 
HETATM   25  C   UNL     1      45.522 -10.093  10.188  1.00  0.00     0.002 C 
HETATM   26  C   UNL     1      45.313 -10.047   8.673  1.00  0.00     0.025 C 
ENDBRANCH  20  22
ENDBRANCH   4  20
TORSDOF 4
ENDMDL
MODEL 2
REMARK VINA RESULT:      -8.3      1.496      2.388
REMARK  4 active torsions:
REMARK  status: ('A' for Active; 'I' for Inactive)
REMARK    1  A    between atoms: C_2  and  C_3 
REMARK    2  A    between atoms: C_6  and  C_7 
REMARK    3  A    between atoms: C_10  and  N_11 
REMARK    4  A    between atoms: N_11  and  C_12 
ROOT
HETATM    1  C   UNL     1      43.237 -12.808   5.870  1.00  0.00     0.076 C 
HETATM    2  C   UNL     1      42.014 -11.966   6.166  1.00  0.00     0.144 C 
HETATM    3  S   UNL     1      42.421 -10.280   6.648  1.00  0.00    -0.087 SA
HETATM    4  C   UNL     1      43.713 -10.634   7.728  1.00  0.00     0.157 C 
HETATM    5  N   UNL     1      44.450 -11.717   7.527  1.00  0.00    -0.257 N 
HETATM    6  H   UNL     1      45.242 -11.814   8.154  1.00  0.00     0.191 HD
HETATM    7  N   UNL     1      44.359 -12.721   6.528  1.00  0.00    -0.176 NA
ENDROOT
BRANCH   1   8
HETATM    8  C   UNL     1      43.149 -13.887   4.879  1.00  0.00     0.019 A 
HETATM    9  C   UNL     1      43.424 -15.296   5.039  1.00  0.00     0.005 A 
HETATM   10  C   UNL     1      43.128 -15.930   3.829  1.00  0.00     0.049 A 
HETATM   11  C   UNL     1      43.885 -16.099   6.107  1.00  0.00     0.014 A 
HETATM   12  C   UNL     1      43.236 -17.322   3.627  1.00  0.00    -0.031 A 
HETATM   13  N   UNL     1      42.733 -14.949   2.951  1.00  0.00    -0.364 N 
HETATM   14  C   UNL     1      43.704 -18.074   4.718  1.00  0.00     0.009 A 
HETATM   15  C   UNL     1      44.024 -17.479   5.933  1.00  0.00     0.002 A 
HETATM   16  C   UNL     1      42.733 -13.727   3.567  1.00  0.00     0.102 A 
HETATM   17  H   UNL     1      42.468 -15.121   1.989  1.00  0.00     0.165 HD
BRANCH  12  18
HETATM   18  C   UNL     1      42.899 -18.012   2.328  1.00  0.00     0.036 C 
HETATM   19  C   UNL     1      43.358 -19.461   2.319  1.00  0.00     0.010 C 
ENDBRANCH  12  18
ENDBRANCH   1   8
BRANCH   4  20
HETATM   20  N   UNL     1      43.884  -9.761   8.702  1.00  0.00    -0.365 N 
HETATM   21  H   UNL     1      44.678  -9.146   8.543  1.00  0.00     0.162 HD
BRANCH  20  22
HETATM   22  C   UNL     1      43.101  -9.622   9.931  1.00  0.00     0.083 C 
HETATM   23  C   UNL     1      43.554 -10.654  10.955  1.00  0.00     0.025 C 
HETATM   24  C   UNL     1      43.111 -10.042  12.272  1.00  0.00     0.002 C 
HETATM   25  C   UNL     1      43.437  -8.564  12.110  1.00  0.00     0.002 C 
HETATM   26  C   UNL     1      43.350  -8.276  10.610  1.00  0.00     0.025 C 
ENDBRANCH  20  22
ENDBRANCH   4  20
TORSDOF 4
ENDMDL
MODEL 3
REMARK VINA RESULT:      -8.3      1.394      2.110
REMARK  4 active torsions:
REMARK  status: ('A' for Active; 'I' for Inactive)
REMARK    1  A    between atoms: C_2  and  C_3 
REMARK    2  A    between atoms: C_6  and  C_7 
REMARK    3  A    between atoms: C_10  and  N_11 
REMARK    4  A    between atoms: N_11  and  C_12 
ROOT
HETATM    1  C   UNL     1      42.657 -13.567   4.693  1.00  0.00     0.076 C 
HETATM    2  C   UNL     1      43.154 -12.258   4.119  1.00  0.00     0.144 C 
HETATM    3  S   UNL     1      43.797 -11.140   5.373  1.00  0.00    -0.087 SA
HETATM    4  C   UNL     1      42.559 -11.345   6.550  1.00  0.00     0.157 C 
HETATM    5  N   UNL     1      41.911 -12.499   6.618  1.00  0.00    -0.257 N 
HETATM    6  H   UNL     1      41.255 -12.572   7.389  1.00  0.00     0.191 HD
HETATM    7  N   UNL     1      42.044 -13.677   5.838  1.00  0.00    -0.176 NA
ENDROOT
BRANCH   1   8
HETATM    8  C   UNL     1      42.736 -14.789   3.881  1.00  0.00     0.019 A 
HETATM    9  C   UNL     1      43.287 -16.079   4.228  1.00  0.00     0.005 A 
HETATM   10  C   UNL     1      43.065 -16.942   3.151  1.00  0.00     0.049 A 
HETATM   11  C   UNL     1      43.943 -16.601   5.366  1.00  0.00     0.014 A 
HETATM   12  C   UNL     1      43.432 -18.303   3.151  1.00  0.00    -0.031 A 
HETATM   13  N   UNL     1      42.447 -16.204   2.169  1.00  0.00    -0.364 N 
HETATM   14  C   UNL     1      44.086 -18.772   4.303  1.00  0.00     0.009 A 
HETATM   15  C   UNL     1      44.339 -17.941   5.388  1.00  0.00     0.002 A 
HETATM   16  C   UNL     1      42.237 -14.921   2.596  1.00  0.00     0.102 A 
HETATM   17  H   UNL     1      42.178 -16.574   1.267  1.00  0.00     0.165 HD
BRANCH  12  18
HETATM   18  C   UNL     1      43.177 -19.243   1.997  1.00  0.00     0.036 C 
HETATM   19  C   UNL     1      43.765 -20.622   2.247  1.00  0.00     0.010 C 
ENDBRANCH  12  18
ENDBRANCH   1   8
BRANCH   4  20
HETATM   20  N   UNL     1      42.351 -10.302   7.331  1.00  0.00    -0.365 N 
HETATM   21  H   UNL     1      41.544  -9.753   7.046  1.00  0.00     0.162 HD
BRANCH  20  22
HETATM   22  C   UNL     1      43.143  -9.870   8.483  1.00  0.00     0.083 C 
HETATM   23  C   UNL     1      44.236 -10.891   8.774  1.00  0.00     0.025 C 
HETATM   24  C   UNL     1      45.262 -10.079   9.543  1.00  0.00     0.002 C 
HETATM   25  C   UNL     1      45.290  -8.745   8.810  1.00  0.00     0.002 C 
HETATM   26  C   UNL     1      43.899  -8.574   8.196  1.00  0.00     0.025 C 
ENDBRANCH  20  22
ENDBRANCH   4  20
TORSDOF 4
ENDMDL
MODEL 4
REMARK VINA RESULT:      -8.2      5.463      8.837
REMARK  4 active torsions:
REMARK  status: ('A' for Active; 'I' for Inactive)
REMARK    1  A    between atoms: C_2  and  C_3 
REMARK    2  A    between atoms: C_6  and  C_7 
REMARK    3  A    between atoms: C_10  and  N_11 
REMARK    4  A    between atoms: N_11  and  C_12 
ROOT
HETATM    1  C   UNL     1      40.893 -14.598   1.491  1.00  0.00     0.076 C 
HETATM    2  C   UNL     1      40.184 -15.721   2.217  1.00  0.00     0.144 C 
HETATM    3  S   UNL     1      40.993 -16.185   3.756  1.00  0.00    -0.087 SA
HETATM    4  C   UNL     1      42.619 -16.188   3.193  1.00  0.00     0.157 C 
HETATM    5  N   UNL     1      42.965 -15.380   2.201  1.00  0.00    -0.257 N 
HETATM    6  H   UNL     1      43.955 -15.378   1.980  1.00  0.00     0.191 HD
HETATM    7  N   UNL     1      42.188 -14.459   1.449  1.00  0.00    -0.176 NA
ENDROOT
BRANCH   1   8
HETATM    8  C   UNL     1      40.115 -13.665   0.666  1.00  0.00     0.019 A 
HETATM    9  C   UNL     1      39.491 -13.889  -0.618  1.00  0.00     0.005 A 
HETATM   10  C   UNL     1      38.804 -12.722  -0.968  1.00  0.00     0.049 A 
HETATM   11  C   UNL     1      39.431 -14.981  -1.512  1.00  0.00     0.014 A 
HETATM   12  C   UNL     1      38.037 -12.589  -2.144  1.00  0.00    -0.031 A 
HETATM   13  N   UNL     1      39.034 -11.808   0.033  1.00  0.00    -0.364 N 
HETATM   14  C   UNL     1      38.014 -13.701  -3.002  1.00  0.00     0.009 A 
HETATM   15  C   UNL     1      38.697 -14.873  -2.697  1.00  0.00     0.002 A 
HETATM   16  C   UNL     1      39.808 -12.361   1.017  1.00  0.00     0.102 A 
HETATM   17  H   UNL     1      38.667 -10.865   0.036  1.00  0.00     0.165 HD
BRANCH  12  18
HETATM   18  C   UNL     1      37.279 -11.338  -2.515  1.00  0.00     0.036 C 
HETATM   19  C   UNL     1      38.166 -10.325  -3.222  1.00  0.00     0.010 C 
ENDBRANCH  12  18
ENDBRANCH   1   8
BRANCH   4  20
HETATM   20  N   UNL     1      43.428 -17.016   3.824  1.00  0.00    -0.365 N 
HETATM   21  H   UNL     1      43.663 -16.698   4.761  1.00  0.00     0.162 HD
BRANCH  20  22
HETATM   22  C   UNL     1      44.010 -18.262   3.321  1.00  0.00     0.083 C 
HETATM   23  C   UNL     1      43.922 -19.344   4.389  1.00  0.00     0.025 C 
HETATM   24  C   UNL     1      44.002 -20.626   3.579  1.00  0.00     0.002 C 
HETATM   25  C   UNL     1      43.142 -20.335   2.357  1.00  0.00     0.002 C 
HETATM   26  C   UNL     1      43.213 -18.822   2.144  1.00  0.00     0.025 C 
ENDBRANCH  20  22
ENDBRANCH   4  20
TORSDOF 4
ENDMDL
MODEL 5
REMARK VINA RESULT:      -7.8      1.315      1.977
REMARK  4 active torsions:
REMARK  status: ('A' for Active; 'I' for Inactive)
REMARK    1  A    between atoms: C_2  and  C_3 
REMARK    2  A    between atoms: C_6  and  C_7 
REMARK    3  A    between atoms: C_10  and  N_11 
REMARK    4  A    between atoms: N_11  and  C_12 
ROOT
HETATM    1  C   UNL     1      43.370 -13.919   5.997  1.00  0.00     0.076 C 
HETATM    2  C   UNL     1      42.864 -12.879   5.022  1.00  0.00     0.144 C 
HETATM    3  S   UNL     1      43.582 -11.251   5.295  1.00  0.00    -0.087 SA
HETATM    4  C   UNL     1      43.452 -11.205   7.010  1.00  0.00     0.157 C 
HETATM    5  N   UNL     1      43.499 -12.337   7.696  1.00  0.00    -0.257 N 
HETATM    6  H   UNL     1      43.499 -12.223   8.705  1.00  0.00     0.191 HD
HETATM    7  N   UNL     1      43.629 -13.679   7.252  1.00  0.00    -0.176 NA
ENDROOT
BRANCH   1   8
HETATM    8  C   UNL     1      43.462 -15.322   5.574  1.00  0.00     0.019 A 
HETATM    9  C   UNL     1      43.316 -15.887   4.253  1.00  0.00     0.005 A 
HETATM   10  C   UNL     1      43.561 -17.260   4.344  1.00  0.00     0.049 A 
HETATM   11  C   UNL     1      43.011 -15.357   2.979  1.00  0.00     0.014 A 
HETATM   12  C   UNL     1      43.549 -18.133   3.237  1.00  0.00    -0.031 A 
HETATM   13  N   UNL     1      43.802 -17.535   5.670  1.00  0.00    -0.364 N 
HETATM   14  C   UNL     1      43.235 -17.558   1.994  1.00  0.00     0.009 A 
HETATM   15  C   UNL     1      42.970 -16.199   1.864  1.00  0.00     0.002 A 
HETATM   16  C   UNL     1      43.754 -16.386   6.412  1.00  0.00     0.102 A 
HETATM   17  H   UNL     1      43.999 -18.459   6.031  1.00  0.00     0.165 HD
BRANCH  12  18
HETATM   18  C   UNL     1      43.832 -19.613   3.330  1.00  0.00     0.036 C 
HETATM   19  C   UNL     1      43.525 -20.332   2.027  1.00  0.00     0.010 C 
ENDBRANCH  12  18
ENDBRANCH   1   8
BRANCH   4  20
HETATM   20  N   UNL     1      43.323  -9.999   7.529  1.00  0.00    -0.365 N 
HETATM   21  H   UNL     1      44.209  -9.607   7.838  1.00  0.00     0.162 HD
BRANCH  20  22
HETATM   22  C   UNL     1      42.092  -9.229   7.718  1.00  0.00     0.083 C 
HETATM   23  C   UNL     1      40.904 -10.005   7.161  1.00  0.00     0.025 C 
HETATM   24  C   UNL     1      39.728  -9.406   7.910  1.00  0.00     0.002 C 
HETATM   25  C   UNL     1      40.252  -9.237   9.329  1.00  0.00     0.002 C 
HETATM   26  C   UNL     1      41.764  -9.042   9.198  1.00  0.00     0.025 C 
ENDBRANCH  20  22
ENDBRANCH   4  20
TORSDOF 4
ENDMDL
MODEL 6
REMARK VINA RESULT:      -7.7      5.068      8.050
REMARK  4 active torsions:
REMARK  status: ('A' for Active; 'I' for Inactive)
REMARK    1  A    between atoms: C_2  and  C_3 
REMARK    2  A    between atoms: C_6  and  C_7 
REMARK    3  A    between atoms: C_10  and  N_11 
REMARK    4  A    between atoms: N_11  and  C_12 
ROOT
HETATM    1  C   UNL     1      41.403 -14.258   1.733  1.00  0.00     0.076 C 
HETATM    2  C   UNL     1      41.620 -12.761   1.688  1.00  0.00     0.144 C 
HETATM    3  S   UNL     1      40.500 -11.922   0.557  1.00  0.00    -0.087 SA
HETATM    4  C   UNL     1      40.610 -13.018  -0.764  1.00  0.00     0.157 C 
HETATM    5  N   UNL     1      40.861 -14.298  -0.527  1.00  0.00    -0.257 N 
HETATM    6  H   UNL     1      40.830 -14.895  -1.348  1.00  0.00     0.191 HD
HETATM    7  N   UNL     1      41.088 -14.981   0.696  1.00  0.00    -0.176 NA
ENDROOT
BRANCH   1   8
HETATM    8  C   UNL     1      41.683 -14.992   2.974  1.00  0.00     0.019 A 
HETATM    9  C   UNL     1      42.460 -16.195   3.165  1.00  0.00     0.005 A 
HETATM   10  C   UNL     1      42.496 -16.468   4.535  1.00  0.00     0.049 A 
HETATM   11  C   UNL     1      43.152 -17.073   2.300  1.00  0.00     0.014 A 
HETATM   12  C   UNL     1      43.205 -17.548   5.100  1.00  0.00    -0.031 A 
HETATM   13  N   UNL     1      41.737 -15.503   5.154  1.00  0.00    -0.364 N 
HETATM   14  C   UNL     1      43.871 -18.395   4.198  1.00  0.00     0.009 A 
HETATM   15  C   UNL     1      43.847 -18.166   2.827  1.00  0.00     0.002 A 
HETATM   16  C   UNL     1      41.253 -14.612   4.235  1.00  0.00     0.102 A 
HETATM   17  H   UNL     1      41.576 -15.461   6.152  1.00  0.00     0.165 HD
BRANCH  12  18
HETATM   18  C   UNL     1      43.261 -17.835   6.580  1.00  0.00     0.036 C 
HETATM   19  C   UNL     1      44.076 -16.793   7.330  1.00  0.00     0.010 C 
ENDBRANCH  12  18
ENDBRANCH   1   8
BRANCH   4  20
HETATM   20  N   UNL     1      40.418 -12.483  -1.954  1.00  0.00    -0.365 N 
HETATM   21  H   UNL     1      41.223 -11.955  -2.282  1.00  0.00     0.162 HD
BRANCH  20  22
HETATM   22  C   UNL     1      39.214 -12.548  -2.785  1.00  0.00     0.083 C 
HETATM   23  C   UNL     1      38.243 -13.573  -2.212  1.00  0.00     0.025 C 
HETATM   24  C   UNL     1      36.908 -13.129  -2.780  1.00  0.00     0.002 C 
HETATM   25  C   UNL     1      36.958 -11.611  -2.675  1.00  0.00     0.002 C 
HETATM   26  C   UNL     1      38.438 -11.233  -2.760  1.00  0.00     0.025 C 
ENDBRANCH  20  22
ENDBRANCH   4  20
TORSDOF 4
ENDMDL
MODEL 7
REMARK VINA RESULT:      -7.7      2.180      3.232
REMARK  4 active torsions:
REMARK  status: ('A' for Active; 'I' for Inactive)
REMARK    1  A    between atoms: C_2  and  C_3 
REMARK    2  A    between atoms: C_6  and  C_7 
REMARK    3  A    between atoms: C_10  and  N_11 
REMARK    4  A    between atoms: N_11  and  C_12 
ROOT
HETATM    1  C   UNL     1      43.620 -11.766   6.047  1.00  0.00     0.076 C 
HETATM    2  C   UNL     1      45.037 -11.243   6.147  1.00  0.00     0.144 C 
HETATM    3  S   UNL     1      45.516 -10.828   7.831  1.00  0.00    -0.087 SA
HETATM    4  C   UNL     1      44.080 -10.007   8.304  1.00  0.00     0.157 C 
HETATM    5  N   UNL     1      42.923 -10.350   7.754  1.00  0.00    -0.257 N 
HETATM    6  H   UNL     1      42.113  -9.879   8.143  1.00  0.00     0.191 HD
HETATM    7  N   UNL     1      42.627 -11.325   6.766  1.00  0.00    -0.176 NA
ENDROOT
BRANCH   1   8
HETATM    8  C   UNL     1      43.279 -12.735   4.997  1.00  0.00     0.019 A 
HETATM    9  C   UNL     1      42.830 -14.102   5.131  1.00  0.00     0.005 A 
HETATM   10  C   UNL     1      42.565 -14.592   3.849  1.00  0.00     0.049 A 
HETATM   11  C   UNL     1      42.609 -14.968   6.225  1.00  0.00     0.014 A 
HETATM   12  C   UNL     1      42.066 -15.886   3.593  1.00  0.00    -0.031 A 
HETATM   13  N   UNL     1      42.881 -13.588   2.964  1.00  0.00    -0.364 N 
HETATM   14  C   UNL     1      41.868 -16.709   4.714  1.00  0.00     0.009 A 
HETATM   15  C   UNL     1      42.134 -16.264   6.004  1.00  0.00     0.002 A 
HETATM   16  C   UNL     1      43.299 -12.472   3.638  1.00  0.00     0.102 A 
HETATM   17  H   UNL     1      42.798 -13.669   1.959  1.00  0.00     0.165 HD
BRANCH  12  18
HETATM   18  C   UNL     1      41.761 -16.411   2.212  1.00  0.00     0.036 C 
HETATM   19  C   UNL     1      40.420 -15.911   1.697  1.00  0.00     0.010 C 
ENDBRANCH  12  18
ENDBRANCH   1   8
BRANCH   4  20
HETATM   20  N   UNL     1      44.245  -9.073   9.221  1.00  0.00    -0.365 N 
HETATM   21  H   UNL     1      44.379  -8.148   8.820  1.00  0.00     0.162 HD
BRANCH  20  22
HETATM   22  C   UNL     1      44.282  -9.239  10.675  1.00  0.00     0.083 C 
HETATM   23  C   UNL     1      43.415  -8.177  11.340  1.00  0.00     0.025 C 
HETATM   24  C   UNL     1      43.094  -8.797  12.688  1.00  0.00     0.002 C 
HETATM   25  C   UNL     1      42.831 -10.260  12.358  1.00  0.00     0.002 C 
HETATM   26  C   UNL     1      43.659 -10.565  11.109  1.00  0.00     0.025 C 
ENDBRANCH  20  22
ENDBRANCH   4  20
TORSDOF 4
ENDMDL
MODEL 8
REMARK VINA RESULT:      -7.6      5.263      8.008
REMARK  4 active torsions:
REMARK  status: ('A' for Active; 'I' for Inactive)
REMARK    1  A    between atoms: C_2  and  C_3 
REMARK    2  A    between atoms: C_6  and  C_7 
REMARK    3  A    between atoms: C_10  and  N_11 
REMARK    4  A    between atoms: N_11  and  C_12 
ROOT
HETATM    1  C   UNL     1      40.802 -14.618   1.300  1.00  0.00     0.076 C 
HETATM    2  C   UNL     1      42.283 -14.335   1.428  1.00  0.00     0.144 C 
HETATM    3  S   UNL     1      43.271 -15.828   1.621  1.00  0.00    -0.087 SA
HETATM    4  C   UNL     1      42.275 -16.641   2.765  1.00  0.00     0.157 C 
HETATM    5  N   UNL     1      40.968 -16.418   2.763  1.00  0.00    -0.257 N 
HETATM    6  H   UNL     1      40.439 -16.994   3.410  1.00  0.00     0.191 HD
HETATM    7  N   UNL     1      40.180 -15.562   1.950  1.00  0.00    -0.176 NA
ENDROOT
BRANCH   1   8
HETATM    8  C   UNL     1      39.959 -13.715   0.507  1.00  0.00     0.019 A 
HETATM    9  C   UNL     1      39.347 -13.938  -0.783  1.00  0.00     0.005 A 
HETATM   10  C   UNL     1      38.580 -12.811  -1.093  1.00  0.00     0.049 A 
HETATM   11  C   UNL     1      39.359 -15.002  -1.713  1.00  0.00     0.014 A 
HETATM   12  C   UNL     1      37.802 -12.692  -2.263  1.00  0.00    -0.031 A 
HETATM   13  N   UNL     1      38.751 -11.917  -0.063  1.00  0.00    -0.364 N 
HETATM   14  C   UNL     1      37.853 -13.774  -3.158  1.00  0.00     0.009 A 
HETATM   15  C   UNL     1      38.615 -14.906  -2.892  1.00  0.00     0.002 A 
HETATM   16  C   UNL     1      39.564 -12.448   0.902  1.00  0.00     0.102 A 
HETATM   17  H   UNL     1      38.319 -11.002  -0.027  1.00  0.00     0.165 HD
BRANCH  12  18
HETATM   18  C   UNL     1      36.958 -11.484  -2.591  1.00  0.00     0.036 C 
HETATM   19  C   UNL     1      37.788 -10.356  -3.183  1.00  0.00     0.010 C 
ENDBRANCH  12  18
ENDBRANCH   1   8
BRANCH   4  20
HETATM   20  N   UNL     1      42.911 -17.463   3.576  1.00  0.00    -0.365 N 
HETATM   21  H   UNL     1      42.735 -18.441   3.362  1.00  0.00     0.162 HD
BRANCH  20  22
HETATM   22  C   UNL     1      43.773 -17.118   4.709  1.00  0.00     0.083 C 
HETATM   23  C   UNL     1      43.342 -15.783   5.302  1.00  0.00     0.025 C 
HETATM   24  C   UNL     1      43.889 -15.848   6.716  1.00  0.00     0.002 C 
HETATM   25  C   UNL     1      43.615 -17.284   7.144  1.00  0.00     0.002 C 
HETATM   26  C   UNL     1      43.621 -18.113   5.858  1.00  0.00     0.025 C 
ENDBRANCH  20  22
ENDBRANCH   4  20
TORSDOF 4
ENDMDL
MODEL 9
REMARK VINA RESULT:      -7.5      1.763      8.675
REMARK  4 active torsions:
REMARK  status: ('A' for Active; 'I' for Inactive)
REMARK    1  A    between atoms: C_2  and  C_3 
REMARK    2  A    between atoms: C_6  and  C_7 
REMARK    3  A    between atoms: C_10  and  N_11 
REMARK    4  A    between atoms: N_11  and  C_12 
ROOT
HETATM    1  C   UNL     1      42.965 -13.333   5.158  1.00  0.00     0.076 C 
HETATM    2  C   UNL     1      43.041 -13.152   3.657  1.00  0.00     0.144 C 
HETATM    3  S   UNL     1      42.460 -14.591   2.745  1.00  0.00    -0.087 SA
HETATM    4  C   UNL     1      43.240 -15.809   3.677  1.00  0.00     0.157 C 
HETATM    5  N   UNL     1      43.477 -15.592   4.962  1.00  0.00    -0.257 N 
HETATM    6  H   UNL     1      43.865 -16.387   5.462  1.00  0.00     0.191 HD
HETATM    7  N   UNL     1      43.206 -14.458   5.771  1.00  0.00    -0.176 NA
ENDROOT
BRANCH   1   8
HETATM    8  C   UNL     1      42.738 -12.164   6.016  1.00  0.00     0.019 A 
HETATM    9  C   UNL     1      43.687 -11.422   6.815  1.00  0.00     0.005 A 
HETATM   10  C   UNL     1      43.008 -10.349   7.399  1.00  0.00     0.049 A 
HETATM   11  C   UNL     1      45.068 -11.553   7.086  1.00  0.00     0.014 A 
HETATM   12  C   UNL     1      43.628  -9.381   8.215  1.00  0.00    -0.031 A 
HETATM   13  N   UNL     1      41.692 -10.452   7.014  1.00  0.00    -0.364 N 
HETATM   14  C   UNL     1      45.001  -9.559   8.459  1.00  0.00     0.009 A 
HETATM   15  C   UNL     1      45.708 -10.622   7.909  1.00  0.00     0.002 A 
HETATM   16  C   UNL     1      41.520 -11.526   6.182  1.00  0.00     0.102 A 
HETATM   17  H   UNL     1      40.964  -9.811   7.302  1.00  0.00     0.165 HD
BRANCH  12  18
HETATM   18  C   UNL     1      42.902  -8.210   8.831  1.00  0.00     0.036 C 
HETATM   19  C   UNL     1      43.841  -7.053   9.132  1.00  0.00     0.010 C 
ENDBRANCH  12  18
ENDBRANCH   1   8
BRANCH   4  20
HETATM   20  N   UNL     1      43.541 -16.911   3.017  1.00  0.00    -0.365 N 
HETATM   21  H   UNL     1      44.108 -16.732   2.192  1.00  0.00     0.162 HD
BRANCH  20  22
HETATM   22  C   UNL     1      43.134 -18.283   3.326  1.00  0.00     0.083 C 
HETATM   23  C   UNL     1      43.454 -19.197   2.151  1.00  0.00     0.025 C 
HETATM   24  C   UNL     1      43.529 -20.568   2.798  1.00  0.00     0.002 C 
HETATM   25  C   UNL     1      44.260 -20.308   4.109  1.00  0.00     0.002 C 
HETATM   26  C   UNL     1      43.939 -18.862   4.489  1.00  0.00     0.025 C 
ENDBRANCH  20  22
ENDBRANCH   4  20
TORSDOF 4
ENDMDL
MODEL 10
REMARK VINA RESULT:      -7.5      3.462      4.403
REMARK  4 active torsions:
REMARK  status: ('A' for Active; 'I' for Inactive)
REMARK    1  A    between atoms: C_2  and  C_3 
REMARK    2  A    between atoms: C_6  and  C_7 
REMARK    3  A    between atoms: C_10  and  N_11 
REMARK    4  A    between atoms: N_11  and  C_12 
ROOT
HETATM    1  C   UNL     1      41.557 -14.619   5.591  1.00  0.00     0.076 C 
HETATM    2  C   UNL     1      42.278 -13.419   5.015  1.00  0.00     0.144 C 
HETATM    3  S   UNL     1      41.784 -11.867   5.781  1.00  0.00    -0.087 SA
HETATM    4  C   UNL     1      40.085 -12.132   5.811  1.00  0.00     0.157 C 
HETATM    5  N   UNL     1      39.621 -13.370   5.903  1.00  0.00    -0.257 N 
HETATM    6  H   UNL     1      38.613 -13.440   5.997  1.00  0.00     0.191 HD
HETATM    7  N   UNL     1      40.310 -14.610   5.969  1.00  0.00    -0.176 NA
ENDROOT
BRANCH   1   8
HETATM    8  C   UNL     1      42.233 -15.922   5.621  1.00  0.00     0.019 A 
HETATM    9  C   UNL     1      42.699 -16.732   4.518  1.00  0.00     0.005 A 
HETATM   10  C   UNL     1      43.341 -17.853   5.053  1.00  0.00     0.049 A 
HETATM   11  C   UNL     1      42.649 -16.610   3.111  1.00  0.00     0.014 A 
HETATM   12  C   UNL     1      43.962 -18.847   4.269  1.00  0.00    -0.031 A 
HETATM   13  N   UNL     1      43.234 -17.760   6.420  1.00  0.00    -0.364 N 
HETATM   14  C   UNL     1      43.880 -18.683   2.876  1.00  0.00     0.009 A 
HETATM   15  C   UNL     1      43.236 -17.590   2.306  1.00  0.00     0.002 A 
HETATM   16  C   UNL     1      42.583 -16.608   6.772  1.00  0.00     0.102 A 
HETATM   17  H   UNL     1      43.602 -18.446   7.066  1.00  0.00     0.165 HD
BRANCH  12  18
HETATM   18  C   UNL     1      44.673 -20.048   4.843  1.00  0.00     0.036 C 
HETATM   19  C   UNL     1      43.707 -21.174   5.174  1.00  0.00     0.010 C 
ENDBRANCH  12  18
ENDBRANCH   1   8
BRANCH   4  20
HETATM   20  N   UNL     1      39.347 -11.040   5.750  1.00  0.00    -0.365 N 
HETATM   21  H   UNL     1      39.178 -10.629   6.664  1.00  0.00     0.162 HD
BRANCH  20  22
HETATM   22  C   UNL     1      38.759 -10.418   4.562  1.00  0.00     0.083 C 
HETATM   23  C   UNL     1      39.354  -9.032   4.353  1.00  0.00     0.025 C 
HETATM   24  C   UNL     1      39.118  -8.781   2.875  1.00  0.00     0.002 C 
HETATM   25  C   UNL     1      39.426 -10.125   2.228  1.00  0.00     0.002 C 
HETATM   26  C   UNL     1      39.117 -11.183   3.288  1.00  0.00     0.025 C 
ENDBRANCH  20  22
ENDBRANCH   4  20
TORSDOF 4
ENDMDL
