MODEL 1
REMARK VINA RESULT:      -8.3      0.000      0.000
REMARK  8 active torsions:
REMARK  status: ('A' for Active; 'I' for Inactive)
REMARK    1  A    between atoms: C_2  and  C_3 
REMARK    2  A    between atoms: C_3  and  N_4 
REMARK       I    between atoms: N_4  and  C_5 
REMARK    3  A    between atoms: N_4  and  C_20 
REMARK    4  A    between atoms: C_5  and  C_6 
REMARK    5  A    between atoms: C_10  and  C_11 
REMARK    6  A    between atoms: C_12  and  O_13 
REMARK    7  A    between atoms: C_20  and  C_21 
REMARK    8  A    between atoms: C_21  and  C_22 
ROOT
HETATM    1  C   UNL     1      41.890 -12.634   4.513  1.00  0.00     0.120 A 
HETATM    2  N   UNL     1      42.438 -11.565   3.859  1.00  0.00    -0.272 N 
HETATM    3  H   UNL     1      42.240 -11.281   2.902  1.00  0.00     0.189 HD
HETATM    4  N   UNL     1      43.316 -10.854   4.583  1.00  0.00    -0.174 NA
HETATM    5  C   UNL     1      43.313 -11.447   5.790  1.00  0.00     0.092 A 
HETATM    6  C   UNL     1      42.402 -12.541   5.793  1.00  0.00     0.071 A 
ENDROOT
BRANCH   1   7
HETATM    7  C   UNL     1      40.928 -13.478   3.841  1.00  0.00     0.271 C 
HETATM    8  N   UNL     1      41.314 -14.705   3.274  1.00  0.00    -0.346 N 
HETATM    9  O   UNL     1      39.761 -13.091   3.767  1.00  0.00    -0.266 OA
BRANCH   8  10
HETATM   10  C   UNL     1      40.236 -15.646   2.937  1.00  0.00     0.126 C 
BRANCH  10  11
HETATM   11  C   UNL     1      40.178 -15.988   1.446  1.00  0.00     0.015 C 
HETATM   12  C   UNL     1      40.111 -14.755   0.558  1.00  0.00     0.006 C 
ENDBRANCH  10  11
ENDBRANCH   8  10
BRANCH   8  13
HETATM   13  C   UNL     1      42.712 -15.154   3.147  1.00  0.00     0.130 C 
BRANCH  13  14
HETATM   14  C   UNL     1      43.229 -16.083   4.260  1.00  0.00     0.058 C 
BRANCH  14  15
HETATM   15  C   UNL     1      43.402 -17.537   3.870  1.00  0.00    -0.057 A 
HETATM   16  C   UNL     1      43.057 -17.932   2.566  1.00  0.00     0.007 A 
HETATM   17  C   UNL     1      43.233 -19.251   2.144  1.00  0.00     0.001 A 
HETATM   18  C   UNL     1      43.764 -20.196   3.017  1.00  0.00     0.000 A 
HETATM   19  C   UNL     1      44.129 -19.818   4.307  1.00  0.00     0.001 A 
HETATM   20  C   UNL     1      43.959 -18.496   4.728  1.00  0.00     0.007 A 
ENDBRANCH  14  15
ENDBRANCH  13  14
ENDBRANCH   8  13
ENDBRANCH   1   7
BRANCH   5  21
HETATM   21  C   UNL     1      44.153 -10.941   6.887  1.00  0.00     0.028 A 
HETATM   22  C   UNL     1      45.543 -10.774   6.739  1.00  0.00     0.078 A 
HETATM   23  C   UNL     1      46.333 -10.289   7.781  1.00  0.00     0.037 A 
HETATM   24  C   UNL     1      45.748  -9.969   9.004  1.00  0.00     0.003 A 
HETATM   25  C   UNL     1      44.376 -10.135   9.179  1.00  0.00     0.001 A 
HETATM   26  C   UNL     1      43.584 -10.617   8.130  1.00  0.00     0.017 A 
BRANCH  22  27
HETATM   27  O   UNL     1      46.206 -11.073   5.576  1.00  0.00    -0.360 OA
HETATM   28  H   UNL     1      46.793 -10.303   5.391  1.00  0.00     0.217 HD
ENDBRANCH  22  27
ENDBRANCH   5  21
TORSDOF 8
ENDMDL
MODEL 2
REMARK VINA RESULT:      -8.1      3.103      6.526
REMARK  8 active torsions:
REMARK  status: ('A' for Active; 'I' for Inactive)
REMARK    1  A    between atoms: C_2  and  C_3 
REMARK    2  A    between atoms: C_3  and  N_4 
REMARK       I    between atoms: N_4  and  C_5 
REMARK    3  A    between atoms: N_4  and  C_20 
REMARK    4  A    between atoms: C_5  and  C_6 
REMARK    5  A    between atoms: C_10  and  C_11 
REMARK    6  A    between atoms: C_12  and  O_13 
REMARK    7  A    between atoms: C_20  and  C_21 
REMARK    8  A    between atoms: C_21  and  C_22 
ROOT
HETATM    1  C   UNL     1      41.211 -13.597   3.406  1.00  0.00     0.120 A 
HETATM    2  N   UNL     1      39.849 -13.653   3.288  1.00  0.00    -0.272 N 
HETATM    3  H   UNL     1      39.184 -13.741   4.051  1.00  0.00     0.189 HD
HETATM    4  N   UNL     1      39.393 -13.584   2.027  1.00  0.00    -0.174 NA
HETATM    5  C   UNL     1      40.499 -13.424   1.279  1.00  0.00     0.092 A 
HETATM    6  C   UNL     1      41.652 -13.388   2.114  1.00  0.00     0.071 A 
ENDROOT
BRANCH   1   7
HETATM    7  C   UNL     1      41.826 -13.660   4.713  1.00  0.00     0.271 C 
HETATM    8  N   UNL     1      42.338 -14.870   5.215  1.00  0.00    -0.346 N 
HETATM    9  O   UNL     1      41.882 -12.629   5.384  1.00  0.00    -0.266 OA
BRANCH   8  10
HETATM   10  C   UNL     1      43.247 -14.776   6.365  1.00  0.00     0.126 C 
BRANCH  10  11
HETATM   11  C   UNL     1      42.869 -15.719   7.511  1.00  0.00     0.015 C 
HETATM   12  C   UNL     1      43.930 -16.773   7.786  1.00  0.00     0.006 C 
ENDBRANCH  10  11
ENDBRANCH   8  10
BRANCH   8  13
HETATM   13  C   UNL     1      42.143 -16.181   4.569  1.00  0.00     0.130 C 
BRANCH  13  14
HETATM   14  C   UNL     1      43.297 -16.675   3.678  1.00  0.00     0.058 C 
BRANCH  14  15
HETATM   15  C   UNL     1      43.511 -18.175   3.657  1.00  0.00    -0.057 A 
HETATM   16  C   UNL     1      43.314 -18.869   2.451  1.00  0.00     0.007 A 
HETATM   17  C   UNL     1      43.535 -20.245   2.369  1.00  0.00     0.001 A 
HETATM   18  C   UNL     1      43.964 -20.949   3.490  1.00  0.00     0.000 A 
HETATM   19  C   UNL     1      44.183 -20.275   4.689  1.00  0.00     0.001 A 
HETATM   20  C   UNL     1      43.967 -18.895   4.770  1.00  0.00     0.007 A 
ENDBRANCH  14  15
ENDBRANCH  13  14
ENDBRANCH   8  13
ENDBRANCH   1   7
BRANCH   5  21
HETATM   21  C   UNL     1      40.414 -13.291  -0.184  1.00  0.00     0.028 A 
HETATM   22  C   UNL     1      39.787 -14.268  -0.981  1.00  0.00     0.078 A 
HETATM   23  C   UNL     1      39.705 -14.133  -2.367  1.00  0.00     0.037 A 
HETATM   24  C   UNL     1      40.260 -13.019  -2.989  1.00  0.00     0.003 A 
HETATM   25  C   UNL     1      40.895 -12.043  -2.224  1.00  0.00     0.001 A 
HETATM   26  C   UNL     1      40.971 -12.177  -0.833  1.00  0.00     0.017 A 
BRANCH  22  27
HETATM   27  O   UNL     1      39.223 -15.403  -0.456  1.00  0.00    -0.360 OA
HETATM   28  H   UNL     1      38.273 -15.189  -0.302  1.00  0.00     0.217 HD
ENDBRANCH  22  27
ENDBRANCH   5  21
TORSDOF 8
ENDMDL
MODEL 3
REMARK VINA RESULT:      -8.1      3.451      7.093
REMARK  8 active torsions:
REMARK  status: ('A' for Active; 'I' for Inactive)
REMARK    1  A    between atoms: C_2  and  C_3 
REMARK    2  A    between atoms: C_3  and  N_4 
REMARK       I    between atoms: N_4  and  C_5 
REMARK    3  A    between atoms: N_4  and  C_20 
REMARK    4  A    between atoms: C_5  and  C_6 
REMARK    5  A    between atoms: C_10  and  C_11 
REMARK    6  A    between atoms: C_12  and  O_13 
REMARK    7  A    between atoms: C_20  and  C_21 
REMARK    8  A    between atoms: C_21  and  C_22 
ROOT
HETATM    1  C   UNL     1      40.863 -13.597   2.339  1.00  0.00     0.120 A 
HETATM    2  N   UNL     1      41.514 -12.688   1.550  1.00  0.00    -0.272 N 
HETATM    3  H   UNL     1      42.310 -12.118   1.824  1.00  0.00     0.189 HD
HETATM    4  N   UNL     1      41.020 -12.569   0.307  1.00  0.00    -0.174 NA
HETATM    5  C   UNL     1      40.029 -13.477   0.252  1.00  0.00     0.092 A 
HETATM    6  C   UNL     1      39.929 -14.166   1.495  1.00  0.00     0.071 A 
ENDROOT
BRANCH   1   7
HETATM    7  C   UNL     1      41.300 -13.818   3.698  1.00  0.00     0.271 C 
HETATM    8  N   UNL     1      41.829 -15.059   4.096  1.00  0.00    -0.346 N 
HETATM    9  O   UNL     1      41.190 -12.896   4.507  1.00  0.00    -0.266 OA
BRANCH   8  10
HETATM   10  C   UNL     1      42.568 -15.087   5.366  1.00  0.00     0.126 C 
BRANCH  10  11
HETATM   11  C   UNL     1      41.973 -16.060   6.388  1.00  0.00     0.015 C 
HETATM   12  C   UNL     1      40.495 -15.814   6.649  1.00  0.00     0.006 C 
ENDBRANCH  10  11
ENDBRANCH   8  10
BRANCH   8  13
HETATM   13  C   UNL     1      41.820 -16.269   3.254  1.00  0.00     0.130 C 
BRANCH  13  14
HETATM   14  C   UNL     1      43.196 -16.780   2.787  1.00  0.00     0.058 C 
BRANCH  14  15
HETATM   15  C   UNL     1      43.489 -18.236   3.088  1.00  0.00    -0.057 A 
HETATM   16  C   UNL     1      43.934 -18.582   4.375  1.00  0.00     0.007 A 
HETATM   17  C   UNL     1      44.181 -19.914   4.715  1.00  0.00     0.001 A 
HETATM   18  C   UNL     1      43.980 -20.922   3.777  1.00  0.00     0.000 A 
HETATM   19  C   UNL     1      43.521 -20.598   2.503  1.00  0.00     0.001 A 
HETATM   20  C   UNL     1      43.268 -19.265   2.162  1.00  0.00     0.007 A 
ENDBRANCH  14  15
ENDBRANCH  13  14
ENDBRANCH   8  13
ENDBRANCH   1   7
BRANCH   5  21
HETATM   21  C   UNL     1      39.239 -13.664  -0.975  1.00  0.00     0.028 A 
HETATM   22  C   UNL     1      38.306 -12.703  -1.409  1.00  0.00     0.078 A 
HETATM   23  C   UNL     1      37.564 -12.885  -2.576  1.00  0.00     0.037 A 
HETATM   24  C   UNL     1      37.733 -14.043  -3.332  1.00  0.00     0.003 A 
HETATM   25  C   UNL     1      38.643 -15.013  -2.918  1.00  0.00     0.001 A 
HETATM   26  C   UNL     1      39.390 -14.826  -1.750  1.00  0.00     0.017 A 
BRANCH  22  27
HETATM   27  O   UNL     1      38.066 -11.540  -0.723  1.00  0.00    -0.360 OA
HETATM   28  H   UNL     1      38.706 -11.529   0.026  1.00  0.00     0.217 HD
ENDBRANCH  22  27
ENDBRANCH   5  21
TORSDOF 8
ENDMDL
MODEL 4
REMARK VINA RESULT:      -8.0      3.082      6.581
REMARK  8 active torsions:
REMARK  status: ('A' for Active; 'I' for Inactive)
REMARK    1  A    between atoms: C_2  and  C_3 
REMARK    2  A    between atoms: C_3  and  N_4 
REMARK       I    between atoms: N_4  and  C_5 
REMARK    3  A    between atoms: N_4  and  C_20 
REMARK    4  A    between atoms: C_5  and  C_6 
REMARK    5  A    between atoms: C_10  and  C_11 
REMARK    6  A    between atoms: C_12  and  O_13 
REMARK    7  A    between atoms: C_20  and  C_21 
REMARK    8  A    between atoms: C_21  and  C_22 
ROOT
HETATM    1  C   UNL     1      41.441 -15.263   1.443  1.00  0.00     0.120 A 
HETATM    2  N   UNL     1      42.771 -15.075   1.185  1.00  0.00    -0.272 N 
HETATM    3  H   UNL     1      43.183 -14.272   0.717  1.00  0.00     0.189 HD
HETATM    4  N   UNL     1      43.570 -16.070   1.602  1.00  0.00    -0.174 NA
HETATM    5  C   UNL     1      42.737 -16.934   2.211  1.00  0.00     0.092 A 
HETATM    6  C   UNL     1      41.402 -16.441   2.164  1.00  0.00     0.071 A 
ENDROOT
BRANCH   1   7
HETATM    7  C   UNL     1      40.479 -14.261   1.045  1.00  0.00     0.271 C 
HETATM    8  N   UNL     1      40.287 -13.097   1.810  1.00  0.00    -0.346 N 
HETATM    9  O   UNL     1      39.821 -14.455   0.022  1.00  0.00    -0.266 OA
BRANCH   8  10
HETATM   10  C   UNL     1      39.573 -11.989   1.160  1.00  0.00     0.126 C 
BRANCH  10  11
HETATM   11  C   UNL     1      38.417 -11.440   2.002  1.00  0.00     0.015 C 
HETATM   12  C   UNL     1      37.153 -11.205   1.190  1.00  0.00     0.006 C 
ENDBRANCH  10  11
ENDBRANCH   8  10
BRANCH   8  13
HETATM   13  C   UNL     1      40.885 -12.873   3.139  1.00  0.00     0.130 C 
BRANCH  13  14
HETATM   14  C   UNL     1      40.136 -13.495   4.332  1.00  0.00     0.058 C 
BRANCH  14  15
HETATM   15  C   UNL     1      41.011 -14.125   5.396  1.00  0.00    -0.057 A 
HETATM   16  C   UNL     1      40.670 -15.399   5.883  1.00  0.00     0.007 A 
HETATM   17  C   UNL     1      41.464 -16.040   6.835  1.00  0.00     0.001 A 
HETATM   18  C   UNL     1      42.617 -15.423   7.310  1.00  0.00     0.000 A 
HETATM   19  C   UNL     1      42.981 -14.170   6.824  1.00  0.00     0.001 A 
HETATM   20  C   UNL     1      42.189 -13.528   5.867  1.00  0.00     0.007 A 
ENDBRANCH  14  15
ENDBRANCH  13  14
ENDBRANCH   8  13
ENDBRANCH   1   7
BRANCH   5  21
HETATM   21  C   UNL     1      43.244 -18.172   2.824  1.00  0.00     0.028 A 
HETATM   22  C   UNL     1      43.913 -18.165   4.063  1.00  0.00     0.078 A 
HETATM   23  C   UNL     1      44.385 -19.343   4.641  1.00  0.00     0.037 A 
HETATM   24  C   UNL     1      44.208 -20.558   3.984  1.00  0.00     0.003 A 
HETATM   25  C   UNL     1      43.557 -20.591   2.752  1.00  0.00     0.001 A 
HETATM   26  C   UNL     1      43.079 -19.408   2.176  1.00  0.00     0.017 A 
BRANCH  22  27
HETATM   27  O   UNL     1      44.143 -17.016   4.774  1.00  0.00    -0.360 OA
HETATM   28  H   UNL     1      43.258 -16.695   5.066  1.00  0.00     0.217 HD
ENDBRANCH  22  27
ENDBRANCH   5  21
TORSDOF 8
ENDMDL
MODEL 5
REMARK VINA RESULT:      -8.0      1.951      6.851
REMARK  8 active torsions:
REMARK  status: ('A' for Active; 'I' for Inactive)
REMARK    1  A    between atoms: C_2  and  C_3 
REMARK    2  A    between atoms: C_3  and  N_4 
REMARK       I    between atoms: N_4  and  C_5 
REMARK    3  A    between atoms: N_4  and  C_20 
REMARK    4  A    between atoms: C_5  and  C_6 
REMARK    5  A    between atoms: C_10  and  C_11 
REMARK    6  A    between atoms: C_12  and  O_13 
REMARK    7  A    between atoms: C_20  and  C_21 
REMARK    8  A    between atoms: C_21  and  C_22 
ROOT
HETATM    1  C   UNL     1      43.159 -14.101   3.104  1.00  0.00     0.120 A 
HETATM    2  N   UNL     1      43.341 -14.457   1.796  1.00  0.00    -0.272 N 
HETATM    3  H   UNL     1      43.395 -13.822   1.003  1.00  0.00     0.189 HD
HETATM    4  N   UNL     1      43.452 -15.778   1.585  1.00  0.00    -0.174 NA
HETATM    5  C   UNL     1      43.392 -16.320   2.814  1.00  0.00     0.092 A 
HETATM    6  C   UNL     1      43.248 -15.295   3.793  1.00  0.00     0.071 A 
ENDROOT
BRANCH   1   7
HETATM    7  C   UNL     1      43.028 -12.707   3.462  1.00  0.00     0.271 C 
HETATM    8  N   UNL     1      41.986 -12.269   4.300  1.00  0.00    -0.346 N 
HETATM    9  O   UNL     1      43.845 -11.905   3.007  1.00  0.00    -0.266 OA
BRANCH   8  10
HETATM   10  C   UNL     1      42.132 -10.933   4.893  1.00  0.00     0.126 C 
BRANCH  10  11
HETATM   11  C   UNL     1      42.344 -10.966   6.409  1.00  0.00     0.015 C 
HETATM   12  C   UNL     1      43.644 -11.646   6.811  1.00  0.00     0.006 C 
ENDBRANCH  10  11
ENDBRANCH   8  10
BRANCH   8  13
HETATM   13  C   UNL     1      40.861 -13.118   4.730  1.00  0.00     0.130 C 
BRANCH  13  14
HETATM   14  C   UNL     1      39.600 -13.070   3.847  1.00  0.00     0.058 C 
BRANCH  14  15
HETATM   15  C   UNL     1      39.696 -13.815   2.531  1.00  0.00    -0.057 A 
HETATM   16  C   UNL     1      39.808 -13.074   1.343  1.00  0.00     0.007 A 
HETATM   17  C   UNL     1      39.938 -13.712   0.108  1.00  0.00     0.001 A 
HETATM   18  C   UNL     1      39.966 -15.102   0.041  1.00  0.00     0.000 A 
HETATM   19  C   UNL     1      39.875 -15.852   1.211  1.00  0.00     0.001 A 
HETATM   20  C   UNL     1      39.751 -15.214   2.449  1.00  0.00     0.007 A 
ENDBRANCH  14  15
ENDBRANCH  13  14
ENDBRANCH   8  13
ENDBRANCH   1   7
BRANCH   5  21
HETATM   21  C   UNL     1      43.494 -17.775   3.008  1.00  0.00     0.028 A 
HETATM   22  C   UNL     1      44.103 -18.329   4.150  1.00  0.00     0.078 A 
HETATM   23  C   UNL     1      44.191 -19.709   4.330  1.00  0.00     0.037 A 
HETATM   24  C   UNL     1      43.678 -20.569   3.363  1.00  0.00     0.003 A 
HETATM   25  C   UNL     1      43.078 -20.046   2.219  1.00  0.00     0.001 A 
HETATM   26  C   UNL     1      42.986 -18.661   2.043  1.00  0.00     0.017 A 
BRANCH  22  27
HETATM   27  O   UNL     1      44.645 -17.560   5.148  1.00  0.00    -0.360 OA
HETATM   28  H   UNL     1      44.330 -16.641   4.984  1.00  0.00     0.217 HD
ENDBRANCH  22  27
ENDBRANCH   5  21
TORSDOF 8
ENDMDL
MODEL 6
REMARK VINA RESULT:      -7.9      3.427      6.592
REMARK  8 active torsions:
REMARK  status: ('A' for Active; 'I' for Inactive)
REMARK    1  A    between atoms: C_2  and  C_3 
REMARK    2  A    between atoms: C_3  and  N_4 
REMARK       I    between atoms: N_4  and  C_5 
REMARK    3  A    between atoms: N_4  and  C_20 
REMARK    4  A    between atoms: C_5  and  C_6 
REMARK    5  A    between atoms: C_10  and  C_11 
REMARK    6  A    between atoms: C_12  and  O_13 
REMARK    7  A    between atoms: C_20  and  C_21 
REMARK    8  A    between atoms: C_21  and  C_22 
ROOT
HETATM    1  C   UNL     1      41.593 -15.668   1.594  1.00  0.00     0.120 A 
HETATM    2  N   UNL     1      42.894 -15.690   1.169  1.00  0.00    -0.272 N 
HETATM    3  H   UNL     1      43.313 -15.061   0.489  1.00  0.00     0.189 HD
HETATM    4  N   UNL     1      43.649 -16.650   1.726  1.00  0.00    -0.174 NA
HETATM    5  C   UNL     1      42.827 -17.260   2.598  1.00  0.00     0.092 A 
HETATM    6  C   UNL     1      41.543 -16.645   2.569  1.00  0.00     0.071 A 
ENDROOT
BRANCH   1   7
HETATM    7  C   UNL     1      40.679 -14.679   1.070  1.00  0.00     0.271 C 
HETATM    8  N   UNL     1      40.565 -13.411   1.666  1.00  0.00    -0.346 N 
HETATM    9  O   UNL     1      39.991 -14.978   0.093  1.00  0.00    -0.266 OA
BRANCH   8  10
HETATM   10  C   UNL     1      39.898 -12.367   0.875  1.00  0.00     0.126 C 
BRANCH  10  11
HETATM   11  C   UNL     1      40.879 -11.445   0.145  1.00  0.00     0.015 C 
HETATM   12  C   UNL     1      41.052 -11.807  -1.322  1.00  0.00     0.006 C 
ENDBRANCH  10  11
ENDBRANCH   8  10
BRANCH   8  13
HETATM   13  C   UNL     1      41.200 -13.037   2.942  1.00  0.00     0.130 C 
BRANCH  13  14
HETATM   14  C   UNL     1      40.451 -13.455   4.220  1.00  0.00     0.058 C 
BRANCH  14  15
HETATM   15  C   UNL     1      41.272 -14.220   5.239  1.00  0.00    -0.057 A 
HETATM   16  C   UNL     1      42.595 -13.815   5.480  1.00  0.00     0.007 A 
HETATM   17  C   UNL     1      43.381 -14.461   6.436  1.00  0.00     0.001 A 
HETATM   18  C   UNL     1      42.854 -15.517   7.173  1.00  0.00     0.000 A 
HETATM   19  C   UNL     1      41.538 -15.919   6.961  1.00  0.00     0.001 A 
HETATM   20  C   UNL     1      40.748 -15.269   6.007  1.00  0.00     0.007 A 
ENDBRANCH  14  15
ENDBRANCH  13  14
ENDBRANCH   8  13
ENDBRANCH   1   7
BRANCH   5  21
HETATM   21  C   UNL     1      43.297 -18.380   3.429  1.00  0.00     0.028 A 
HETATM   22  C   UNL     1      43.527 -19.659   2.888  1.00  0.00     0.078 A 
HETATM   23  C   UNL     1      43.977 -20.714   3.681  1.00  0.00     0.037 A 
HETATM   24  C   UNL     1      44.199 -20.514   5.041  1.00  0.00     0.003 A 
HETATM   25  C   UNL     1      43.971 -19.260   5.602  1.00  0.00     0.001 A 
HETATM   26  C   UNL     1      43.524 -18.201   4.804  1.00  0.00     0.017 A 
BRANCH  22  27
HETATM   27  O   UNL     1      43.324 -19.951   1.563  1.00  0.00    -0.360 OA
HETATM   28  H   UNL     1      43.161 -20.922   1.520  1.00  0.00     0.217 HD
ENDBRANCH  22  27
ENDBRANCH   5  21
TORSDOF 8
ENDMDL
MODEL 7
REMARK VINA RESULT:      -7.8      3.690      7.527
REMARK  8 active torsions:
REMARK  status: ('A' for Active; 'I' for Inactive)
REMARK    1  A    between atoms: C_2  and  C_3 
REMARK    2  A    between atoms: C_3  and  N_4 
REMARK       I    between atoms: N_4  and  C_5 
REMARK    3  A    between atoms: N_4  and  C_20 
REMARK    4  A    between atoms: C_5  and  C_6 
REMARK    5  A    between atoms: C_10  and  C_11 
REMARK    6  A    between atoms: C_12  and  O_13 
REMARK    7  A    between atoms: C_20  and  C_21 
REMARK    8  A    between atoms: C_21  and  C_22 
ROOT
HETATM    1  C   UNL     1      42.764 -14.565   3.113  1.00  0.00     0.120 A 
HETATM    2  N   UNL     1      42.312 -14.926   4.353  1.00  0.00    -0.272 N 
HETATM    3  H   UNL     1      41.881 -14.310   5.038  1.00  0.00     0.189 HD
HETATM    4  N   UNL     1      42.476 -16.225   4.653  1.00  0.00    -0.174 NA
HETATM    5  C   UNL     1      43.015 -16.759   3.542  1.00  0.00     0.092 A 
HETATM    6  C   UNL     1      43.172 -15.755   2.544  1.00  0.00     0.071 A 
ENDROOT
BRANCH   1   7
HETATM    7  C   UNL     1      42.642 -13.194   2.672  1.00  0.00     0.271 C 
HETATM    8  N   UNL     1      41.491 -12.750   1.998  1.00  0.00    -0.346 N 
HETATM    9  O   UNL     1      43.577 -12.422   2.891  1.00  0.00    -0.266 OA
BRANCH   8  10
HETATM   10  C   UNL     1      41.296 -11.296   1.908  1.00  0.00     0.126 C 
BRANCH  10  11
HETATM   11  C   UNL     1      39.865 -10.858   2.232  1.00  0.00     0.015 C 
HETATM   12  C   UNL     1      39.591 -10.788   3.726  1.00  0.00     0.006 C 
ENDBRANCH  10  11
ENDBRANCH   8  10
BRANCH   8  13
HETATM   13  C   UNL     1      40.415 -13.640   1.526  1.00  0.00     0.130 C 
BRANCH  13  14
HETATM   14  C   UNL     1      40.599 -14.237   0.119  1.00  0.00     0.058 C 
BRANCH  14  15
HETATM   15  C   UNL     1      39.533 -13.867  -0.893  1.00  0.00    -0.057 A 
HETATM   16  C   UNL     1      39.273 -14.751  -1.954  1.00  0.00     0.007 A 
HETATM   17  C   UNL     1      38.275 -14.475  -2.891  1.00  0.00     0.001 A 
HETATM   18  C   UNL     1      37.515 -13.315  -2.778  1.00  0.00     0.000 A 
HETATM   19  C   UNL     1      37.746 -12.437  -1.722  1.00  0.00     0.001 A 
HETATM   20  C   UNL     1      38.741 -12.715  -0.780  1.00  0.00     0.007 A 
ENDBRANCH  14  15
ENDBRANCH  13  14
ENDBRANCH   8  13
ENDBRANCH   1   7
BRANCH   5  21
HETATM   21  C   UNL     1      43.335 -18.194   3.468  1.00  0.00     0.028 A 
HETATM   22  C   UNL     1      43.851 -18.895   4.574  1.00  0.00     0.078 A 
HETATM   23  C   UNL     1      44.147 -20.256   4.498  1.00  0.00     0.037 A 
HETATM   24  C   UNL     1      43.944 -20.945   3.306  1.00  0.00     0.003 A 
HETATM   25  C   UNL     1      43.443 -20.271   2.194  1.00  0.00     0.001 A 
HETATM   26  C   UNL     1      43.141 -18.907   2.273  1.00  0.00     0.017 A 
BRANCH  22  27
HETATM   27  O   UNL     1      44.094 -18.296   5.784  1.00  0.00    -0.360 OA
HETATM   28  H   UNL     1      43.743 -18.913   6.468  1.00  0.00     0.217 HD
ENDBRANCH  22  27
ENDBRANCH   5  21
TORSDOF 8
ENDMDL
MODEL 8
REMARK VINA RESULT:      -7.7      1.843      7.933
REMARK  8 active torsions:
REMARK  status: ('A' for Active; 'I' for Inactive)
REMARK    1  A    between atoms: C_2  and  C_3 
REMARK    2  A    between atoms: C_3  and  N_4 
REMARK       I    between atoms: N_4  and  C_5 
REMARK    3  A    between atoms: N_4  and  C_20 
REMARK    4  A    between atoms: C_5  and  C_6 
REMARK    5  A    between atoms: C_10  and  C_11 
REMARK    6  A    between atoms: C_12  and  O_13 
REMARK    7  A    between atoms: C_20  and  C_21 
REMARK    8  A    between atoms: C_21  and  C_22 
ROOT
HETATM    1  C   UNL     1      42.326 -14.383   3.847  1.00  0.00     0.120 A 
HETATM    2  N   UNL     1      41.333 -15.055   4.507  1.00  0.00    -0.272 N 
HETATM    3  H   UNL     1      40.530 -14.635   4.969  1.00  0.00     0.189 HD
HETATM    4  N   UNL     1      41.474 -16.390   4.524  1.00  0.00    -0.174 NA
HETATM    5  C   UNL     1      42.584 -16.618   3.799  1.00  0.00     0.092 A 
HETATM    6  C   UNL     1      43.120 -15.387   3.327  1.00  0.00     0.071 A 
ENDROOT
BRANCH   1   7
HETATM    7  C   UNL     1      42.286 -12.941   3.757  1.00  0.00     0.271 C 
HETATM    8  N   UNL     1      42.718 -12.137   4.827  1.00  0.00    -0.346 N 
HETATM    9  O   UNL     1      41.855 -12.431   2.722  1.00  0.00    -0.266 OA
BRANCH   8  10
HETATM   10  C   UNL     1      42.981 -10.723   4.526  1.00  0.00     0.126 C 
BRANCH  10  11
HETATM   11  C   UNL     1      41.818  -9.801   4.903  1.00  0.00     0.015 C 
HETATM   12  C   UNL     1      41.932  -9.252   6.317  1.00  0.00     0.006 C 
ENDBRANCH  10  11
ENDBRANCH   8  10
BRANCH   8  13
HETATM   13  C   UNL     1      43.065 -12.655   6.162  1.00  0.00     0.130 C 
BRANCH  13  14
HETATM   14  C   UNL     1      44.544 -12.532   6.574  1.00  0.00     0.058 C 
BRANCH  14  15
HETATM   15  C   UNL     1      44.872 -11.372   7.492  1.00  0.00    -0.057 A 
HETATM   16  C   UNL     1      45.980 -10.563   7.188  1.00  0.00     0.007 A 
HETATM   17  C   UNL     1      46.302  -9.459   7.980  1.00  0.00     0.001 A 
HETATM   18  C   UNL     1      45.517  -9.141   9.085  1.00  0.00     0.000 A 
HETATM   19  C   UNL     1      44.405  -9.921   9.390  1.00  0.00     0.001 A 
HETATM   20  C   UNL     1      44.078 -11.023   8.594  1.00  0.00     0.007 A 
ENDBRANCH  14  15
ENDBRANCH  13  14
ENDBRANCH   8  13
ENDBRANCH   1   7
BRANCH   5  21
HETATM   21  C   UNL     1      43.072 -17.987   3.570  1.00  0.00     0.028 A 
HETATM   22  C   UNL     1      43.692 -18.733   4.590  1.00  0.00     0.078 A 
HETATM   23  C   UNL     1      44.148 -20.032   4.367  1.00  0.00     0.037 A 
HETATM   24  C   UNL     1      44.002 -20.612   3.110  1.00  0.00     0.003 A 
HETATM   25  C   UNL     1      43.401 -19.891   2.080  1.00  0.00     0.001 A 
HETATM   26  C   UNL     1      42.939 -18.590   2.308  1.00  0.00     0.017 A 
BRANCH  22  27
HETATM   27  O   UNL     1      43.889 -18.239   5.855  1.00  0.00    -0.360 OA
HETATM   28  H   UNL     1      43.835 -19.014   6.461  1.00  0.00     0.217 HD
ENDBRANCH  22  27
ENDBRANCH   5  21
TORSDOF 8
ENDMDL
MODEL 9
REMARK VINA RESULT:      -7.5      2.482      6.312
REMARK  8 active torsions:
REMARK  status: ('A' for Active; 'I' for Inactive)
REMARK    1  A    between atoms: C_2  and  C_3 
REMARK    2  A    between atoms: C_3  and  N_4 
REMARK       I    between atoms: N_4  and  C_5 
REMARK    3  A    between atoms: N_4  and  C_20 
REMARK    4  A    between atoms: C_5  and  C_6 
REMARK    5  A    between atoms: C_10  and  C_11 
REMARK    6  A    between atoms: C_12  and  O_13 
REMARK    7  A    between atoms: C_20  and  C_21 
REMARK    8  A    between atoms: C_21  and  C_22 
ROOT
HETATM    1  C   UNL     1      40.622 -13.471   3.504  1.00  0.00     0.120 A 
HETATM    2  N   UNL     1      39.295 -13.413   3.176  1.00  0.00    -0.272 N 
HETATM    3  H   UNL     1      38.515 -13.445   3.828  1.00  0.00     0.189 HD
HETATM    4  N   UNL     1      39.047 -13.309   1.861  1.00  0.00    -0.174 NA
HETATM    5  C   UNL     1      40.265 -13.243   1.294  1.00  0.00     0.092 A 
HETATM    6  C   UNL     1      41.273 -13.301   2.298  1.00  0.00     0.071 A 
ENDROOT
BRANCH   1   7
HETATM    7  C   UNL     1      41.020 -13.582   4.889  1.00  0.00     0.271 C 
HETATM    8  N   UNL     1      41.577 -14.772   5.389  1.00  0.00    -0.346 N 
HETATM    9  O   UNL     1      40.851 -12.610   5.627  1.00  0.00    -0.266 OA
BRANCH   8  10
HETATM   10  C   UNL     1      42.272 -14.686   6.681  1.00  0.00     0.126 C 
BRANCH  10  11
HETATM   11  C   UNL     1      43.761 -14.357   6.544  1.00  0.00     0.015 C 
HETATM   12  C   UNL     1      44.084 -12.914   6.897  1.00  0.00     0.006 C 
ENDBRANCH  10  11
ENDBRANCH   8  10
BRANCH   8  13
HETATM   13  C   UNL     1      41.638 -16.037   4.634  1.00  0.00     0.130 C 
BRANCH  13  14
HETATM   14  C   UNL     1      42.909 -16.266   3.797  1.00  0.00     0.058 C 
BRANCH  14  15
HETATM   15  C   UNL     1      43.269 -17.714   3.537  1.00  0.00    -0.057 A 
HETATM   16  C   UNL     1      43.856 -18.461   4.572  1.00  0.00     0.007 A 
HETATM   17  C   UNL     1      44.171 -19.810   4.396  1.00  0.00     0.001 A 
HETATM   18  C   UNL     1      43.895 -20.437   3.185  1.00  0.00     0.000 A 
HETATM   19  C   UNL     1      43.296 -19.718   2.154  1.00  0.00     0.001 A 
HETATM   20  C   UNL     1      42.975 -18.368   2.331  1.00  0.00     0.007 A 
ENDBRANCH  14  15
ENDBRANCH  13  14
ENDBRANCH   8  13
ENDBRANCH   1   7
BRANCH   5  21
HETATM   21  C   UNL     1      40.417 -13.106  -0.163  1.00  0.00     0.028 A 
HETATM   22  C   UNL     1      40.970 -11.950  -0.744  1.00  0.00     0.078 A 
HETATM   23  C   UNL     1      41.117 -11.830  -2.126  1.00  0.00     0.037 A 
HETATM   24  C   UNL     1      40.703 -12.865  -2.960  1.00  0.00     0.003 A 
HETATM   25  C   UNL     1      40.144 -14.016  -2.410  1.00  0.00     0.001 A 
HETATM   26  C   UNL     1      40.002 -14.137  -1.023  1.00  0.00     0.017 A 
BRANCH  22  27
HETATM   27  O   UNL     1      41.394 -10.877  -0.002  1.00  0.00    -0.360 OA
HETATM   28  H   UNL     1      41.650 -11.239   0.878  1.00  0.00     0.217 HD
ENDBRANCH  22  27
ENDBRANCH   5  21
TORSDOF 8
ENDMDL
MODEL 10
REMARK VINA RESULT:      -7.5      2.352      3.631
REMARK  8 active torsions:
REMARK  status: ('A' for Active; 'I' for Inactive)
REMARK    1  A    between atoms: C_2  and  C_3 
REMARK    2  A    between atoms: C_3  and  N_4 
REMARK       I    between atoms: N_4  and  C_5 
REMARK    3  A    between atoms: N_4  and  C_20 
REMARK    4  A    between atoms: C_5  and  C_6 
REMARK    5  A    between atoms: C_10  and  C_11 
REMARK    6  A    between atoms: C_12  and  O_13 
REMARK    7  A    between atoms: C_20  and  C_21 
REMARK    8  A    between atoms: C_21  and  C_22 
ROOT
HETATM    1  C   UNL     1      40.224 -12.420   2.158  1.00  0.00     0.120 A 
HETATM    2  N   UNL     1      39.368 -12.631   3.204  1.00  0.00    -0.272 N 
HETATM    3  H   UNL     1      38.374 -12.835   3.134  1.00  0.00     0.189 HD
HETATM    4  N   UNL     1      39.935 -12.549   4.418  1.00  0.00    -0.174 NA
HETATM    5  C   UNL     1      41.236 -12.323   4.165  1.00  0.00     0.092 A 
HETATM    6  C   UNL     1      41.459 -12.276   2.759  1.00  0.00     0.071 A 
ENDROOT
BRANCH   1   7
HETATM    7  C   UNL     1      39.734 -12.484   0.799  1.00  0.00     0.271 C 
HETATM    8  N   UNL     1      39.916 -13.639   0.018  1.00  0.00    -0.346 N 
HETATM    9  O   UNL     1      39.162 -11.497   0.336  1.00  0.00    -0.266 OA
BRANCH   8  10
HETATM   10  C   UNL     1      39.092 -13.754  -1.193  1.00  0.00     0.126 C 
BRANCH  10  11
HETATM   11  C   UNL     1      39.913 -14.030  -2.456  1.00  0.00     0.015 C 
HETATM   12  C   UNL     1      40.714 -12.822  -2.917  1.00  0.00     0.006 C 
ENDBRANCH  10  11
ENDBRANCH   8  10
BRANCH   8  13
HETATM   13  C   UNL     1      40.750 -14.786   0.420  1.00  0.00     0.130 C 
BRANCH  13  14
HETATM   14  C   UNL     1      40.125 -15.754   1.441  1.00  0.00     0.058 C 
BRANCH  14  15
HETATM   15  C   UNL     1      41.015 -16.141   2.605  1.00  0.00    -0.057 A 
HETATM   16  C   UNL     1      42.338 -16.533   2.341  1.00  0.00     0.007 A 
HETATM   17  C   UNL     1      43.211 -16.862   3.380  1.00  0.00     0.001 A 
HETATM   18  C   UNL     1      42.778 -16.797   4.701  1.00  0.00     0.000 A 
HETATM   19  C   UNL     1      41.475 -16.392   4.982  1.00  0.00     0.001 A 
HETATM   20  C   UNL     1      40.602 -16.057   3.942  1.00  0.00     0.007 A 
ENDBRANCH  14  15
ENDBRANCH  13  14
ENDBRANCH   8  13
ENDBRANCH   1   7
BRANCH   5  21
HETATM   21  C   UNL     1      42.209 -12.183   5.260  1.00  0.00     0.028 A 
HETATM   22  C   UNL     1      42.246 -11.037   6.076  1.00  0.00     0.078 A 
HETATM   23  C   UNL     1      43.168 -10.914   7.116  1.00  0.00     0.037 A 
HETATM   24  C   UNL     1      44.084 -11.935   7.356  1.00  0.00     0.003 A 
HETATM   25  C   UNL     1      44.074 -13.076   6.556  1.00  0.00     0.001 A 
HETATM   26  C   UNL     1      43.145 -13.200   5.517  1.00  0.00     0.017 A 
BRANCH  22  27
HETATM   27  O   UNL     1      41.392  -9.978   5.906  1.00  0.00    -0.360 OA
HETATM   28  H   UNL     1      40.502 -10.298   6.185  1.00  0.00     0.217 HD
ENDBRANCH  22  27
ENDBRANCH   5  21
TORSDOF 8
ENDMDL
