MODEL 1
REMARK VINA RESULT:      -9.0      0.000      0.000
REMARK  10 active torsions:
REMARK  status: ('A' for Active; 'I' for Inactive)
REMARK    1  A    between atoms: N_15  and  C_16 
REMARK    2  A    between atoms: C_16  and  C_17 
REMARK    3  A    between atoms: C_17  and  N_18 
REMARK       I    between atoms: N_18  and  C_19 
REMARK    4  A    between atoms: C_19  and  C_20 
REMARK    5  A    between atoms: C_20  and  C_21 
REMARK    6  A    between atoms: C_21  and  C_22 
REMARK    7  A    between atoms: C_24  and  C_25 
REMARK    8  A    between atoms: C_29  and  O_30 
REMARK    9  A    between atoms: C_31  and  C_32 
REMARK   10  A    between atoms: C_38  and  O_39 
ROOT
HETATM    1  C   UNL     1      43.959 -12.213   7.239  1.00  0.00     0.142 C 
ENDROOT
BRANCH   1   2
HETATM    2  C   UNL     1      43.000 -11.609   6.206  1.00  0.00     0.151 C 
BRANCH   2   3
HETATM    3  N   UNL     1      43.025 -12.280   4.900  1.00  0.00    -0.291 N 
HETATM    4  C   UNL     1      43.928 -11.884   3.935  1.00  0.00     0.366 C 
HETATM    5  O   UNL     1      43.512 -12.320   2.707  1.00  0.00    -0.287 OA
HETATM    6  O   UNL     1      44.942 -11.229   4.105  1.00  0.00    -0.238 OA
HETATM    7  C   UNL     1      42.426 -13.277   2.888  1.00  0.00     0.126 C 
HETATM    8  C   UNL     1      41.561 -13.160   1.624  1.00  0.00     0.082 C 
HETATM    9  C   UNL     1      41.845 -12.775   4.241  1.00  0.00     0.166 C 
HETATM   10  C   UNL     1      43.126 -14.659   2.925  1.00  0.00     0.082 C 
HETATM   11  C   UNL     1      40.612 -14.328   1.332  1.00  0.00     0.122 C 
HETATM   12  N   UNL     1      41.390 -15.620   1.393  1.00  0.00    -0.059 N 
HETATM   13  C   UNL     1      40.102 -14.212  -0.120  1.00  0.00     0.046 C 
HETATM   14  C   UNL     1      39.381 -14.401   2.235  1.00  0.00     0.046 C 
HETATM   15  C   UNL     1      42.308 -15.909   2.558  1.00  0.00     0.122 C 
HETATM   16  H   UNL     1      41.967 -15.662   0.538  1.00  0.00     0.279 HD
HETATM   17  H   UNL     1      40.736 -16.410   1.287  1.00  0.00     0.279 HD
HETATM   18  C   UNL     1      43.288 -16.998   2.054  1.00  0.00     0.046 C 
HETATM   19  C   UNL     1      41.514 -16.542   3.705  1.00  0.00     0.046 C 
HETATM   20  C   UNL     1      40.781 -11.677   4.119  1.00  0.00     0.074 C 
BRANCH   9  21
HETATM   21  O   UNL     1      41.335 -13.856   4.989  1.00  0.00    -0.368 OA
HETATM   22  H   UNL     1      42.041 -14.519   5.070  1.00  0.00     0.212 HD
ENDBRANCH   9  21
ENDBRANCH   2   3
ENDBRANCH   1   2
BRANCH   1  23
HETATM   23  N   UNL     1      44.281 -11.320   8.334  1.00  0.00    -0.359 N 
HETATM   24  C   UNL     1      45.425 -10.561   8.320  1.00  0.00     0.217 C 
HETATM   25  O   UNL     1      46.256 -10.647   7.417  1.00  0.00    -0.274 OA
HETATM   26  H   UNL     1      43.605 -11.222   9.089  1.00  0.00     0.162 HD
BRANCH  24  27
HETATM   27  C   UNL     1      45.558  -9.498   9.393  1.00  0.00     0.107 C 
BRANCH  27  28
HETATM   28  C   UNL     1      44.816  -9.736  10.704  1.00  0.00     0.048 C 
BRANCH  28  29
HETATM   29  C   UNL     1      43.527  -8.973  10.902  1.00  0.00    -0.057 A 
HETATM   30  C   UNL     1      42.451  -9.099  10.016  1.00  0.00     0.018 A 
HETATM   31  C   UNL     1      41.209  -8.465  10.232  1.00  0.00    -0.016 A 
HETATM   32  C   UNL     1      41.090  -7.723  11.431  1.00  0.00     0.079 A 
HETATM   33  C   UNL     1      42.139  -7.580  12.374  1.00  0.00    -0.016 A 
HETATM   34  C   UNL     1      43.355  -8.213  12.065  1.00  0.00     0.018 A 
BRANCH  31  35
HETATM   35  C   UNL     1      40.052  -8.725   9.232  1.00  0.00    -0.021 C 
HETATM   36  C   UNL     1      39.099  -9.757   9.870  1.00  0.00     0.019 C 
HETATM   37  C   UNL     1      39.218  -7.483   8.840  1.00  0.00     0.019 C 
HETATM   38  C   UNL     1      40.565  -9.303   7.885  1.00  0.00     0.019 C 
ENDBRANCH  31  35
BRANCH  32  39
HETATM   39  O   UNL     1      39.895  -7.137  11.739  1.00  0.00    -0.360 OA
HETATM   40  H   UNL     1      39.510  -7.686  12.442  1.00  0.00     0.217 HD
ENDBRANCH  32  39
BRANCH  33  41
HETATM   41  C   UNL     1      41.968  -6.812  13.709  1.00  0.00    -0.021 C 
HETATM   42  C   UNL     1      41.727  -5.312  13.431  1.00  0.00     0.019 C 
HETATM   43  C   UNL     1      40.759  -7.294  14.555  1.00  0.00     0.019 C 
HETATM   44  C   UNL     1      43.209  -6.990  14.612  1.00  0.00     0.019 C 
ENDBRANCH  33  41
ENDBRANCH  28  29
ENDBRANCH  27  28
ENDBRANCH  24  27
ENDBRANCH   1  23
TORSDOF 10
ENDMDL
MODEL 2
REMARK VINA RESULT:      -8.8      2.452      9.539
REMARK  10 active torsions:
REMARK  status: ('A' for Active; 'I' for Inactive)
REMARK    1  A    between atoms: N_15  and  C_16 
REMARK    2  A    between atoms: C_16  and  C_17 
REMARK    3  A    between atoms: C_17  and  N_18 
REMARK       I    between atoms: N_18  and  C_19 
REMARK    4  A    between atoms: C_19  and  C_20 
REMARK    5  A    between atoms: C_20  and  C_21 
REMARK    6  A    between atoms: C_21  and  C_22 
REMARK    7  A    between atoms: C_24  and  C_25 
REMARK    8  A    between atoms: C_29  and  O_30 
REMARK    9  A    between atoms: C_31  and  C_32 
REMARK   10  A    between atoms: C_38  and  O_39 
ROOT
HETATM    1  C   UNL     1      44.227 -11.433   7.451  1.00  0.00     0.142 C 
ENDROOT
BRANCH   1   2
HETATM    2  C   UNL     1      44.678 -10.712   8.727  1.00  0.00     0.151 C 
BRANCH   2   3
HETATM    3  N   UNL     1      43.984  -9.442   8.975  1.00  0.00    -0.291 N 
HETATM    4  C   UNL     1      44.633  -8.245   8.757  1.00  0.00     0.366 C 
HETATM    5  O   UNL     1      43.992  -7.242   9.431  1.00  0.00    -0.287 OA
HETATM    6  O   UNL     1      45.637  -8.066   8.089  1.00  0.00    -0.238 OA
HETATM    7  C   UNL     1      42.704  -7.740   9.904  1.00  0.00     0.126 C 
HETATM    8  C   UNL     1      42.396  -6.936  11.177  1.00  0.00     0.082 C 
HETATM    9  C   UNL     1      43.031  -9.254  10.037  1.00  0.00     0.166 C 
HETATM   10  C   UNL     1      41.703  -7.360   8.783  1.00  0.00     0.082 C 
HETATM   11  C   UNL     1      40.937  -6.926  11.645  1.00  0.00     0.122 C 
HETATM   12  N   UNL     1      40.051  -6.547  10.483  1.00  0.00    -0.059 N 
HETATM   13  C   UNL     1      40.753  -5.810  12.696  1.00  0.00     0.046 C 
HETATM   14  C   UNL     1      40.455  -8.228  12.284  1.00  0.00     0.046 C 
HETATM   15  C   UNL     1      40.214  -7.222   9.141  1.00  0.00     0.122 C 
HETATM   16  H   UNL     1      40.178  -5.535  10.328  1.00  0.00     0.279 HD
HETATM   17  H   UNL     1      39.065  -6.629  10.774  1.00  0.00     0.279 HD
HETATM   18  C   UNL     1      39.555  -6.268   8.114  1.00  0.00     0.046 C 
HETATM   19  C   UNL     1      39.401  -8.520   9.106  1.00  0.00     0.046 C 
HETATM   20  C   UNL     1      43.625  -9.671  11.389  1.00  0.00     0.074 C 
BRANCH   9  21
HETATM   21  O   UNL     1      41.889 -10.031   9.756  1.00  0.00    -0.368 OA
HETATM   22  H   UNL     1      41.763 -10.651  10.496  1.00  0.00     0.212 HD
ENDBRANCH   9  21
ENDBRANCH   2   3
ENDBRANCH   1   2
BRANCH   1  23
HETATM   23  N   UNL     1      42.800 -11.358   7.208  1.00  0.00    -0.359 N 
HETATM   24  C   UNL     1      42.306 -11.029   5.969  1.00  0.00     0.217 C 
HETATM   25  O   UNL     1      43.041 -10.723   5.031  1.00  0.00    -0.274 OA
HETATM   26  H   UNL     1      42.169 -11.616   7.964  1.00  0.00     0.162 HD
BRANCH  24  27
HETATM   27  C   UNL     1      40.814 -11.198   5.757  1.00  0.00     0.107 C 
BRANCH  27  28
HETATM   28  C   UNL     1      40.220 -12.573   6.050  1.00  0.00     0.048 C 
BRANCH  28  29
HETATM   29  C   UNL     1      40.934 -13.761   5.450  1.00  0.00    -0.057 A 
HETATM   30  C   UNL     1      40.925 -14.010   4.073  1.00  0.00     0.018 A 
HETATM   31  C   UNL     1      41.659 -15.062   3.485  1.00  0.00    -0.016 A 
HETATM   32  C   UNL     1      42.454 -15.834   4.365  1.00  0.00     0.079 A 
HETATM   33  C   UNL     1      42.518 -15.612   5.764  1.00  0.00    -0.016 A 
HETATM   34  C   UNL     1      41.728 -14.567   6.274  1.00  0.00     0.018 A 
BRANCH  31  35
HETATM   35  C   UNL     1      41.644 -15.213   1.941  1.00  0.00    -0.021 C 
HETATM   36  C   UNL     1      40.497 -16.176   1.571  1.00  0.00     0.019 C 
HETATM   37  C   UNL     1      41.442 -13.901   1.146  1.00  0.00     0.019 C 
HETATM   38  C   UNL     1      42.973 -15.807   1.400  1.00  0.00     0.019 C 
ENDBRANCH  31  35
BRANCH  32  39
HETATM   39  O   UNL     1      43.242 -16.827   3.858  1.00  0.00    -0.360 OA
HETATM   40  H   UNL     1      44.156 -16.542   4.021  1.00  0.00     0.217 HD
ENDBRANCH  32  39
BRANCH  33  41
HETATM   41  C   UNL     1      43.441 -16.431   6.701  1.00  0.00    -0.021 C 
HETATM   42  C   UNL     1      43.216 -16.008   8.170  1.00  0.00     0.019 C 
HETATM   43  C   UNL     1      43.183 -17.961   6.649  1.00  0.00     0.019 C 
HETATM   44  C   UNL     1      44.926 -16.243   6.319  1.00  0.00     0.019 C 
ENDBRANCH  33  41
ENDBRANCH  28  29
ENDBRANCH  27  28
ENDBRANCH  24  27
ENDBRANCH   1  23
TORSDOF 10
ENDMDL
MODEL 3
REMARK VINA RESULT:      -8.8      0.388      2.960
REMARK  10 active torsions:
REMARK  status: ('A' for Active; 'I' for Inactive)
REMARK    1  A    between atoms: N_15  and  C_16 
REMARK    2  A    between atoms: C_16  and  C_17 
REMARK    3  A    between atoms: C_17  and  N_18 
REMARK       I    between atoms: N_18  and  C_19 
REMARK    4  A    between atoms: C_19  and  C_20 
REMARK    5  A    between atoms: C_20  and  C_21 
REMARK    6  A    between atoms: C_21  and  C_22 
REMARK    7  A    between atoms: C_24  and  C_25 
REMARK    8  A    between atoms: C_29  and  O_30 
REMARK    9  A    between atoms: C_31  and  C_32 
REMARK   10  A    between atoms: C_38  and  O_39 
ROOT
HETATM    1  C   UNL     1      43.990 -12.139   7.227  1.00  0.00     0.142 C 
ENDROOT
BRANCH   1   2
HETATM    2  C   UNL     1      43.021 -11.565   6.186  1.00  0.00     0.151 C 
BRANCH   2   3
HETATM    3  N   UNL     1      43.041 -12.267   4.897  1.00  0.00    -0.291 N 
HETATM    4  C   UNL     1      43.951 -11.904   3.925  1.00  0.00     0.366 C 
HETATM    5  O   UNL     1      43.532 -12.364   2.707  1.00  0.00    -0.287 OA
HETATM    6  O   UNL     1      44.972 -11.257   4.082  1.00  0.00    -0.238 OA
HETATM    7  C   UNL     1      42.436 -13.304   2.908  1.00  0.00     0.126 C 
HETATM    8  C   UNL     1      41.575 -13.207   1.639  1.00  0.00     0.082 C 
HETATM    9  C   UNL     1      41.857 -12.764   4.247  1.00  0.00     0.166 C 
HETATM   10  C   UNL     1      43.120 -14.693   2.978  1.00  0.00     0.082 C 
HETATM   11  C   UNL     1      40.613 -14.371   1.372  1.00  0.00     0.122 C 
HETATM   12  N   UNL     1      41.376 -15.670   1.465  1.00  0.00    -0.059 N 
HETATM   13  C   UNL     1      40.108 -14.283  -0.084  1.00  0.00     0.046 C 
HETATM   14  C   UNL     1      39.379 -14.408   2.273  1.00  0.00     0.046 C 
HETATM   15  C   UNL     1      42.289 -15.942   2.639  1.00  0.00     0.122 C 
HETATM   16  H   UNL     1      41.954 -15.739   0.613  1.00  0.00     0.279 HD
HETATM   17  H   UNL     1      40.713 -16.455   1.376  1.00  0.00     0.279 HD
HETATM   18  C   UNL     1      43.257 -17.053   2.163  1.00  0.00     0.046 C 
HETATM   19  C   UNL     1      41.485 -16.539   3.798  1.00  0.00     0.046 C 
HETATM   20  C   UNL     1      40.806 -11.657   4.096  1.00  0.00     0.074 C 
BRANCH   9  21
HETATM   21  O   UNL     1      41.333 -13.821   5.019  1.00  0.00    -0.368 OA
HETATM   22  H   UNL     1      40.402 -13.940   4.763  1.00  0.00     0.212 HD
ENDBRANCH   9  21
ENDBRANCH   2   3
ENDBRANCH   1   2
BRANCH   1  23
HETATM   23  N   UNL     1      44.268 -11.240   8.329  1.00  0.00    -0.359 N 
HETATM   24  C   UNL     1      45.444 -10.533   8.392  1.00  0.00     0.217 C 
HETATM   25  O   UNL     1      46.337 -10.675   7.558  1.00  0.00    -0.274 OA
HETATM   26  H   UNL     1      43.542 -11.097   9.028  1.00  0.00     0.162 HD
BRANCH  24  27
HETATM   27  C   UNL     1      45.543  -9.457   9.455  1.00  0.00     0.107 C 
BRANCH  27  28
HETATM   28  C   UNL     1      44.839  -9.721  10.782  1.00  0.00     0.048 C 
BRANCH  28  29
HETATM   29  C   UNL     1      43.549  -8.973  11.026  1.00  0.00    -0.057 A 
HETATM   30  C   UNL     1      43.337  -8.229  12.192  1.00  0.00     0.018 A 
HETATM   31  C   UNL     1      42.177  -7.452  12.398  1.00  0.00    -0.016 A 
HETATM   32  C   UNL     1      41.249  -7.424  11.330  1.00  0.00     0.079 A 
HETATM   33  C   UNL     1      41.424  -8.139  10.119  1.00  0.00    -0.016 A 
HETATM   34  C   UNL     1      42.589  -8.918  10.010  1.00  0.00     0.018 A 
BRANCH  31  35
HETATM   35  C   UNL     1      42.066  -6.602  13.692  1.00  0.00    -0.021 C 
HETATM   36  C   UNL     1      42.218  -5.119  13.298  1.00  0.00     0.019 C 
HETATM   37  C   UNL     1      40.742  -6.755  14.477  1.00  0.00     0.019 C 
HETATM   38  C   UNL     1      43.180  -6.951  14.716  1.00  0.00     0.019 C 
ENDBRANCH  31  35
BRANCH  32  39
HETATM   39  O   UNL     1      40.136  -6.640  11.432  1.00  0.00    -0.360 OA
HETATM   40  H   UNL     1      40.131  -6.313  12.347  1.00  0.00     0.217 HD
ENDBRANCH  32  39
BRANCH  33  41
HETATM   41  C   UNL     1      40.424  -8.048   8.939  1.00  0.00    -0.021 C 
HETATM   42  C   UNL     1      40.817  -9.052   7.832  1.00  0.00     0.019 C 
HETATM   43  C   UNL     1      38.962  -8.389   9.333  1.00  0.00     0.019 C 
HETATM   44  C   UNL     1      40.379  -6.615   8.361  1.00  0.00     0.019 C 
ENDBRANCH  33  41
ENDBRANCH  28  29
ENDBRANCH  27  28
ENDBRANCH  24  27
ENDBRANCH   1  23
TORSDOF 10
ENDMDL
MODEL 4
REMARK VINA RESULT:      -8.8      2.352      4.200
REMARK  10 active torsions:
REMARK  status: ('A' for Active; 'I' for Inactive)
REMARK    1  A    between atoms: N_15  and  C_16 
REMARK    2  A    between atoms: C_16  and  C_17 
REMARK    3  A    between atoms: C_17  and  N_18 
REMARK       I    between atoms: N_18  and  C_19 
REMARK    4  A    between atoms: C_19  and  C_20 
REMARK    5  A    between atoms: C_20  and  C_21 
REMARK    6  A    between atoms: C_21  and  C_22 
REMARK    7  A    between atoms: C_24  and  C_25 
REMARK    8  A    between atoms: C_29  and  O_30 
REMARK    9  A    between atoms: C_31  and  C_32 
REMARK   10  A    between atoms: C_38  and  O_39 
ROOT
HETATM    1  C   UNL     1      39.211  -9.663   6.116  1.00  0.00     0.142 C 
ENDROOT
BRANCH   1   2
HETATM    2  C   UNL     1      39.505 -10.399   4.803  1.00  0.00     0.151 C 
BRANCH   2   3
HETATM    3  N   UNL     1      40.558 -11.417   4.910  1.00  0.00    -0.291 N 
HETATM    4  C   UNL     1      41.886 -11.042   4.926  1.00  0.00     0.366 C 
HETATM    5  O   UNL     1      42.672 -12.114   4.605  1.00  0.00    -0.287 OA
HETATM    6  O   UNL     1      42.330  -9.932   5.163  1.00  0.00    -0.238 OA
HETATM    7  C   UNL     1      41.858 -13.324   4.639  1.00  0.00     0.126 C 
HETATM    8  C   UNL     1      42.507 -14.282   3.629  1.00  0.00     0.082 C 
HETATM    9  C   UNL     1      40.463 -12.722   4.309  1.00  0.00     0.166 C 
HETATM   10  C   UNL     1      42.034 -13.873   6.078  1.00  0.00     0.082 C 
HETATM   11  C   UNL     1      42.144 -15.766   3.761  1.00  0.00     0.122 C 
HETATM   12  N   UNL     1      42.348 -16.196   5.192  1.00  0.00    -0.059 N 
HETATM   13  C   UNL     1      43.134 -16.603   2.923  1.00  0.00     0.046 C 
HETATM   14  C   UNL     1      40.736 -16.130   3.287  1.00  0.00     0.046 C 
HETATM   15  C   UNL     1      41.793 -15.371   6.329  1.00  0.00     0.122 C 
HETATM   16  H   UNL     1      43.367 -16.266   5.341  1.00  0.00     0.279 HD
HETATM   17  H   UNL     1      42.018 -17.168   5.300  1.00  0.00     0.279 HD
HETATM   18  C   UNL     1      42.604 -15.789   7.581  1.00  0.00     0.046 C 
HETATM   19  C   UNL     1      40.340 -15.771   6.605  1.00  0.00     0.046 C 
HETATM   20  C   UNL     1      40.143 -12.615   2.812  1.00  0.00     0.074 C 
BRANCH   9  21
HETATM   21  O   UNL     1      39.446 -13.444   4.966  1.00  0.00    -0.368 OA
HETATM   22  H   UNL     1      39.433 -14.342   4.592  1.00  0.00     0.212 HD
ENDBRANCH   9  21
ENDBRANCH   2   3
ENDBRANCH   1   2
BRANCH   1  23
HETATM   23  N   UNL     1      39.909  -8.401   6.251  1.00  0.00    -0.359 N 
HETATM   24  C   UNL     1      39.373  -7.364   6.974  1.00  0.00     0.217 C 
HETATM   25  O   UNL     1      38.256  -7.432   7.485  1.00  0.00    -0.274 OA
HETATM   26  H   UNL     1      40.840  -8.320   5.846  1.00  0.00     0.162 HD
BRANCH  24  27
HETATM   27  C   UNL     1      40.275  -6.175   7.245  1.00  0.00     0.107 C 
BRANCH  27  28
HETATM   28  C   UNL     1      40.775  -5.992   8.675  1.00  0.00     0.048 C 
BRANCH  28  29
HETATM   29  C   UNL     1      41.235  -7.237   9.397  1.00  0.00    -0.057 A 
HETATM   30  C   UNL     1      42.415  -7.901   9.044  1.00  0.00     0.018 A 
HETATM   31  C   UNL     1      42.907  -9.011   9.762  1.00  0.00    -0.016 A 
HETATM   32  C   UNL     1      42.162  -9.395  10.902  1.00  0.00     0.079 A 
HETATM   33  C   UNL     1      40.973  -8.744  11.318  1.00  0.00    -0.016 A 
HETATM   34  C   UNL     1      40.532  -7.670  10.526  1.00  0.00     0.018 A 
BRANCH  31  35
HETATM   35  C   UNL     1      44.263  -9.635   9.339  1.00  0.00    -0.021 C 
HETATM   36  C   UNL     1      45.019  -8.591   8.491  1.00  0.00     0.019 C 
HETATM   37  C   UNL     1      45.189 -10.068  10.500  1.00  0.00     0.019 C 
HETATM   38  C   UNL     1      44.074 -10.915   8.481  1.00  0.00     0.019 C 
ENDBRANCH  31  35
BRANCH  32  39
HETATM   39  O   UNL     1      42.614 -10.418  11.684  1.00  0.00    -0.360 OA
HETATM   40  H   UNL     1      42.851 -11.131  11.068  1.00  0.00     0.217 HD
ENDBRANCH  32  39
BRANCH  33  41
HETATM   41  C   UNL     1      40.204  -9.142  12.604  1.00  0.00    -0.021 C 
HETATM   42  C   UNL     1      39.600 -10.555  12.445  1.00  0.00     0.019 C 
HETATM   43  C   UNL     1      41.097  -9.195  13.873  1.00  0.00     0.019 C 
HETATM   44  C   UNL     1      39.087  -8.122  12.919  1.00  0.00     0.019 C 
ENDBRANCH  33  41
ENDBRANCH  28  29
ENDBRANCH  27  28
ENDBRANCH  24  27
ENDBRANCH   1  23
TORSDOF 10
ENDMDL
MODEL 5
REMARK VINA RESULT:      -8.7      1.464      2.381
REMARK  10 active torsions:
REMARK  status: ('A' for Active; 'I' for Inactive)
REMARK    1  A    between atoms: N_15  and  C_16 
REMARK    2  A    between atoms: C_16  and  C_17 
REMARK    3  A    between atoms: C_17  and  N_18 
REMARK       I    between atoms: N_18  and  C_19 
REMARK    4  A    between atoms: C_19  and  C_20 
REMARK    5  A    between atoms: C_20  and  C_21 
REMARK    6  A    between atoms: C_21  and  C_22 
REMARK    7  A    between atoms: C_24  and  C_25 
REMARK    8  A    between atoms: C_29  and  O_30 
REMARK    9  A    between atoms: C_31  and  C_32 
REMARK   10  A    between atoms: C_38  and  O_39 
ROOT
HETATM    1  C   UNL     1      43.779 -12.099   7.258  1.00  0.00     0.142 C 
ENDROOT
BRANCH   1   2
HETATM    2  C   UNL     1      42.849 -11.555   6.167  1.00  0.00     0.151 C 
BRANCH   2   3
HETATM    3  N   UNL     1      42.926 -12.285   4.895  1.00  0.00    -0.291 N 
HETATM    4  C   UNL     1      43.862 -11.925   3.946  1.00  0.00     0.366 C 
HETATM    5  O   UNL     1      43.494 -12.419   2.725  1.00  0.00    -0.287 OA
HETATM    6  O   UNL     1      44.864 -11.254   4.123  1.00  0.00    -0.238 OA
HETATM    7  C   UNL     1      42.409 -13.376   2.910  1.00  0.00     0.126 C 
HETATM    8  C   UNL     1      41.590 -13.323   1.611  1.00  0.00     0.082 C 
HETATM    9  C   UNL     1      41.775 -12.819   4.216  1.00  0.00     0.166 C 
HETATM   10  C   UNL     1      43.117 -14.749   3.034  1.00  0.00     0.082 C 
HETATM   11  C   UNL     1      40.661 -14.512   1.337  1.00  0.00     0.122 C 
HETATM   12  N   UNL     1      41.445 -15.792   1.485  1.00  0.00    -0.059 N 
HETATM   13  C   UNL     1      40.204 -14.465  -0.137  1.00  0.00     0.046 C 
HETATM   14  C   UNL     1      39.398 -14.554   2.197  1.00  0.00     0.046 C 
HETATM   15  C   UNL     1      42.321 -16.021   2.695  1.00  0.00     0.122 C 
HETATM   16  H   UNL     1      42.053 -15.868   0.655  1.00  0.00     0.279 HD
HETATM   17  H   UNL     1      40.800 -16.592   1.391  1.00  0.00     0.279 HD
HETATM   18  C   UNL     1      43.326 -17.123   2.277  1.00  0.00     0.046 C 
HETATM   19  C   UNL     1      41.490 -16.609   3.839  1.00  0.00     0.046 C 
HETATM   20  C   UNL     1      40.708 -11.736   4.006  1.00  0.00     0.074 C 
BRANCH   9  21
HETATM   21  O   UNL     1      41.244 -13.869   4.993  1.00  0.00    -0.368 OA
HETATM   22  H   UNL     1      41.199 -13.561   5.915  1.00  0.00     0.212 HD
ENDBRANCH   9  21
ENDBRANCH   2   3
ENDBRANCH   1   2
BRANCH   1  23
HETATM   23  N   UNL     1      44.181 -11.106   8.234  1.00  0.00    -0.359 N 
HETATM   24  C   UNL     1      45.378 -10.441   8.121  1.00  0.00     0.217 C 
HETATM   25  O   UNL     1      46.188 -10.697   7.231  1.00  0.00    -0.274 OA
HETATM   26  H   UNL     1      43.526 -10.868   8.976  1.00  0.00     0.162 HD
BRANCH  24  27
HETATM   27  C   UNL     1      45.603  -9.269   9.057  1.00  0.00     0.107 C 
BRANCH  27  28
HETATM   28  C   UNL     1      44.777  -8.011   8.808  1.00  0.00     0.048 C 
BRANCH  28  29
HETATM   29  C   UNL     1      43.621  -7.762   9.749  1.00  0.00    -0.057 A 
HETATM   30  C   UNL     1      43.280  -8.673  10.756  1.00  0.00     0.018 A 
HETATM   31  C   UNL     1      42.262  -8.417  11.699  1.00  0.00    -0.016 A 
HETATM   32  C   UNL     1      41.629  -7.156  11.605  1.00  0.00     0.079 A 
HETATM   33  C   UNL     1      41.950  -6.188  10.620  1.00  0.00    -0.016 A 
HETATM   34  C   UNL     1      42.950  -6.536   9.696  1.00  0.00     0.018 A 
BRANCH  31  35
HETATM   35  C   UNL     1      42.007  -9.456  12.823  1.00  0.00    -0.021 C 
HETATM   36  C   UNL     1      42.991 -10.626  12.619  1.00  0.00     0.019 C 
HETATM   37  C   UNL     1      42.182  -8.931  14.268  1.00  0.00     0.019 C 
HETATM   38  C   UNL     1      40.561 -10.022  12.776  1.00  0.00     0.019 C 
ENDBRANCH  31  35
BRANCH  32  39
HETATM   39  O   UNL     1      40.681  -6.813  12.526  1.00  0.00    -0.360 OA
HETATM   40  H   UNL     1      41.024  -7.123  13.380  1.00  0.00     0.217 HD
ENDBRANCH  32  39
BRANCH  33  41
HETATM   41  C   UNL     1      41.285  -4.789  10.571  1.00  0.00    -0.021 C 
HETATM   42  C   UNL     1      39.750  -4.934  10.480  1.00  0.00     0.019 C 
HETATM   43  C   UNL     1      41.563  -3.922  11.829  1.00  0.00     0.019 C 
HETATM   44  C   UNL     1      41.811  -3.968   9.372  1.00  0.00     0.019 C 
ENDBRANCH  33  41
ENDBRANCH  28  29
ENDBRANCH  27  28
ENDBRANCH  24  27
ENDBRANCH   1  23
TORSDOF 10
ENDMDL
MODEL 6
REMARK VINA RESULT:      -8.7      1.976      4.436
REMARK  10 active torsions:
REMARK  status: ('A' for Active; 'I' for Inactive)
REMARK    1  A    between atoms: N_15  and  C_16 
REMARK    2  A    between atoms: C_16  and  C_17 
REMARK    3  A    between atoms: C_17  and  N_18 
REMARK       I    between atoms: N_18  and  C_19 
REMARK    4  A    between atoms: C_19  and  C_20 
REMARK    5  A    between atoms: C_20  and  C_21 
REMARK    6  A    between atoms: C_21  and  C_22 
REMARK    7  A    between atoms: C_24  and  C_25 
REMARK    8  A    between atoms: C_29  and  O_30 
REMARK    9  A    between atoms: C_31  and  C_32 
REMARK   10  A    between atoms: C_38  and  O_39 
ROOT
HETATM    1  C   UNL     1      39.043 -10.968   4.003  1.00  0.00     0.142 C 
ENDROOT
BRANCH   1   2
HETATM    2  C   UNL     1      40.458 -10.841   3.426  1.00  0.00     0.151 C 
BRANCH   2   3
HETATM    3  N   UNL     1      41.349 -11.957   3.771  1.00  0.00    -0.291 N 
HETATM    4  C   UNL     1      42.695 -11.731   3.972  1.00  0.00     0.366 C 
HETATM    5  O   UNL     1      43.383 -12.908   3.858  1.00  0.00    -0.287 OA
HETATM    6  O   UNL     1      43.233 -10.660   4.199  1.00  0.00    -0.238 OA
HETATM    7  C   UNL     1      42.430 -14.012   3.847  1.00  0.00     0.126 C 
HETATM    8  C   UNL     1      43.099 -15.123   3.023  1.00  0.00     0.082 C 
HETATM    9  C   UNL     1      41.185 -13.291   3.256  1.00  0.00     0.166 C 
HETATM   10  C   UNL     1      42.318 -14.447   5.331  1.00  0.00     0.082 C 
HETATM   11  C   UNL     1      42.540 -16.539   3.200  1.00  0.00     0.122 C 
HETATM   12  N   UNL     1      42.472 -16.861   4.673  1.00  0.00    -0.059 N 
HETATM   13  C   UNL     1      43.534 -17.552   2.593  1.00  0.00     0.046 C 
HETATM   14  C   UNL     1      41.186 -16.786   2.534  1.00  0.00     0.046 C 
HETATM   15  C   UNL     1      41.858 -15.881   5.645  1.00  0.00     0.122 C 
HETATM   16  H   UNL     1      43.441 -17.029   4.987  1.00  0.00     0.279 HD
HETATM   17  H   UNL     1      42.012 -17.776   4.795  1.00  0.00     0.279 HD
HETATM   18  C   UNL     1      42.414 -16.273   7.037  1.00  0.00     0.046 C 
HETATM   19  C   UNL     1      40.343 -16.091   5.713  1.00  0.00     0.046 C 
HETATM   20  C   UNL     1      41.109 -13.283   1.724  1.00  0.00     0.074 C 
BRANCH   9  21
HETATM   21  O   UNL     1      40.000 -13.834   3.792  1.00  0.00    -0.368 OA
HETATM   22  H   UNL     1      39.255 -13.493   3.268  1.00  0.00     0.212 HD
ENDBRANCH   9  21
ENDBRANCH   2   3
ENDBRANCH   1   2
BRANCH   1  23
HETATM   23  N   UNL     1      38.908 -10.440   5.345  1.00  0.00    -0.359 N 
HETATM   24  C   UNL     1      38.999 -11.259   6.445  1.00  0.00     0.217 C 
HETATM   25  O   UNL     1      39.136 -12.477   6.343  1.00  0.00    -0.274 OA
HETATM   26  H   UNL     1      38.804  -9.434   5.459  1.00  0.00     0.162 HD
BRANCH  24  27
HETATM   27  C   UNL     1      39.072 -10.583   7.801  1.00  0.00     0.107 C 
BRANCH  27  28
HETATM   28  C   UNL     1      39.699  -9.194   7.854  1.00  0.00     0.048 C 
BRANCH  28  29
HETATM   29  C   UNL     1      40.795  -8.984   8.872  1.00  0.00    -0.057 A 
HETATM   30  C   UNL     1      40.518  -8.576  10.182  1.00  0.00     0.018 A 
HETATM   31  C   UNL     1      41.518  -8.461  11.171  1.00  0.00    -0.016 A 
HETATM   32  C   UNL     1      42.827  -8.830  10.778  1.00  0.00     0.079 A 
HETATM   33  C   UNL     1      43.160  -9.270   9.472  1.00  0.00    -0.016 A 
HETATM   34  C   UNL     1      42.111  -9.321   8.537  1.00  0.00     0.018 A 
BRANCH  31  35
HETATM   35  C   UNL     1      41.102  -8.074  12.615  1.00  0.00    -0.021 C 
HETATM   36  C   UNL     1      41.682  -6.676  12.914  1.00  0.00     0.019 C 
HETATM   37  C   UNL     1      39.578  -8.026  12.878  1.00  0.00     0.019 C 
HETATM   38  C   UNL     1      41.658  -9.069  13.669  1.00  0.00     0.019 C 
ENDBRANCH  31  35
BRANCH  32  39
HETATM   39  O   UNL     1      43.833  -8.808  11.700  1.00  0.00    -0.360 OA
HETATM   40  H   UNL     1      43.949  -7.872  11.936  1.00  0.00     0.217 HD
ENDBRANCH  32  39
BRANCH  33  41
HETATM   41  C   UNL     1      44.588  -9.726   9.080  1.00  0.00    -0.021 C 
HETATM   42  C   UNL     1      45.402  -8.524   8.551  1.00  0.00     0.019 C 
HETATM   43  C   UNL     1      45.403 -10.312  10.264  1.00  0.00     0.019 C 
HETATM   44  C   UNL     1      44.538 -10.841   8.011  1.00  0.00     0.019 C 
ENDBRANCH  33  41
ENDBRANCH  28  29
ENDBRANCH  27  28
ENDBRANCH  24  27
ENDBRANCH   1  23
TORSDOF 10
ENDMDL
MODEL 7
REMARK VINA RESULT:      -8.7      2.189      4.212
REMARK  10 active torsions:
REMARK  status: ('A' for Active; 'I' for Inactive)
REMARK    1  A    between atoms: N_15  and  C_16 
REMARK    2  A    between atoms: C_16  and  C_17 
REMARK    3  A    between atoms: C_17  and  N_18 
REMARK       I    between atoms: N_18  and  C_19 
REMARK    4  A    between atoms: C_19  and  C_20 
REMARK    5  A    between atoms: C_20  and  C_21 
REMARK    6  A    between atoms: C_21  and  C_22 
REMARK    7  A    between atoms: C_24  and  C_25 
REMARK    8  A    between atoms: C_29  and  O_30 
REMARK    9  A    between atoms: C_31  and  C_32 
REMARK   10  A    between atoms: C_38  and  O_39 
ROOT
HETATM    1  C   UNL     1      39.830 -10.267   6.631  1.00  0.00     0.142 C 
ENDROOT
BRANCH   1   2
HETATM    2  C   UNL     1      39.750 -10.926   5.249  1.00  0.00     0.151 C 
BRANCH   2   3
HETATM    3  N   UNL     1      40.892 -11.793   4.931  1.00  0.00    -0.291 N 
HETATM    4  C   UNL     1      42.093 -11.239   4.537  1.00  0.00     0.366 C 
HETATM    5  O   UNL     1      42.850 -12.183   3.900  1.00  0.00    -0.287 OA
HETATM    6  O   UNL     1      42.454 -10.086   4.694  1.00  0.00    -0.238 OA
HETATM    7  C   UNL     1      42.246 -13.494   4.111  1.00  0.00     0.126 C 
HETATM    8  C   UNL     1      42.629 -14.326   2.878  1.00  0.00     0.082 C 
HETATM    9  C   UNL     1      40.759 -13.081   4.302  1.00  0.00     0.166 C 
HETATM   10  C   UNL     1      42.958 -14.054   5.369  1.00  0.00     0.082 C 
HETATM   11  C   UNL     1      42.512 -15.849   3.014  1.00  0.00     0.122 C 
HETATM   12  N   UNL     1      43.234 -16.287   4.265  1.00  0.00    -0.059 N 
HETATM   13  C   UNL     1      43.258 -16.518   1.840  1.00  0.00     0.046 C 
HETATM   14  C   UNL     1      41.082 -16.389   3.004  1.00  0.00     0.046 C 
HETATM   15  C   UNL     1      42.996 -15.577   5.577  1.00  0.00     0.122 C 
HETATM   16  H   UNL     1      44.244 -16.220   4.065  1.00  0.00     0.279 HD
HETATM   17  H   UNL     1      43.078 -17.297   4.405  1.00  0.00     0.279 HD
HETATM   18  C   UNL     1      44.224 -15.914   6.460  1.00  0.00     0.046 C 
HETATM   19  C   UNL     1      41.779 -16.181   6.285  1.00  0.00     0.046 C 
HETATM   20  C   UNL     1      39.946 -12.978   3.004  1.00  0.00     0.074 C 
BRANCH   9  21
HETATM   21  O   UNL     1      40.115 -13.954   5.202  1.00  0.00    -0.368 OA
HETATM   22  H   UNL     1      40.048 -14.824   4.773  1.00  0.00     0.212 HD
ENDBRANCH   9  21
ENDBRANCH   2   3
ENDBRANCH   1   2
BRANCH   1  23
HETATM   23  N   UNL     1      40.363  -8.920   6.608  1.00  0.00    -0.359 N 
HETATM   24  C   UNL     1      39.715  -7.887   7.241  1.00  0.00     0.217 C 
HETATM   25  O   UNL     1      38.629  -8.040   7.799  1.00  0.00    -0.274 OA
HETATM   26  H   UNL     1      41.265  -8.766   6.162  1.00  0.00     0.162 HD
BRANCH  24  27
HETATM   27  C   UNL     1      40.462  -6.572   7.354  1.00  0.00     0.107 C 
BRANCH  27  28
HETATM   28  C   UNL     1      40.826  -6.096   8.756  1.00  0.00     0.048 C 
BRANCH  28  29
HETATM   29  C   UNL     1      41.484  -7.107   9.666  1.00  0.00    -0.057 A 
HETATM   30  C   UNL     1      40.897  -7.506  10.873  1.00  0.00     0.018 A 
HETATM   31  C   UNL     1      41.451  -8.513  11.691  1.00  0.00    -0.016 A 
HETATM   32  C   UNL     1      42.620  -9.141  11.200  1.00  0.00     0.079 A 
HETATM   33  C   UNL     1      43.243  -8.793   9.975  1.00  0.00    -0.016 A 
HETATM   34  C   UNL     1      42.648  -7.754   9.238  1.00  0.00     0.018 A 
BRANCH  31  35
HETATM   35  C   UNL     1      40.688  -8.938  12.974  1.00  0.00    -0.021 C 
HETATM   36  C   UNL     1      39.514  -7.957  13.172  1.00  0.00     0.019 C 
HETATM   37  C   UNL     1      40.114 -10.374  12.962  1.00  0.00     0.019 C 
HETATM   38  C   UNL     1      41.591  -8.879  14.236  1.00  0.00     0.019 C 
ENDBRANCH  31  35
BRANCH  32  39
HETATM   39  O   UNL     1      43.173 -10.170  11.906  1.00  0.00    -0.360 OA
HETATM   40  H   UNL     1      42.984 -10.971  11.390  1.00  0.00     0.217 HD
ENDBRANCH  32  39
BRANCH  33  41
HETATM   41  C   UNL     1      44.488  -9.534   9.427  1.00  0.00    -0.021 C 
HETATM   42  C   UNL     1      45.395  -9.983  10.594  1.00  0.00     0.019 C 
HETATM   43  C   UNL     1      44.146 -10.820   8.627  1.00  0.00     0.019 C 
HETATM   44  C   UNL     1      45.284  -8.635   8.455  1.00  0.00     0.019 C 
ENDBRANCH  33  41
ENDBRANCH  28  29
ENDBRANCH  27  28
ENDBRANCH  24  27
ENDBRANCH   1  23
TORSDOF 10
ENDMDL
MODEL 8
REMARK VINA RESULT:      -8.7      2.307     10.288
REMARK  10 active torsions:
REMARK  status: ('A' for Active; 'I' for Inactive)
REMARK    1  A    between atoms: N_15  and  C_16 
REMARK    2  A    between atoms: C_16  and  C_17 
REMARK    3  A    between atoms: C_17  and  N_18 
REMARK       I    between atoms: N_18  and  C_19 
REMARK    4  A    between atoms: C_19  and  C_20 
REMARK    5  A    between atoms: C_20  and  C_21 
REMARK    6  A    between atoms: C_21  and  C_22 
REMARK    7  A    between atoms: C_24  and  C_25 
REMARK    8  A    between atoms: C_29  and  O_30 
REMARK    9  A    between atoms: C_31  and  C_32 
REMARK   10  A    between atoms: C_38  and  O_39 
ROOT
HETATM    1  C   UNL     1      43.788 -10.947   6.978  1.00  0.00     0.142 C 
ENDROOT
BRANCH   1   2
HETATM    2  C   UNL     1      44.267 -10.512   8.368  1.00  0.00     0.151 C 
BRANCH   2   3
HETATM    3  N   UNL     1      43.617  -9.296   8.873  1.00  0.00    -0.291 N 
HETATM    4  C   UNL     1      44.311  -8.104   8.909  1.00  0.00     0.366 C 
HETATM    5  O   UNL     1      43.700  -7.240   9.776  1.00  0.00    -0.287 OA
HETATM    6  O   UNL     1      45.328  -7.829   8.296  1.00  0.00    -0.238 OA
HETATM    7  C   UNL     1      42.390  -7.776  10.132  1.00  0.00     0.126 C 
HETATM    8  C   UNL     1      42.099  -7.243  11.542  1.00  0.00     0.082 C 
HETATM    9  C   UNL     1      42.660  -9.297   9.948  1.00  0.00     0.166 C 
HETATM   10  C   UNL     1      41.415  -7.135   9.111  1.00  0.00     0.082 C 
HETATM   11  C   UNL     1      40.635  -7.275  11.999  1.00  0.00     0.122 C 
HETATM   12  N   UNL     1      39.776  -6.631  10.939  1.00  0.00    -0.059 N 
HETATM   13  C   UNL     1      40.481  -6.395  13.258  1.00  0.00     0.046 C 
HETATM   14  C   UNL     1      40.100  -8.662  12.352  1.00  0.00     0.046 C 
HETATM   15  C   UNL     1      39.929  -7.018   9.486  1.00  0.00     0.122 C 
HETATM   16  H   UNL     1      39.941  -5.613  10.997  1.00  0.00     0.279 HD
HETATM   17  H   UNL     1      38.784  -6.733  11.203  1.00  0.00     0.279 HD
HETATM   18  C   UNL     1      39.316  -5.848   8.677  1.00  0.00     0.046 C 
HETATM   19  C   UNL     1      39.069  -8.248   9.181  1.00  0.00     0.046 C 
HETATM   20  C   UNL     1      43.225 -10.006  11.186  1.00  0.00     0.074 C 
BRANCH   9  21
HETATM   21  O   UNL     1      41.494  -9.955   9.509  1.00  0.00    -0.368 OA
HETATM   22  H   UNL     1      41.499 -10.851   9.888  1.00  0.00     0.212 HD
ENDBRANCH   9  21
ENDBRANCH   2   3
ENDBRANCH   1   2
BRANCH   1  23
HETATM   23  N   UNL     1      42.486 -11.583   6.978  1.00  0.00    -0.359 N 
HETATM   24  C   UNL     1      41.551 -11.292   6.016  1.00  0.00     0.217 C 
HETATM   25  O   UNL     1      41.746 -10.438   5.151  1.00  0.00    -0.274 OA
HETATM   26  H   UNL     1      42.302 -12.301   7.676  1.00  0.00     0.162 HD
BRANCH  24  27
HETATM   27  C   UNL     1      40.315 -12.170   5.969  1.00  0.00     0.107 C 
BRANCH  27  28
HETATM   28  C   UNL     1      39.413 -12.038   4.746  1.00  0.00     0.048 C 
BRANCH  28  29
HETATM   29  C   UNL     1      39.825 -12.808   3.513  1.00  0.00    -0.057 A 
HETATM   30  C   UNL     1      39.389 -12.442   2.234  1.00  0.00     0.018 A 
HETATM   31  C   UNL     1      39.834 -13.094   1.064  1.00  0.00    -0.016 A 
HETATM   32  C   UNL     1      40.792 -14.118   1.248  1.00  0.00     0.079 A 
HETATM   33  C   UNL     1      41.284 -14.514   2.517  1.00  0.00    -0.016 A 
HETATM   34  C   UNL     1      40.762 -13.839   3.635  1.00  0.00     0.018 A 
BRANCH  31  35
HETATM   35  C   UNL     1      39.351 -12.568  -0.314  1.00  0.00    -0.021 C 
HETATM   36  C   UNL     1      40.494 -11.731  -0.926  1.00  0.00     0.019 C 
HETATM   37  C   UNL     1      38.952 -13.655  -1.339  1.00  0.00     0.019 C 
HETATM   38  C   UNL     1      38.098 -11.661  -0.185  1.00  0.00     0.019 C 
ENDBRANCH  31  35
BRANCH  32  39
HETATM   39  O   UNL     1      41.317 -14.747   0.156  1.00  0.00    -0.360 OA
HETATM   40  H   UNL     1      41.743 -14.048  -0.367  1.00  0.00     0.217 HD
ENDBRANCH  32  39
BRANCH  33  41
HETATM   41  C   UNL     1      42.378 -15.598   2.692  1.00  0.00    -0.021 C 
HETATM   42  C   UNL     1      41.779 -17.001   2.445  1.00  0.00     0.019 C 
HETATM   43  C   UNL     1      43.563 -15.454   1.699  1.00  0.00     0.019 C 
HETATM   44  C   UNL     1      43.002 -15.532   4.104  1.00  0.00     0.019 C 
ENDBRANCH  33  41
ENDBRANCH  28  29
ENDBRANCH  27  28
ENDBRANCH  24  27
ENDBRANCH   1  23
TORSDOF 10
ENDMDL
MODEL 9
REMARK VINA RESULT:      -8.6      1.458      2.337
REMARK  10 active torsions:
REMARK  status: ('A' for Active; 'I' for Inactive)
REMARK    1  A    between atoms: N_15  and  C_16 
REMARK    2  A    between atoms: C_16  and  C_17 
REMARK    3  A    between atoms: C_17  and  N_18 
REMARK       I    between atoms: N_18  and  C_19 
REMARK    4  A    between atoms: C_19  and  C_20 
REMARK    5  A    between atoms: C_20  and  C_21 
REMARK    6  A    between atoms: C_21  and  C_22 
REMARK    7  A    between atoms: C_24  and  C_25 
REMARK    8  A    between atoms: C_29  and  O_30 
REMARK    9  A    between atoms: C_31  and  C_32 
REMARK   10  A    between atoms: C_38  and  O_39 
ROOT
HETATM    1  C   UNL     1      43.742 -12.020   7.203  1.00  0.00     0.142 C 
ENDROOT
BRANCH   1   2
HETATM    2  C   UNL     1      42.729 -11.592   6.134  1.00  0.00     0.151 C 
BRANCH   2   3
HETATM    3  N   UNL     1      42.832 -12.343   4.876  1.00  0.00    -0.291 N 
HETATM    4  C   UNL     1      43.770 -11.982   3.930  1.00  0.00     0.366 C 
HETATM    5  O   UNL     1      43.423 -12.504   2.714  1.00  0.00    -0.287 OA
HETATM    6  O   UNL     1      44.758 -11.290   4.104  1.00  0.00    -0.238 OA
HETATM    7  C   UNL     1      42.354 -13.478   2.906  1.00  0.00     0.126 C 
HETATM    8  C   UNL     1      41.547 -13.464   1.599  1.00  0.00     0.082 C 
HETATM    9  C   UNL     1      41.697 -12.911   4.196  1.00  0.00     0.166 C 
HETATM   10  C   UNL     1      43.086 -14.836   3.061  1.00  0.00     0.082 C 
HETATM   11  C   UNL     1      40.642 -14.675   1.339  1.00  0.00     0.122 C 
HETATM   12  N   UNL     1      41.448 -15.938   1.516  1.00  0.00    -0.059 N 
HETATM   13  C   UNL     1      40.198 -14.662  -0.140  1.00  0.00     0.046 C 
HETATM   14  C   UNL     1      39.372 -14.725   2.187  1.00  0.00     0.046 C 
HETATM   15  C   UNL     1      42.318 -16.128   2.738  1.00  0.00     0.122 C 
HETATM   16  H   UNL     1      42.065 -16.017   0.693  1.00  0.00     0.279 HD
HETATM   17  H   UNL     1      40.820 -16.751   1.431  1.00  0.00     0.279 HD
HETATM   18  C   UNL     1      43.347 -17.219   2.349  1.00  0.00     0.046 C 
HETATM   19  C   UNL     1      41.487 -16.711   3.885  1.00  0.00     0.046 C 
HETATM   20  C   UNL     1      40.613 -11.851   3.957  1.00  0.00     0.074 C 
BRANCH   9  21
HETATM   21  O   UNL     1      41.180 -13.956   4.987  1.00  0.00    -0.368 OA
HETATM   22  H   UNL     1      41.120 -13.633   5.903  1.00  0.00     0.212 HD
ENDBRANCH   9  21
ENDBRANCH   2   3
ENDBRANCH   1   2
BRANCH   1  23
HETATM   23  N   UNL     1      44.095 -10.967   8.133  1.00  0.00    -0.359 N 
HETATM   24  C   UNL     1      45.279 -10.281   8.017  1.00  0.00     0.217 C 
HETATM   25  O   UNL     1      46.120 -10.568   7.166  1.00  0.00    -0.274 OA
HETATM   26  H   UNL     1      43.413 -10.702   8.841  1.00  0.00     0.162 HD
BRANCH  24  27
HETATM   27  C   UNL     1      45.452  -9.054   8.891  1.00  0.00     0.107 C 
BRANCH  27  28
HETATM   28  C   UNL     1      44.454  -7.917   8.701  1.00  0.00     0.048 C 
BRANCH  28  29
HETATM   29  C   UNL     1      43.622  -7.537   9.903  1.00  0.00    -0.057 A 
HETATM   30  C   UNL     1      43.069  -6.259  10.044  1.00  0.00     0.018 A 
HETATM   31  C   UNL     1      42.218  -5.913  11.115  1.00  0.00    -0.016 A 
HETATM   32  C   UNL     1      41.907  -6.951  12.024  1.00  0.00     0.079 A 
HETATM   33  C   UNL     1      42.420  -8.268  11.917  1.00  0.00    -0.016 A 
HETATM   34  C   UNL     1      43.291  -8.520  10.842  1.00  0.00     0.018 A 
BRANCH  31  35
HETATM   35  C   UNL     1      41.594  -4.492  11.145  1.00  0.00    -0.021 C 
HETATM   36  C   UNL     1      40.147  -4.600  10.623  1.00  0.00     0.019 C 
HETATM   37  C   UNL     1      41.552  -3.813  12.534  1.00  0.00     0.019 C 
HETATM   38  C   UNL     1      42.368  -3.497  10.238  1.00  0.00     0.019 C 
ENDBRANCH  31  35
BRANCH  32  39
HETATM   39  O   UNL     1      41.036  -6.707  13.046  1.00  0.00    -0.360 OA
HETATM   40  H   UNL     1      40.199  -6.458  12.621  1.00  0.00     0.217 HD
ENDBRANCH  32  39
BRANCH  33  41
HETATM   41  C   UNL     1      42.021  -9.406  12.889  1.00  0.00    -0.021 C 
HETATM   42  C   UNL     1      42.121  -8.915  14.351  1.00  0.00     0.019 C 
HETATM   43  C   UNL     1      40.562  -9.904  12.701  1.00  0.00     0.019 C 
HETATM   44  C   UNL     1      42.917 -10.648  12.687  1.00  0.00     0.019 C 
ENDBRANCH  33  41
ENDBRANCH  28  29
ENDBRANCH  27  28
ENDBRANCH  24  27
ENDBRANCH   1  23
TORSDOF 10
ENDMDL
MODEL 10
REMARK VINA RESULT:      -8.5      2.133      4.141
REMARK  10 active torsions:
REMARK  status: ('A' for Active; 'I' for Inactive)
REMARK    1  A    between atoms: N_15  and  C_16 
REMARK    2  A    between atoms: C_16  and  C_17 
REMARK    3  A    between atoms: C_17  and  N_18 
REMARK       I    between atoms: N_18  and  C_19 
REMARK    4  A    between atoms: C_19  and  C_20 
REMARK    5  A    between atoms: C_20  and  C_21 
REMARK    6  A    between atoms: C_21  and  C_22 
REMARK    7  A    between atoms: C_24  and  C_25 
REMARK    8  A    between atoms: C_29  and  O_30 
REMARK    9  A    between atoms: C_31  and  C_32 
REMARK   10  A    between atoms: C_38  and  O_39 
ROOT
HETATM    1  C   UNL     1      38.932 -10.046   3.270  1.00  0.00     0.142 C 
ENDROOT
BRANCH   1   2
HETATM    2  C   UNL     1      39.379 -11.096   2.246  1.00  0.00     0.151 C 
BRANCH   2   3
HETATM    3  N   UNL     1      40.575 -11.851   2.644  1.00  0.00    -0.291 N 
HETATM    4  C   UNL     1      41.808 -11.520   2.121  1.00  0.00     0.366 C 
HETATM    5  O   UNL     1      42.671 -12.570   2.276  1.00  0.00    -0.287 OA
HETATM    6  O   UNL     1      42.117 -10.473   1.578  1.00  0.00    -0.238 OA
HETATM    7  C   UNL     1      42.072 -13.545   3.180  1.00  0.00     0.126 C 
HETATM    8  C   UNL     1      42.652 -14.904   2.759  1.00  0.00     0.082 C 
HETATM    9  C   UNL     1      40.564 -13.263   2.923  1.00  0.00     0.166 C 
HETATM   10  C   UNL     1      42.603 -13.155   4.583  1.00  0.00     0.082 C 
HETATM   11  C   UNL     1      42.549 -16.040   3.784  1.00  0.00     0.122 C 
HETATM   12  N   UNL     1      43.089 -15.557   5.108  1.00  0.00    -0.059 N 
HETATM   13  C   UNL     1      43.475 -17.196   3.348  1.00  0.00     0.046 C 
HETATM   14  C   UNL     1      41.149 -16.628   3.957  1.00  0.00     0.046 C 
HETATM   15  C   UNL     1      42.644 -14.231   5.680  1.00  0.00     0.122 C 
HETATM   16  H   UNL     1      44.116 -15.515   5.015  1.00  0.00     0.279 HD
HETATM   17  H   UNL     1      42.937 -16.289   5.818  1.00  0.00     0.279 HD
HETATM   18  C   UNL     1      43.735 -13.835   6.706  1.00  0.00     0.046 C 
HETATM   19  C   UNL     1      41.350 -14.415   6.478  1.00  0.00     0.046 C 
HETATM   20  C   UNL     1      39.950 -14.049   1.757  1.00  0.00     0.074 C 
BRANCH   9  21
HETATM   21  O   UNL     1      39.815 -13.482   4.096  1.00  0.00    -0.368 OA
HETATM   22  H   UNL     1      40.034 -12.772   4.724  1.00  0.00     0.212 HD
ENDBRANCH   9  21
ENDBRANCH   2   3
ENDBRANCH   1   2
BRANCH   1  23
HETATM   23  N   UNL     1      38.886 -10.537   4.632  1.00  0.00    -0.359 N 
HETATM   24  C   UNL     1      39.815 -10.142   5.564  1.00  0.00     0.217 C 
HETATM   25  O   UNL     1      40.760  -9.408   5.275  1.00  0.00    -0.274 OA
HETATM   26  H   UNL     1      38.109 -11.138   4.902  1.00  0.00     0.162 HD
BRANCH  24  27
HETATM   27  C   UNL     1      39.550 -10.528   7.006  1.00  0.00     0.107 C 
BRANCH  27  28
HETATM   28  C   UNL     1      39.428  -9.394   8.020  1.00  0.00     0.048 C 
BRANCH  28  29
HETATM   29  C   UNL     1      40.519  -9.294   9.060  1.00  0.00    -0.057 A 
HETATM   30  C   UNL     1      41.868  -9.474   8.735  1.00  0.00     0.018 A 
HETATM   31  C   UNL     1      42.906  -9.297   9.674  1.00  0.00    -0.016 A 
HETATM   32  C   UNL     1      42.512  -8.875  10.965  1.00  0.00     0.079 A 
HETATM   33  C   UNL     1      41.164  -8.656  11.342  1.00  0.00    -0.016 A 
HETATM   34  C   UNL     1      40.188  -8.891  10.358  1.00  0.00     0.018 A 
BRANCH  31  35
HETATM   35  C   UNL     1      44.377  -9.447   9.199  1.00  0.00    -0.021 C 
HETATM   36  C   UNL     1      44.874  -8.056   8.755  1.00  0.00     0.019 C 
HETATM   37  C   UNL     1      45.365  -9.992  10.257  1.00  0.00     0.019 C 
HETATM   38  C   UNL     1      44.504 -10.418   7.995  1.00  0.00     0.019 C 
ENDBRANCH  31  35
BRANCH  32  39
HETATM   39  O   UNL     1      43.469  -8.619  11.906  1.00  0.00    -0.360 OA
HETATM   40  H   UNL     1      44.314  -8.628  11.426  1.00  0.00     0.217 HD
ENDBRANCH  32  39
BRANCH  33  41
HETATM   41  C   UNL     1      40.759  -8.137  12.745  1.00  0.00    -0.021 C 
HETATM   42  C   UNL     1      39.220  -8.062  12.859  1.00  0.00     0.019 C 
HETATM   43  C   UNL     1      41.234  -9.049  13.909  1.00  0.00     0.019 C 
HETATM   44  C   UNL     1      41.377  -6.748  13.021  1.00  0.00     0.019 C 
ENDBRANCH  33  41
ENDBRANCH  28  29
ENDBRANCH  27  28
ENDBRANCH  24  27
ENDBRANCH   1  23
TORSDOF 10
ENDMDL
