MODEL 1
REMARK VINA RESULT:      -8.9      0.000      0.000
REMARK  4 active torsions:
REMARK  status: ('A' for Active; 'I' for Inactive)
REMARK    1  A    between atoms: O_2  and  C_3 
REMARK    2  A    between atoms: C_5  and  C_6 
REMARK    3  A    between atoms: C_10  and  C_11 
REMARK       I    between atoms: C_11  and  N_12 
REMARK    4  A    between atoms: N_12  and  N_13 
ROOT
HETATM    1  C   UNL     1      44.349 -11.401   6.844  1.00  0.00     0.289 C 
HETATM    2  N   UNL     1      43.333 -12.276   6.501  1.00  0.00    -0.241 N 
HETATM    3  O   UNL     1      45.256 -11.066   6.085  1.00  0.00    -0.264 OA
HETATM    4  H   UNL     1      42.617 -12.533   7.180  1.00  0.00     0.192 HD
ENDROOT
BRANCH   1   5
HETATM    5  C   UNL     1      44.281 -10.893   8.191  1.00  0.00     0.121 A 
HETATM    6  N   UNL     1      45.399 -10.812   8.971  1.00  0.00    -0.272 N 
HETATM    7  N   UNL     1      45.180 -10.328  10.201  1.00  0.00    -0.174 NA
HETATM    8  H   UNL     1      46.342 -11.080   8.706  1.00  0.00     0.189 HD
HETATM    9  C   UNL     1      43.865 -10.059  10.234  1.00  0.00     0.089 A 
HETATM   10  C   UNL     1      43.263 -10.409   8.989  1.00  0.00     0.071 A 
BRANCH   9  11
HETATM   11  C   UNL     1      43.228  -9.492  11.430  1.00  0.00    -0.003 A 
HETATM   12  C   UNL     1      42.047 -10.063  11.938  1.00  0.00     0.050 A 
HETATM   13  C   UNL     1      41.427  -9.540  13.076  1.00  0.00     0.069 A 
HETATM   14  C   UNL     1      41.992  -8.434  13.713  1.00  0.00     0.037 A 
HETATM   15  C   UNL     1      43.163  -7.858  13.226  1.00  0.00     0.004 A 
HETATM   16  C   UNL     1      43.780  -8.385  12.089  1.00  0.00     0.014 A 
BRANCH  13  17
HETATM   17  O   UNL     1      40.281 -10.011  13.656  1.00  0.00    -0.356 OA
HETATM   18  C   UNL     1      39.416 -10.782  12.831  1.00  0.00     0.210 C 
ENDBRANCH  13  17
ENDBRANCH   9  11
ENDBRANCH   1   5
BRANCH   2  19
HETATM   19  N   UNL     1      43.280 -12.824   5.248  1.00  0.00    -0.165 NA
HETATM   20  C   UNL     1      43.153 -14.110   5.183  1.00  0.00     0.157 A 
HETATM   21  C   UNL     1      43.057 -15.116   6.333  1.00  0.00     0.277 A 
HETATM   22  C   UNL     1      43.076 -14.896   3.958  1.00  0.00     0.027 A 
HETATM   23  O   UNL     1      43.081 -14.822   7.510  1.00  0.00    -0.266 OA
HETATM   24  N   UNL     1      42.946 -16.353   5.735  1.00  0.00    -0.321 N 
HETATM   25  C   UNL     1      42.954 -16.229   4.347  1.00  0.00     0.048 A 
HETATM   26  H   UNL     1      42.865 -17.217   6.251  1.00  0.00     0.169 HD
HETATM   27  C   UNL     1      42.858 -17.239   3.415  1.00  0.00     0.030 A 
HETATM   28  C   UNL     1      42.886 -16.871   2.063  1.00  0.00     0.002 A 
HETATM   29  C   UNL     1      43.009 -15.519   1.677  1.00  0.00     0.001 A 
HETATM   30  C   UNL     1      43.107 -14.507   2.635  1.00  0.00     0.016 A 
ENDBRANCH   2  19
TORSDOF 4
ENDMDL
MODEL 2
REMARK VINA RESULT:      -8.8      2.293      3.441
REMARK  4 active torsions:
REMARK  status: ('A' for Active; 'I' for Inactive)
REMARK    1  A    between atoms: O_2  and  C_3 
REMARK    2  A    between atoms: C_5  and  C_6 
REMARK    3  A    between atoms: C_10  and  C_11 
REMARK       I    between atoms: C_11  and  N_12 
REMARK    4  A    between atoms: N_12  and  N_13 
ROOT
HETATM    1  C   UNL     1      43.142 -13.228   4.349  1.00  0.00     0.289 C 
HETATM    2  N   UNL     1      43.125 -14.528   4.825  1.00  0.00    -0.241 N 
HETATM    3  O   UNL     1      43.120 -12.930   3.157  1.00  0.00    -0.264 OA
HETATM    4  H   UNL     1      43.164 -14.715   5.827  1.00  0.00     0.192 HD
ENDROOT
BRANCH   1   5
HETATM    5  C   UNL     1      43.192 -12.211   5.368  1.00  0.00     0.121 A 
HETATM    6  N   UNL     1      42.665 -10.969   5.152  1.00  0.00    -0.272 N 
HETATM    7  N   UNL     1      42.792 -10.127   6.186  1.00  0.00    -0.174 NA
HETATM    8  H   UNL     1      42.207 -10.646   4.305  1.00  0.00     0.189 HD
HETATM    9  C   UNL     1      43.414 -10.844   7.136  1.00  0.00     0.089 A 
HETATM   10  C   UNL     1      43.689 -12.159   6.656  1.00  0.00     0.071 A 
BRANCH   9  11
HETATM   11  C   UNL     1      43.728 -10.267   8.450  1.00  0.00    -0.003 A 
HETATM   12  C   UNL     1      42.728  -9.609   9.189  1.00  0.00     0.050 A 
HETATM   13  C   UNL     1      43.005  -9.054  10.441  1.00  0.00     0.069 A 
HETATM   14  C   UNL     1      44.296  -9.157  10.961  1.00  0.00     0.037 A 
HETATM   15  C   UNL     1      45.298  -9.809  10.246  1.00  0.00     0.004 A 
HETATM   16  C   UNL     1      45.016 -10.363   8.995  1.00  0.00     0.014 A 
BRANCH  13  17
HETATM   17  O   UNL     1      42.115  -8.394  11.244  1.00  0.00    -0.356 OA
HETATM   18  C   UNL     1      42.608  -7.923  12.492  1.00  0.00     0.210 C 
ENDBRANCH  13  17
ENDBRANCH   9  11
ENDBRANCH   1   5
BRANCH   2  19
HETATM   19  N   UNL     1      43.071 -15.585   3.958  1.00  0.00    -0.165 NA
HETATM   20  C   UNL     1      43.424 -16.738   4.428  1.00  0.00     0.157 A 
HETATM   21  C   UNL     1      43.904 -17.084   5.841  1.00  0.00     0.277 A 
HETATM   22  C   UNL     1      43.441 -17.991   3.683  1.00  0.00     0.027 A 
HETATM   23  O   UNL     1      44.013 -16.284   6.747  1.00  0.00    -0.266 OA
HETATM   24  N   UNL     1      44.162 -18.437   5.823  1.00  0.00    -0.321 N 
HETATM   25  C   UNL     1      43.891 -18.972   4.566  1.00  0.00     0.048 A 
HETATM   26  H   UNL     1      44.498 -18.952   6.625  1.00  0.00     0.169 HD
HETATM   27  C   UNL     1      44.023 -20.284   4.166  1.00  0.00     0.030 A 
HETATM   28  C   UNL     1      43.686 -20.590   2.842  1.00  0.00     0.002 A 
HETATM   29  C   UNL     1      43.230 -19.591   1.955  1.00  0.00     0.001 A 
HETATM   30  C   UNL     1      43.102 -18.265   2.375  1.00  0.00     0.016 A 
ENDBRANCH   2  19
TORSDOF 4
ENDMDL
MODEL 3
REMARK VINA RESULT:      -8.7      3.448      4.448
REMARK  4 active torsions:
REMARK  status: ('A' for Active; 'I' for Inactive)
REMARK    1  A    between atoms: O_2  and  C_3 
REMARK    2  A    between atoms: C_5  and  C_6 
REMARK    3  A    between atoms: C_10  and  C_11 
REMARK       I    between atoms: C_11  and  N_12 
REMARK    4  A    between atoms: N_12  and  N_13 
ROOT
HETATM    1  C   UNL     1      41.949 -14.088   4.577  1.00  0.00     0.289 C 
HETATM    2  N   UNL     1      43.113 -14.662   4.095  1.00  0.00    -0.241 N 
HETATM    3  O   UNL     1      40.826 -14.557   4.406  1.00  0.00    -0.264 OA
HETATM    4  H   UNL     1      44.016 -14.216   4.252  1.00  0.00     0.192 HD
ENDROOT
BRANCH   1   5
HETATM    5  C   UNL     1      42.139 -12.864   5.314  1.00  0.00     0.121 A 
HETATM    6  N   UNL     1      41.143 -11.933   5.402  1.00  0.00    -0.272 N 
HETATM    7  N   UNL     1      41.467 -10.844   6.112  1.00  0.00    -0.174 NA
HETATM    8  H   UNL     1      40.218 -11.996   4.987  1.00  0.00     0.189 HD
HETATM    9  C   UNL     1      42.724 -11.069   6.529  1.00  0.00     0.089 A 
HETATM   10  C   UNL     1      43.184 -12.327   6.040  1.00  0.00     0.071 A 
BRANCH   9  11
HETATM   11  C   UNL     1      43.441 -10.094   7.361  1.00  0.00    -0.003 A 
HETATM   12  C   UNL     1      42.914  -8.803   7.549  1.00  0.00     0.050 A 
HETATM   13  C   UNL     1      43.579  -7.862   8.339  1.00  0.00     0.069 A 
HETATM   14  C   UNL     1      44.785  -8.213   8.948  1.00  0.00     0.037 A 
HETATM   15  C   UNL     1      45.320  -9.488   8.777  1.00  0.00     0.004 A 
HETATM   16  C   UNL     1      44.650 -10.426   7.988  1.00  0.00     0.014 A 
BRANCH  13  17
HETATM   17  O   UNL     1      43.163  -6.582   8.589  1.00  0.00    -0.356 OA
HETATM   18  C   UNL     1      42.888  -6.253   9.945  1.00  0.00     0.210 C 
ENDBRANCH  13  17
ENDBRANCH   9  11
ENDBRANCH   1   5
BRANCH   2  19
HETATM   19  N   UNL     1      43.069 -15.831   3.384  1.00  0.00    -0.165 NA
HETATM   20  C   UNL     1      43.456 -16.899   4.003  1.00  0.00     0.157 A 
HETATM   21  C   UNL     1      43.968 -17.035   5.439  1.00  0.00     0.277 A 
HETATM   22  C   UNL     1      43.489 -18.243   3.439  1.00  0.00     0.027 A 
HETATM   23  O   UNL     1      44.074 -16.115   6.223  1.00  0.00    -0.266 OA
HETATM   24  N   UNL     1      44.257 -18.372   5.605  1.00  0.00    -0.321 N 
HETATM   25  C   UNL     1      43.977 -19.082   4.439  1.00  0.00     0.048 A 
HETATM   26  H   UNL     1      44.618 -18.763   6.463  1.00  0.00     0.169 HD
HETATM   27  C   UNL     1      44.133 -20.435   4.223  1.00  0.00     0.030 A 
HETATM   28  C   UNL     1      43.780 -20.929   2.961  1.00  0.00     0.002 A 
HETATM   29  C   UNL     1      43.285 -20.073   1.954  1.00  0.00     0.001 A 
HETATM   30  C   UNL     1      43.134 -18.704   2.188  1.00  0.00     0.016 A 
ENDBRANCH   2  19
TORSDOF 4
ENDMDL
MODEL 4
REMARK VINA RESULT:      -8.4      1.593      2.069
REMARK  4 active torsions:
REMARK  status: ('A' for Active; 'I' for Inactive)
REMARK    1  A    between atoms: O_2  and  C_3 
REMARK    2  A    between atoms: C_5  and  C_6 
REMARK    3  A    between atoms: C_10  and  C_11 
REMARK       I    between atoms: C_11  and  N_12 
REMARK    4  A    between atoms: N_12  and  N_13 
ROOT
HETATM    1  C   UNL     1      44.352 -11.392   6.153  1.00  0.00     0.289 C 
HETATM    2  N   UNL     1      43.297 -12.264   5.947  1.00  0.00    -0.241 N 
HETATM    3  O   UNL     1      45.237 -11.174   5.328  1.00  0.00    -0.264 OA
HETATM    4  H   UNL     1      42.602 -12.419   6.677  1.00  0.00     0.192 HD
ENDROOT
BRANCH   1   5
HETATM    5  C   UNL     1      44.354 -10.735   7.436  1.00  0.00     0.121 A 
HETATM    6  N   UNL     1      45.409 -10.869   8.294  1.00  0.00    -0.272 N 
HETATM    7  N   UNL     1      45.265 -10.209   9.451  1.00  0.00    -0.174 NA
HETATM    8  H   UNL     1      46.254 -11.408   8.133  1.00  0.00     0.189 HD
HETATM    9  C   UNL     1      44.074  -9.597   9.350  1.00  0.00     0.089 A 
HETATM   10  C   UNL     1      43.467  -9.910   8.099  1.00  0.00     0.071 A 
BRANCH   9  11
HETATM   11  C   UNL     1      43.554  -8.749  10.432  1.00  0.00    -0.003 A 
HETATM   12  C   UNL     1      43.021  -7.480  10.140  1.00  0.00     0.050 A 
HETATM   13  C   UNL     1      42.520  -6.660  11.153  1.00  0.00     0.069 A 
HETATM   14  C   UNL     1      42.551  -7.111  12.474  1.00  0.00     0.037 A 
HETATM   15  C   UNL     1      43.072  -8.366  12.782  1.00  0.00     0.004 A 
HETATM   16  C   UNL     1      43.571  -9.183  11.765  1.00  0.00     0.014 A 
BRANCH  13  17
HETATM   17  O   UNL     1      41.981  -5.413  10.987  1.00  0.00    -0.356 OA
HETATM   18  C   UNL     1      42.057  -4.530  12.099  1.00  0.00     0.210 C 
ENDBRANCH  13  17
ENDBRANCH   9  11
ENDBRANCH   1   5
BRANCH   2  19
HETATM   19  N   UNL     1      43.177 -12.944   4.766  1.00  0.00    -0.165 NA
HETATM   20  C   UNL     1      43.200 -14.236   4.838  1.00  0.00     0.157 A 
HETATM   21  C   UNL     1      43.348 -15.119   6.081  1.00  0.00     0.277 A 
HETATM   22  C   UNL     1      43.087 -15.152   3.709  1.00  0.00     0.027 A 
HETATM   23  O   UNL     1      43.461 -14.700   7.214  1.00  0.00    -0.266 OA
HETATM   24  N   UNL     1      43.323 -16.416   5.618  1.00  0.00    -0.321 N 
HETATM   25  C   UNL     1      43.168 -16.441   4.234  1.00  0.00     0.048 A 
HETATM   26  H   UNL     1      43.402 -17.224   6.219  1.00  0.00     0.169 HD
HETATM   27  C   UNL     1      43.095 -17.550   3.418  1.00  0.00     0.030 A 
HETATM   28  C   UNL     1      42.935 -17.327   2.044  1.00  0.00     0.002 A 
HETATM   29  C   UNL     1      42.853 -16.019   1.521  1.00  0.00     0.001 A 
HETATM   30  C   UNL     1      42.929 -14.906   2.361  1.00  0.00     0.016 A 
ENDBRANCH   2  19
TORSDOF 4
ENDMDL
MODEL 5
REMARK VINA RESULT:      -8.4      2.068      2.603
REMARK  4 active torsions:
REMARK  status: ('A' for Active; 'I' for Inactive)
REMARK    1  A    between atoms: O_2  and  C_3 
REMARK    2  A    between atoms: C_5  and  C_6 
REMARK    3  A    between atoms: C_10  and  C_11 
REMARK       I    between atoms: C_11  and  N_12 
REMARK    4  A    between atoms: N_12  and  N_13 
ROOT
HETATM    1  C   UNL     1      44.682 -11.732   7.234  1.00  0.00     0.289 C 
HETATM    2  N   UNL     1      43.719 -12.717   7.376  1.00  0.00    -0.241 N 
HETATM    3  O   UNL     1      45.618 -11.792   6.440  1.00  0.00    -0.264 OA
HETATM    4  H   UNL     1      42.976 -12.621   8.067  1.00  0.00     0.192 HD
ENDROOT
BRANCH   1   5
HETATM    5  C   UNL     1      44.519 -10.596   8.107  1.00  0.00     0.121 A 
HETATM    6  N   UNL     1      45.234  -9.449   7.911  1.00  0.00    -0.272 N 
HETATM    7  N   UNL     1      44.983  -8.483   8.805  1.00  0.00    -0.174 NA
HETATM    8  H   UNL     1      45.914  -9.279   7.177  1.00  0.00     0.189 HD
HETATM    9  C   UNL     1      44.048  -9.003   9.617  1.00  0.00     0.089 A 
HETATM   10  C   UNL     1      43.736 -10.335   9.214  1.00  0.00     0.071 A 
BRANCH   9  11
HETATM   11  C   UNL     1      43.492  -8.233  10.737  1.00  0.00    -0.003 A 
HETATM   12  C   UNL     1      42.793  -7.037  10.494  1.00  0.00     0.050 A 
HETATM   13  C   UNL     1      42.255  -6.291  11.545  1.00  0.00     0.069 A 
HETATM   14  C   UNL     1      42.417  -6.743  12.856  1.00  0.00     0.037 A 
HETATM   15  C   UNL     1      43.102  -7.928  13.116  1.00  0.00     0.004 A 
HETATM   16  C   UNL     1      43.637  -8.671  12.061  1.00  0.00     0.014 A 
BRANCH  13  17
HETATM   17  O   UNL     1      41.560  -5.117  11.427  1.00  0.00    -0.356 OA
HETATM   18  C   UNL     1      41.436  -4.327  12.602  1.00  0.00     0.210 C 
ENDBRANCH  13  17
ENDBRANCH   9  11
ENDBRANCH   1   5
BRANCH   2  19
HETATM   19  N   UNL     1      43.758 -13.844   6.601  1.00  0.00    -0.165 NA
HETATM   20  C   UNL     1      42.824 -13.969   5.714  1.00  0.00     0.157 A 
HETATM   21  C   UNL     1      41.662 -13.017   5.414  1.00  0.00     0.277 A 
HETATM   22  C   UNL     1      42.676 -15.084   4.786  1.00  0.00     0.027 A 
HETATM   23  O   UNL     1      41.464 -11.968   5.991  1.00  0.00    -0.266 OA
HETATM   24  N   UNL     1      40.951 -13.611   4.394  1.00  0.00    -0.321 N 
HETATM   25  C   UNL     1      41.540 -14.818   4.023  1.00  0.00     0.048 A 
HETATM   26  H   UNL     1      40.121 -13.208   3.984  1.00  0.00     0.169 HD
HETATM   27  C   UNL     1      41.120 -15.690   3.042  1.00  0.00     0.030 A 
HETATM   28  C   UNL     1      41.880 -16.850   2.844  1.00  0.00     0.002 A 
HETATM   29  C   UNL     1      43.029 -17.111   3.620  1.00  0.00     0.001 A 
HETATM   30  C   UNL     1      43.442 -16.217   4.611  1.00  0.00     0.016 A 
ENDBRANCH   2  19
TORSDOF 4
ENDMDL
MODEL 6
REMARK VINA RESULT:      -8.2      2.390      9.497
REMARK  4 active torsions:
REMARK  status: ('A' for Active; 'I' for Inactive)
REMARK    1  A    between atoms: O_2  and  C_3 
REMARK    2  A    between atoms: C_5  and  C_6 
REMARK    3  A    between atoms: C_10  and  C_11 
REMARK       I    between atoms: C_11  and  N_12 
REMARK    4  A    between atoms: N_12  and  N_13 
ROOT
HETATM    1  C   UNL     1      41.773 -10.872   6.161  1.00  0.00     0.289 C 
HETATM    2  N   UNL     1      42.747 -10.338   6.987  1.00  0.00    -0.241 N 
HETATM    3  O   UNL     1      40.598 -10.513   6.159  1.00  0.00    -0.264 OA
HETATM    4  H   UNL     1      43.704 -10.690   6.957  1.00  0.00     0.192 HD
ENDROOT
BRANCH   1   5
HETATM    5  C   UNL     1      42.234 -11.912   5.276  1.00  0.00     0.121 A 
HETATM    6  N   UNL     1      42.855 -11.611   4.097  1.00  0.00    -0.272 N 
HETATM    7  N   UNL     1      43.220 -12.680   3.376  1.00  0.00    -0.174 NA
HETATM    8  H   UNL     1      43.051 -10.681   3.737  1.00  0.00     0.189 HD
HETATM    9  C   UNL     1      42.843 -13.735   4.115  1.00  0.00     0.089 A 
HETATM   10  C   UNL     1      42.211 -13.293   5.315  1.00  0.00     0.071 A 
BRANCH   9  11
HETATM   11  C   UNL     1      43.084 -15.112   3.664  1.00  0.00    -0.003 A 
HETATM   12  C   UNL     1      43.410 -16.114   4.597  1.00  0.00     0.050 A 
HETATM   13  C   UNL     1      43.642 -17.430   4.188  1.00  0.00     0.069 A 
HETATM   14  C   UNL     1      43.548 -17.750   2.833  1.00  0.00     0.037 A 
HETATM   15  C   UNL     1      43.222 -16.772   1.896  1.00  0.00     0.004 A 
HETATM   16  C   UNL     1      42.990 -15.458   2.309  1.00  0.00     0.014 A 
BRANCH  13  17
HETATM   17  O   UNL     1      43.965 -18.481   5.004  1.00  0.00    -0.356 OA
HETATM   18  C   UNL     1      44.105 -19.752   4.383  1.00  0.00     0.210 C 
ENDBRANCH  13  17
ENDBRANCH   9  11
ENDBRANCH   1   5
BRANCH   2  19
HETATM   19  N   UNL     1      42.439  -9.338   7.869  1.00  0.00    -0.165 NA
HETATM   20  C   UNL     1      42.940  -9.440   9.057  1.00  0.00     0.157 A 
HETATM   21  C   UNL     1      43.841 -10.544   9.620  1.00  0.00     0.277 A 
HETATM   22  C   UNL     1      42.743  -8.492  10.147  1.00  0.00     0.027 A 
HETATM   23  O   UNL     1      44.225 -11.508   8.991  1.00  0.00    -0.266 OA
HETATM   24  N   UNL     1      44.087 -10.189  10.928  1.00  0.00    -0.321 N 
HETATM   25  C   UNL     1      43.450  -8.990  11.240  1.00  0.00     0.048 A 
HETATM   26  H   UNL     1      44.658 -10.737  11.557  1.00  0.00     0.169 HD
HETATM   27  C   UNL     1      43.466  -8.321  12.445  1.00  0.00     0.030 A 
HETATM   28  C   UNL     1      42.747  -7.121  12.523  1.00  0.00     0.002 A 
HETATM   29  C   UNL     1      42.035  -6.623  11.411  1.00  0.00     0.001 A 
HETATM   30  C   UNL     1      42.028  -7.314  10.197  1.00  0.00     0.016 A 
ENDBRANCH   2  19
TORSDOF 4
ENDMDL
MODEL 7
REMARK VINA RESULT:      -8.2      7.387      9.525
REMARK  4 active torsions:
REMARK  status: ('A' for Active; 'I' for Inactive)
REMARK    1  A    between atoms: O_2  and  C_3 
REMARK    2  A    between atoms: C_5  and  C_6 
REMARK    3  A    between atoms: C_10  and  C_11 
REMARK       I    between atoms: C_11  and  N_12 
REMARK    4  A    between atoms: N_12  and  N_13 
ROOT
HETATM    1  C   UNL     1      41.464 -14.804   1.148  1.00  0.00     0.289 C 
HETATM    2  N   UNL     1      42.745 -15.312   1.279  1.00  0.00    -0.241 N 
HETATM    3  O   UNL     1      40.444 -15.488   1.182  1.00  0.00    -0.264 OA
HETATM    4  H   UNL     1      43.557 -14.698   1.223  1.00  0.00     0.192 HD
ENDROOT
BRANCH   1   5
HETATM    5  C   UNL     1      41.396 -13.377   0.959  1.00  0.00     0.121 A 
HETATM    6  N   UNL     1      41.774 -12.516   1.951  1.00  0.00    -0.272 N 
HETATM    7  N   UNL     1      41.648 -11.220   1.634  1.00  0.00    -0.174 NA
HETATM    8  H   UNL     1      42.125 -12.769   2.870  1.00  0.00     0.189 HD
HETATM    9  C   UNL     1      41.185 -11.220   0.374  1.00  0.00     0.089 A 
HETATM   10  C   UNL     1      41.006 -12.559  -0.083  1.00  0.00     0.071 A 
BRANCH   9  11
HETATM   11  C   UNL     1      40.925  -9.966  -0.347  1.00  0.00    -0.003 A 
HETATM   12  C   UNL     1      41.903  -9.428  -1.203  1.00  0.00     0.050 A 
HETATM   13  C   UNL     1      41.674  -8.238  -1.899  1.00  0.00     0.069 A 
HETATM   14  C   UNL     1      40.456  -7.577  -1.737  1.00  0.00     0.037 A 
HETATM   15  C   UNL     1      39.474  -8.097  -0.896  1.00  0.00     0.004 A 
HETATM   16  C   UNL     1      39.707  -9.287  -0.204  1.00  0.00     0.014 A 
BRANCH  13  17
HETATM   17  O   UNL     1      42.550  -7.625  -2.754  1.00  0.00    -0.356 OA
HETATM   18  C   UNL     1      43.359  -6.592  -2.208  1.00  0.00     0.210 C 
ENDBRANCH  13  17
ENDBRANCH   9  11
ENDBRANCH   1   5
BRANCH   2  19
HETATM   19  N   UNL     1      42.945 -16.653   1.470  1.00  0.00    -0.165 NA
HETATM   20  C   UNL     1      43.238 -17.029   2.673  1.00  0.00     0.157 A 
HETATM   21  C   UNL     1      43.399 -16.165   3.928  1.00  0.00     0.277 A 
HETATM   22  C   UNL     1      43.489 -18.400   3.098  1.00  0.00     0.027 A 
HETATM   23  O   UNL     1      43.257 -14.960   3.958  1.00  0.00    -0.266 OA
HETATM   24  N   UNL     1      43.723 -17.041   4.941  1.00  0.00    -0.321 N 
HETATM   25  C   UNL     1      43.774 -18.348   4.462  1.00  0.00     0.048 A 
HETATM   26  H   UNL     1      43.891 -16.754   5.894  1.00  0.00     0.169 HD
HETATM   27  C   UNL     1      44.060 -19.492   5.175  1.00  0.00     0.030 A 
HETATM   28  C   UNL     1      44.051 -20.705   4.475  1.00  0.00     0.002 A 
HETATM   29  C   UNL     1      43.760 -20.750   3.094  1.00  0.00     0.001 A 
HETATM   30  C   UNL     1      43.473 -19.581   2.385  1.00  0.00     0.016 A 
ENDBRANCH   2  19
TORSDOF 4
ENDMDL
MODEL 8
REMARK VINA RESULT:      -8.1      3.189      9.579
REMARK  4 active torsions:
REMARK  status: ('A' for Active; 'I' for Inactive)
REMARK    1  A    between atoms: O_2  and  C_3 
REMARK    2  A    between atoms: C_5  and  C_6 
REMARK    3  A    between atoms: C_10  and  C_11 
REMARK       I    between atoms: C_11  and  N_12 
REMARK    4  A    between atoms: N_12  and  N_13 
ROOT
HETATM    1  C   UNL     1      41.018 -12.207   4.934  1.00  0.00     0.289 C 
HETATM    2  N   UNL     1      41.512 -11.963   6.204  1.00  0.00    -0.241 N 
HETATM    3  O   UNL     1      40.476 -11.358   4.230  1.00  0.00    -0.264 OA
HETATM    4  H   UNL     1      41.935 -12.713   6.750  1.00  0.00     0.192 HD
ENDROOT
BRANCH   1   5
HETATM    5  C   UNL     1      41.178 -13.563   4.472  1.00  0.00     0.121 A 
HETATM    6  N   UNL     1      40.127 -14.255   3.942  1.00  0.00    -0.272 N 
HETATM    7  N   UNL     1      40.425 -15.506   3.565  1.00  0.00    -0.174 NA
HETATM    8  H   UNL     1      39.178 -13.914   3.820  1.00  0.00     0.189 HD
HETATM    9  C   UNL     1      41.732 -15.644   3.838  1.00  0.00     0.089 A 
HETATM   10  C   UNL     1      42.240 -14.444   4.418  1.00  0.00     0.071 A 
BRANCH   9  11
HETATM   11  C   UNL     1      42.448 -16.894   3.551  1.00  0.00    -0.003 A 
HETATM   12  C   UNL     1      43.189 -17.532   4.562  1.00  0.00     0.050 A 
HETATM   13  C   UNL     1      43.875 -18.723   4.310  1.00  0.00     0.069 A 
HETATM   14  C   UNL     1      43.822 -19.283   3.032  1.00  0.00     0.037 A 
HETATM   15  C   UNL     1      43.089 -18.668   2.019  1.00  0.00     0.004 A 
HETATM   16  C   UNL     1      42.404 -17.478   2.277  1.00  0.00     0.014 A 
BRANCH  13  17
HETATM   17  O   UNL     1      44.625 -19.427   5.213  1.00  0.00    -0.356 OA
HETATM   18  C   UNL     1      44.344 -20.816   5.331  1.00  0.00     0.210 C 
ENDBRANCH  13  17
ENDBRANCH   9  11
ENDBRANCH   1   5
BRANCH   2  19
HETATM   19  N   UNL     1      41.427 -10.713   6.755  1.00  0.00    -0.165 NA
HETATM   20  C   UNL     1      42.507 -10.242   7.291  1.00  0.00     0.157 A 
HETATM   21  C   UNL     1      43.884 -10.903   7.397  1.00  0.00     0.277 A 
HETATM   22  C   UNL     1      42.640  -8.938   7.929  1.00  0.00     0.027 A 
HETATM   23  O   UNL     1      44.155 -12.004   6.965  1.00  0.00    -0.266 OA
HETATM   24  N   UNL     1      44.680  -9.996   8.061  1.00  0.00    -0.321 N 
HETATM   25  C   UNL     1      43.958  -8.845   8.372  1.00  0.00     0.048 A 
HETATM   26  H   UNL     1      45.652 -10.160   8.278  1.00  0.00     0.169 HD
HETATM   27  C   UNL     1      44.414  -7.721   9.026  1.00  0.00     0.030 A 
HETATM   28  C   UNL     1      43.499  -6.679   9.226  1.00  0.00     0.002 A 
HETATM   29  C   UNL     1      42.166  -6.780   8.773  1.00  0.00     0.001 A 
HETATM   30  C   UNL     1      41.720  -7.927   8.112  1.00  0.00     0.016 A 
ENDBRANCH   2  19
TORSDOF 4
ENDMDL
MODEL 9
REMARK VINA RESULT:      -8.0      7.444     10.603
REMARK  4 active torsions:
REMARK  status: ('A' for Active; 'I' for Inactive)
REMARK    1  A    between atoms: O_2  and  C_3 
REMARK    2  A    between atoms: C_5  and  C_6 
REMARK    3  A    between atoms: C_10  and  C_11 
REMARK       I    between atoms: C_11  and  N_12 
REMARK    4  A    between atoms: N_12  and  N_13 
ROOT
HETATM    1  C   UNL     1      39.432 -12.505   2.027  1.00  0.00     0.289 C 
HETATM    2  N   UNL     1      38.559 -12.614   0.958  1.00  0.00    -0.241 N 
HETATM    3  O   UNL     1      39.687 -11.450   2.604  1.00  0.00    -0.264 OA
HETATM    4  H   UNL     1      38.401 -13.514   0.506  1.00  0.00     0.192 HD
ENDROOT
BRANCH   1   5
HETATM    5  C   UNL     1      40.047 -13.743   2.434  1.00  0.00     0.121 A 
HETATM    6  N   UNL     1      39.345 -14.914   2.427  1.00  0.00    -0.272 N 
HETATM    7  N   UNL     1      40.045 -15.980   2.839  1.00  0.00    -0.174 NA
HETATM    8  H   UNL     1      38.376 -15.037   2.150  1.00  0.00     0.189 HD
HETATM    9  C   UNL     1      41.269 -15.500   3.114  1.00  0.00     0.089 A 
HETATM   10  C   UNL     1      41.307 -14.094   2.879  1.00  0.00     0.071 A 
BRANCH   9  11
HETATM   11  C   UNL     1      42.347 -16.377   3.589  1.00  0.00    -0.003 A 
HETATM   12  C   UNL     1      42.728 -17.500   2.833  1.00  0.00     0.050 A 
HETATM   13  C   UNL     1      43.753 -18.345   3.267  1.00  0.00     0.069 A 
HETATM   14  C   UNL     1      44.404 -18.067   4.470  1.00  0.00     0.037 A 
HETATM   15  C   UNL     1      44.043 -16.956   5.230  1.00  0.00     0.004 A 
HETATM   16  C   UNL     1      43.019 -16.113   4.791  1.00  0.00     0.014 A 
BRANCH  13  17
HETATM   17  O   UNL     1      44.205 -19.462   2.617  1.00  0.00    -0.356 OA
HETATM   18  C   UNL     1      43.229 -20.249   1.944  1.00  0.00     0.210 C 
ENDBRANCH  13  17
ENDBRANCH   9  11
ENDBRANCH   1   5
BRANCH   2  19
HETATM   19  N   UNL     1      37.905 -11.511   0.479  1.00  0.00    -0.165 NA
HETATM   20  C   UNL     1      37.583 -11.528  -0.774  1.00  0.00     0.157 A 
HETATM   21  C   UNL     1      37.842 -12.626  -1.809  1.00  0.00     0.277 A 
HETATM   22  C   UNL     1      36.885 -10.465  -1.486  1.00  0.00     0.027 A 
HETATM   23  O   UNL     1      38.402 -13.677  -1.574  1.00  0.00    -0.266 OA
HETATM   24  N   UNL     1      37.314 -12.153  -2.991  1.00  0.00    -0.321 N 
HETATM   25  C   UNL     1      36.752 -10.892  -2.807  1.00  0.00     0.048 A 
HETATM   26  H   UNL     1      37.339 -12.668  -3.859  1.00  0.00     0.169 HD
HETATM   27  C   UNL     1      36.129 -10.105  -3.752  1.00  0.00     0.030 A 
HETATM   28  C   UNL     1      35.635  -8.864  -3.330  1.00  0.00     0.002 A 
HETATM   29  C   UNL     1      35.772  -8.440  -1.991  1.00  0.00     0.001 A 
HETATM   30  C   UNL     1      36.407  -9.248  -1.046  1.00  0.00     0.016 A 
ENDBRANCH   2  19
TORSDOF 4
ENDMDL
MODEL 10
REMARK VINA RESULT:      -7.9      7.296     10.536
REMARK  4 active torsions:
REMARK  status: ('A' for Active; 'I' for Inactive)
REMARK    1  A    between atoms: O_2  and  C_3 
REMARK    2  A    between atoms: C_5  and  C_6 
REMARK    3  A    between atoms: C_10  and  C_11 
REMARK       I    between atoms: C_11  and  N_12 
REMARK    4  A    between atoms: N_12  and  N_13 
ROOT
HETATM    1  C   UNL     1      41.181 -12.662   0.445  1.00  0.00     0.289 C 
HETATM    2  N   UNL     1      41.223 -12.654  -0.938  1.00  0.00    -0.241 N 
HETATM    3  O   UNL     1      41.006 -11.661   1.136  1.00  0.00    -0.264 OA
HETATM    4  H   UNL     1      41.392 -13.515  -1.458  1.00  0.00     0.192 HD
ENDROOT
BRANCH   1   5
HETATM    5  C   UNL     1      41.364 -13.958   1.049  1.00  0.00     0.121 A 
HETATM    6  N   UNL     1      40.355 -14.878   1.063  1.00  0.00    -0.272 N 
HETATM    7  N   UNL     1      40.669 -16.033   1.665  1.00  0.00    -0.174 NA
HETATM    8  H   UNL     1      39.424 -14.761   0.673  1.00  0.00     0.189 HD
HETATM    9  C   UNL     1      41.946 -15.881   2.050  1.00  0.00     0.089 A 
HETATM   10  C   UNL     1      42.417 -14.585   1.687  1.00  0.00     0.071 A 
BRANCH   9  11
HETATM   11  C   UNL     1      42.669 -16.954   2.747  1.00  0.00    -0.003 A 
HETATM   12  C   UNL     1      43.088 -16.774   4.078  1.00  0.00     0.050 A 
HETATM   13  C   UNL     1      43.775 -17.782   4.758  1.00  0.00     0.069 A 
HETATM   14  C   UNL     1      44.048 -18.984   4.103  1.00  0.00     0.037 A 
HETATM   15  C   UNL     1      43.638 -19.181   2.786  1.00  0.00     0.004 A 
HETATM   16  C   UNL     1      42.950 -18.171   2.110  1.00  0.00     0.014 A 
BRANCH  13  17
HETATM   17  O   UNL     1      44.228 -17.718   6.048  1.00  0.00    -0.356 OA
HETATM   18  C   UNL     1      43.289 -17.315   7.037  1.00  0.00     0.210 C 
ENDBRANCH  13  17
ENDBRANCH   9  11
ENDBRANCH   1   5
BRANCH   2  19
HETATM   19  N   UNL     1      41.055 -11.486  -1.632  1.00  0.00    -0.165 NA
HETATM   20  C   UNL     1      39.907 -11.311  -2.202  1.00  0.00     0.157 A 
HETATM   21  C   UNL     1      38.695 -12.248  -2.210  1.00  0.00     0.277 A 
HETATM   22  C   UNL     1      39.515 -10.146  -2.986  1.00  0.00     0.027 A 
HETATM   23  O   UNL     1      38.651 -13.323  -1.648  1.00  0.00    -0.266 OA
HETATM   24  N   UNL     1      37.736 -11.606  -2.962  1.00  0.00    -0.321 N 
HETATM   25  C   UNL     1      38.209 -10.377  -3.415  1.00  0.00     0.048 A 
HETATM   26  H   UNL     1      36.820 -11.990  -3.143  1.00  0.00     0.169 HD
HETATM   27  C   UNL     1      37.539  -9.454  -4.189  1.00  0.00     0.030 A 
HETATM   28  C   UNL     1      38.223  -8.278  -4.523  1.00  0.00     0.002 A 
HETATM   29  C   UNL     1      39.545  -8.052  -4.083  1.00  0.00     0.001 A 
HETATM   30  C   UNL     1      40.210  -8.997  -3.300  1.00  0.00     0.016 A 
ENDBRANCH   2  19
TORSDOF 4
ENDMDL
