MODEL 1
REMARK VINA RESULT:      -8.1      0.000      0.000
REMARK  8 active torsions:
REMARK  status: ('A' for Active; 'I' for Inactive)
REMARK    1  A    between atoms: C_2  and  O_3 
REMARK    2  A    between atoms: O_3  and  C_4 
REMARK    3  A    between atoms: C_6  and  O_7 
REMARK    4  A    between atoms: O_7  and  C_8 
REMARK    5  A    between atoms: C_11  and  C_12 
REMARK       I    between atoms: C_12  and  N_13 
REMARK    6  A    between atoms: N_13  and  C_14 
REMARK    7  A    between atoms: C_14  and  N_15 
REMARK    8  A    between atoms: N_15  and  C_16 
ROOT
HETATM    1  C   UNL     1      39.989 -15.270   2.023  1.00  0.00     0.237 C 
HETATM    2  N   UNL     1      39.131 -14.382   2.647  1.00  0.00    -0.201 NA
HETATM    3  O   UNL     1      39.757 -15.725   0.908  1.00  0.00    -0.274 OA
HETATM    4  H   UNL     1      38.208 -14.527   2.248  1.00  0.00     0.139 HD
ENDROOT
BRANCH   2   5
HETATM    5  C   UNL     1      39.282 -13.016   2.732  1.00  0.00     0.157 C 
HETATM    6  S   UNL     1      38.789 -11.888   1.601  1.00  0.00    -0.047 SA
BRANCH   5   7
HETATM    7  N   UNL     1      39.810 -12.544   3.909  1.00  0.00    -0.337 N 
HETATM    8  H   UNL     1      39.099 -12.226   4.561  1.00  0.00     0.168 HD
BRANCH   7   9
HETATM    9  C   UNL     1      41.150 -12.336   4.313  1.00  0.00     0.036 A 
HETATM   10  C   UNL     1      41.372 -12.184   5.693  1.00  0.00     0.061 A 
HETATM   11  C   UNL     1      42.662 -11.931   6.103  1.00  0.00     0.065 A 
HETATM   12  C   UNL     1      43.718 -11.818   5.205  1.00  0.00     0.063 A 
HETATM   13  N   UNL     1      43.167 -11.729   7.383  1.00  0.00    -0.306 N 
HETATM   14  N   UNL     1      44.872 -11.543   5.928  1.00  0.00    -0.307 N 
HETATM   15  C   UNL     1      43.540 -11.951   3.852  1.00  0.00     0.034 A 
HETATM   16  C   UNL     1      44.544 -11.480   7.290  1.00  0.00     0.325 A 
HETATM   17  H   UNL     1      45.800 -11.391   5.570  1.00  0.00     0.170 HD
HETATM   18  O   UNL     1      45.305 -11.249   8.213  1.00  0.00    -0.247 OA
HETATM   19  C   UNL     1      42.233 -12.208   3.409  1.00  0.00     0.032 A 
HETATM   20  H   UNL     1      42.659 -11.736   8.253  1.00  0.00     0.170 HD
ENDBRANCH   7   9
ENDBRANCH   5   7
ENDBRANCH   2   5
BRANCH   1  21
HETATM   21  C   UNL     1      40.979 -15.923   2.912  1.00  0.00     0.032 A 
HETATM   22  C   UNL     1      42.041 -16.582   2.278  1.00  0.00     0.053 A 
HETATM   23  C   UNL     1      42.974 -17.276   3.039  1.00  0.00     0.072 A 
HETATM   24  C   UNL     1      42.845 -17.312   4.426  1.00  0.00     0.073 A 
HETATM   25  C   UNL     1      41.810 -16.624   5.068  1.00  0.00     0.072 A 
HETATM   26  C   UNL     1      40.862 -15.938   4.305  1.00  0.00     0.053 A 
BRANCH  23  27
HETATM   27  O   UNL     1      43.986 -18.015   2.495  1.00  0.00    -0.351 OA
BRANCH  27  28
HETATM   28  C   UNL     1      44.027 -19.380   2.923  1.00  0.00     0.171 C 
HETATM   29  C   UNL     1      43.289 -20.258   1.928  1.00  0.00     0.034 C 
ENDBRANCH  27  28
ENDBRANCH  23  27
BRANCH  25  30
HETATM   30  O   UNL     1      41.841 -16.708   6.432  1.00  0.00    -0.351 OA
BRANCH  30  31
HETATM   31  C   UNL     1      41.787 -15.489   7.171  1.00  0.00     0.171 C 
HETATM   32  C   UNL     1      43.120 -15.318   7.879  1.00  0.00     0.034 C 
ENDBRANCH  30  31
ENDBRANCH  25  30
ENDBRANCH   1  21
TORSDOF 8
ENDMDL
MODEL 2
REMARK VINA RESULT:      -8.1      0.332      2.992
REMARK  8 active torsions:
REMARK  status: ('A' for Active; 'I' for Inactive)
REMARK    1  A    between atoms: C_2  and  O_3 
REMARK    2  A    between atoms: O_3  and  C_4 
REMARK    3  A    between atoms: C_6  and  O_7 
REMARK    4  A    between atoms: O_7  and  C_8 
REMARK    5  A    between atoms: C_11  and  C_12 
REMARK       I    between atoms: C_12  and  N_13 
REMARK    6  A    between atoms: N_13  and  C_14 
REMARK    7  A    between atoms: C_14  and  N_15 
REMARK    8  A    between atoms: N_15  and  C_16 
ROOT
HETATM    1  C   UNL     1      39.958 -15.319   1.958  1.00  0.00     0.237 C 
HETATM    2  N   UNL     1      39.137 -14.421   2.617  1.00  0.00    -0.201 NA
HETATM    3  O   UNL     1      39.706 -15.726   0.830  1.00  0.00    -0.274 OA
HETATM    4  H   UNL     1      38.208 -14.519   2.218  1.00  0.00     0.139 HD
ENDROOT
BRANCH   2   5
HETATM    5  C   UNL     1      39.339 -13.065   2.749  1.00  0.00     0.157 C 
HETATM    6  S   UNL     1      38.898 -11.883   1.652  1.00  0.00    -0.047 SA
BRANCH   5   7
HETATM    7  N   UNL     1      39.875 -12.653   3.944  1.00  0.00    -0.337 N 
HETATM    8  H   UNL     1      39.166 -12.444   4.642  1.00  0.00     0.168 HD
BRANCH   7   9
HETATM    9  C   UNL     1      41.210 -12.379   4.322  1.00  0.00     0.036 A 
HETATM   10  C   UNL     1      41.466 -12.298   5.702  1.00  0.00     0.061 A 
HETATM   11  C   UNL     1      42.749 -11.983   6.091  1.00  0.00     0.065 A 
HETATM   12  C   UNL     1      43.765 -11.741   5.173  1.00  0.00     0.063 A 
HETATM   13  N   UNL     1      43.280 -11.828   7.367  1.00  0.00    -0.306 N 
HETATM   14  N   UNL     1      44.921 -11.432   5.880  1.00  0.00    -0.307 N 
HETATM   15  C   UNL     1      43.552 -11.801   3.820  1.00  0.00     0.034 A 
HETATM   16  C   UNL     1      44.635 -11.478   7.251  1.00  0.00     0.325 A 
HETATM   17  H   UNL     1      45.824 -11.194   5.505  1.00  0.00     0.170 HD
HETATM   18  O   UNL     1      45.407 -11.254   8.165  1.00  0.00    -0.247 OA
HETATM   19  C   UNL     1      42.251 -12.119   3.398  1.00  0.00     0.032 A 
HETATM   20  H   UNL     1      42.804 -11.924   8.248  1.00  0.00     0.170 HD
ENDBRANCH   7   9
ENDBRANCH   5   7
ENDBRANCH   2   5
BRANCH   1  21
HETATM   21  C   UNL     1      40.928 -16.038   2.819  1.00  0.00     0.032 A 
HETATM   22  C   UNL     1      40.726 -15.932   4.201  1.00  0.00     0.053 A 
HETATM   23  C   UNL     1      41.629 -16.521   5.077  1.00  0.00     0.072 A 
HETATM   24  C   UNL     1      42.730 -17.211   4.573  1.00  0.00     0.073 A 
HETATM   25  C   UNL     1      42.916 -17.354   3.195  1.00  0.00     0.072 A 
HETATM   26  C   UNL     1      42.019 -16.751   2.312  1.00  0.00     0.053 A 
BRANCH  23  27
HETATM   27  O   UNL     1      41.553 -16.391   6.434  1.00  0.00    -0.351 OA
BRANCH  27  28
HETATM   28  C   UNL     1      42.789 -16.600   7.127  1.00  0.00     0.171 C 
HETATM   29  C   UNL     1      43.094 -15.408   8.016  1.00  0.00     0.034 C 
ENDBRANCH  27  28
ENDBRANCH  23  27
BRANCH  25  30
HETATM   30  O   UNL     1      44.010 -18.099   2.850  1.00  0.00    -0.351 OA
BRANCH  30  31
HETATM   31  C   UNL     1      43.996 -19.486   3.183  1.00  0.00     0.171 C 
HETATM   32  C   UNL     1      43.417 -20.241   1.999  1.00  0.00     0.034 C 
ENDBRANCH  30  31
ENDBRANCH  25  30
ENDBRANCH   1  21
TORSDOF 8
ENDMDL
MODEL 3
REMARK VINA RESULT:      -7.6      3.013      6.760
REMARK  8 active torsions:
REMARK  status: ('A' for Active; 'I' for Inactive)
REMARK    1  A    between atoms: C_2  and  O_3 
REMARK    2  A    between atoms: O_3  and  C_4 
REMARK    3  A    between atoms: C_6  and  O_7 
REMARK    4  A    between atoms: O_7  and  C_8 
REMARK    5  A    between atoms: C_11  and  C_12 
REMARK       I    between atoms: C_12  and  N_13 
REMARK    6  A    between atoms: N_13  and  C_14 
REMARK    7  A    between atoms: C_14  and  N_15 
REMARK    8  A    between atoms: N_15  and  C_16 
ROOT
HETATM    1  C   UNL     1      40.325 -15.583   2.413  1.00  0.00     0.237 C 
HETATM    2  N   UNL     1      39.897 -14.389   2.967  1.00  0.00    -0.201 NA
HETATM    3  O   UNL     1      39.705 -16.145   1.518  1.00  0.00    -0.274 OA
HETATM    4  H   UNL     1      38.894 -14.334   2.819  1.00  0.00     0.139 HD
ENDROOT
BRANCH   2   5
HETATM    5  C   UNL     1      40.380 -13.131   2.682  1.00  0.00     0.157 C 
HETATM    6  S   UNL     1      40.866 -11.979   3.791  1.00  0.00    -0.047 SA
BRANCH   5   7
HETATM    7  N   UNL     1      40.560 -12.845   1.351  1.00  0.00    -0.337 N 
HETATM    8  H   UNL     1      41.470 -12.440   1.155  1.00  0.00     0.168 HD
BRANCH   7   9
HETATM    9  C   UNL     1      39.671 -12.923   0.253  1.00  0.00     0.036 A 
HETATM   10  C   UNL     1      39.938 -13.923  -0.698  1.00  0.00     0.061 A 
HETATM   11  C   UNL     1      39.114 -13.984  -1.801  1.00  0.00     0.065 A 
HETATM   12  C   UNL     1      38.061 -13.096  -1.991  1.00  0.00     0.063 A 
HETATM   13  N   UNL     1      39.146 -14.849  -2.890  1.00  0.00    -0.306 N 
HETATM   14  N   UNL     1      37.446 -13.409  -3.197  1.00  0.00    -0.307 N 
HETATM   15  C   UNL     1      37.776 -12.102  -1.091  1.00  0.00     0.034 A 
HETATM   16  C   UNL     1      38.114 -14.499  -3.773  1.00  0.00     0.325 A 
HETATM   17  H   UNL     1      36.662 -12.944  -3.625  1.00  0.00     0.170 HD
HETATM   18  O   UNL     1      37.853 -15.035  -4.834  1.00  0.00    -0.247 OA
HETATM   19  C   UNL     1      38.602 -12.018   0.041  1.00  0.00     0.032 A 
HETATM   20  H   UNL     1      39.794 -15.600  -3.060  1.00  0.00     0.170 HD
ENDBRANCH   7   9
ENDBRANCH   5   7
ENDBRANCH   2   5
BRANCH   1  21
HETATM   21  C   UNL     1      41.337 -16.321   3.207  1.00  0.00     0.032 A 
HETATM   22  C   UNL     1      41.324 -16.097   4.589  1.00  0.00     0.053 A 
HETATM   23  C   UNL     1      42.283 -16.698   5.395  1.00  0.00     0.072 A 
HETATM   24  C   UNL     1      43.252 -17.519   4.819  1.00  0.00     0.073 A 
HETATM   25  C   UNL     1      43.247 -17.779   3.445  1.00  0.00     0.072 A 
HETATM   26  C   UNL     1      42.294 -17.163   2.631  1.00  0.00     0.053 A 
BRANCH  23  27
HETATM   27  O   UNL     1      42.393 -16.463   6.735  1.00  0.00    -0.351 OA
BRANCH  27  28
HETATM   28  C   UNL     1      42.270 -15.088   7.114  1.00  0.00     0.171 C 
HETATM   29  C   UNL     1      43.551 -14.342   6.783  1.00  0.00     0.034 C 
ENDBRANCH  27  28
ENDBRANCH  23  27
BRANCH  25  30
HETATM   30  O   UNL     1      44.225 -18.641   3.034  1.00  0.00    -0.351 OA
BRANCH  30  31
HETATM   31  C   UNL     1      43.815 -19.904   2.510  1.00  0.00     0.171 C 
HETATM   32  C   UNL     1      43.859 -20.912   3.645  1.00  0.00     0.034 C 
ENDBRANCH  30  31
ENDBRANCH  25  30
ENDBRANCH   1  21
TORSDOF 8
ENDMDL
MODEL 4
REMARK VINA RESULT:      -7.5     15.219     17.333
REMARK  8 active torsions:
REMARK  status: ('A' for Active; 'I' for Inactive)
REMARK    1  A    between atoms: C_2  and  O_3 
REMARK    2  A    between atoms: O_3  and  C_4 
REMARK    3  A    between atoms: C_6  and  O_7 
REMARK    4  A    between atoms: O_7  and  C_8 
REMARK    5  A    between atoms: C_11  and  C_12 
REMARK       I    between atoms: C_12  and  N_13 
REMARK    6  A    between atoms: N_13  and  C_14 
REMARK    7  A    between atoms: C_14  and  N_15 
REMARK    8  A    between atoms: N_15  and  C_16 
ROOT
HETATM    1  C   UNL     1      46.934 -28.289   1.785  1.00  0.00     0.237 C 
HETATM    2  N   UNL     1      45.602 -28.267   2.160  1.00  0.00    -0.201 NA
HETATM    3  O   UNL     1      47.824 -27.872   2.518  1.00  0.00    -0.274 OA
HETATM    4  H   UNL     1      45.500 -27.535   2.856  1.00  0.00     0.139 HD
ENDROOT
BRANCH   2   5
HETATM    5  C   UNL     1      44.864 -29.329   2.634  1.00  0.00     0.157 C 
HETATM    6  S   UNL     1      45.457 -30.817   3.113  1.00  0.00    -0.047 SA
BRANCH   5   7
HETATM    7  N   UNL     1      43.523 -29.095   2.810  1.00  0.00    -0.337 N 
HETATM    8  H   UNL     1      43.321 -28.134   3.069  1.00  0.00     0.168 HD
BRANCH   7   9
HETATM    9  C   UNL     1      42.413 -29.973   2.793  1.00  0.00     0.036 A 
HETATM   10  C   UNL     1      41.744 -30.160   4.015  1.00  0.00     0.061 A 
HETATM   11  C   UNL     1      40.692 -31.048   4.032  1.00  0.00     0.065 A 
HETATM   12  C   UNL     1      40.295 -31.750   2.899  1.00  0.00     0.063 A 
HETATM   13  N   UNL     1      39.867 -31.433   5.083  1.00  0.00    -0.306 N 
HETATM   14  N   UNL     1      39.230 -32.571   3.251  1.00  0.00    -0.307 N 
HETATM   15  C   UNL     1      40.928 -31.602   1.692  1.00  0.00     0.034 A 
HETATM   16  C   UNL     1      38.952 -32.387   4.613  1.00  0.00     0.325 A 
HETATM   17  H   UNL     1      38.729 -33.213   2.660  1.00  0.00     0.170 HD
HETATM   18  O   UNL     1      38.090 -32.950   5.263  1.00  0.00    -0.247 OA
HETATM   19  C   UNL     1      42.006 -30.703   1.650  1.00  0.00     0.032 A 
HETATM   20  H   UNL     1      39.899 -31.116   6.039  1.00  0.00     0.170 HD
ENDBRANCH   7   9
ENDBRANCH   5   7
ENDBRANCH   2   5
BRANCH   1  21
HETATM   21  C   UNL     1      47.179 -28.480   0.335  1.00  0.00     0.032 A 
HETATM   22  C   UNL     1      46.181 -28.013  -0.529  1.00  0.00     0.053 A 
HETATM   23  C   UNL     1      46.304 -28.214  -1.898  1.00  0.00     0.072 A 
HETATM   24  C   UNL     1      47.420 -28.881  -2.400  1.00  0.00     0.073 A 
HETATM   25  C   UNL     1      48.439 -29.316  -1.547  1.00  0.00     0.072 A 
HETATM   26  C   UNL     1      48.311 -29.129  -0.169  1.00  0.00     0.053 A 
BRANCH  23  27
HETATM   27  O   UNL     1      45.337 -27.868  -2.798  1.00  0.00    -0.351 OA
BRANCH  27  28
HETATM   28  C   UNL     1      45.153 -28.801  -3.868  1.00  0.00     0.171 C 
HETATM   29  C   UNL     1      43.789 -29.460  -3.752  1.00  0.00     0.034 C 
ENDBRANCH  27  28
ENDBRANCH  23  27
BRANCH  25  30
HETATM   30  O   UNL     1      49.492 -29.908  -2.187  1.00  0.00    -0.351 OA
BRANCH  30  31
HETATM   31  C   UNL     1      50.548 -30.429  -1.380  1.00  0.00     0.171 C 
HETATM   32  C   UNL     1      51.721 -30.735  -2.295  1.00  0.00     0.034 C 
ENDBRANCH  30  31
ENDBRANCH  25  30
ENDBRANCH   1  21
TORSDOF 8
ENDMDL
MODEL 5
REMARK VINA RESULT:      -7.2     15.267     17.377
REMARK  8 active torsions:
REMARK  status: ('A' for Active; 'I' for Inactive)
REMARK    1  A    between atoms: C_2  and  O_3 
REMARK    2  A    between atoms: O_3  and  C_4 
REMARK    3  A    between atoms: C_6  and  O_7 
REMARK    4  A    between atoms: O_7  and  C_8 
REMARK    5  A    between atoms: C_11  and  C_12 
REMARK       I    between atoms: C_12  and  N_13 
REMARK    6  A    between atoms: N_13  and  C_14 
REMARK    7  A    between atoms: C_14  and  N_15 
REMARK    8  A    between atoms: N_15  and  C_16 
ROOT
HETATM    1  C   UNL     1      46.970 -28.267   1.785  1.00  0.00     0.237 C 
HETATM    2  N   UNL     1      45.614 -28.289   2.058  1.00  0.00    -0.201 NA
HETATM    3  O   UNL     1      47.774 -27.705   2.521  1.00  0.00    -0.274 OA
HETATM    4  H   UNL     1      45.415 -27.486   2.646  1.00  0.00     0.139 HD
ENDROOT
BRANCH   2   5
HETATM    5  C   UNL     1      44.903 -29.333   2.608  1.00  0.00     0.157 C 
HETATM    6  S   UNL     1      45.526 -30.794   3.128  1.00  0.00    -0.047 SA
BRANCH   5   7
HETATM    7  N   UNL     1      43.568 -29.098   2.827  1.00  0.00    -0.337 N 
HETATM    8  H   UNL     1      43.380 -28.148   3.133  1.00  0.00     0.168 HD
BRANCH   7   9
HETATM    9  C   UNL     1      42.452 -29.967   2.799  1.00  0.00     0.036 A 
HETATM   10  C   UNL     1      41.783 -30.166   4.019  1.00  0.00     0.061 A 
HETATM   11  C   UNL     1      40.724 -31.047   4.024  1.00  0.00     0.065 A 
HETATM   12  C   UNL     1      40.321 -31.731   2.882  1.00  0.00     0.063 A 
HETATM   13  N   UNL     1      39.897 -31.441   5.071  1.00  0.00    -0.306 N 
HETATM   14  N   UNL     1      39.251 -32.548   3.224  1.00  0.00    -0.307 N 
HETATM   15  C   UNL     1      40.954 -31.570   1.677  1.00  0.00     0.034 A 
HETATM   16  C   UNL     1      38.975 -32.382   4.588  1.00  0.00     0.325 A 
HETATM   17  H   UNL     1      38.744 -33.179   2.625  1.00  0.00     0.170 HD
HETATM   18  O   UNL     1      38.110 -32.947   5.231  1.00  0.00    -0.247 OA
HETATM   19  C   UNL     1      42.038 -30.679   1.646  1.00  0.00     0.032 A 
HETATM   20  H   UNL     1      39.933 -31.138   6.031  1.00  0.00     0.170 HD
ENDBRANCH   7   9
ENDBRANCH   5   7
ENDBRANCH   2   5
BRANCH   1  21
HETATM   21  C   UNL     1      47.341 -28.616   0.392  1.00  0.00     0.032 A 
HETATM   22  C   UNL     1      48.620 -29.155   0.208  1.00  0.00     0.053 A 
HETATM   23  C   UNL     1      49.068 -29.446  -1.074  1.00  0.00     0.072 A 
HETATM   24  C   UNL     1      48.241 -29.195  -2.168  1.00  0.00     0.073 A 
HETATM   25  C   UNL     1      46.949 -28.693  -1.989  1.00  0.00     0.072 A 
HETATM   26  C   UNL     1      46.501 -28.386  -0.702  1.00  0.00     0.053 A 
BRANCH  23  27
HETATM   27  O   UNL     1      50.330 -29.891  -1.346  1.00  0.00    -0.351 OA
BRANCH  27  28
HETATM   28  C   UNL     1      50.392 -31.009  -2.238  1.00  0.00     0.171 C 
HETATM   29  C   UNL     1      51.838 -31.313  -2.590  1.00  0.00     0.034 C 
ENDBRANCH  27  28
ENDBRANCH  23  27
BRANCH  25  30
HETATM   30  O   UNL     1      46.238 -28.547  -3.147  1.00  0.00    -0.351 OA
BRANCH  30  31
HETATM   31  C   UNL     1      44.846 -28.251  -3.036  1.00  0.00     0.171 C 
HETATM   32  C   UNL     1      44.082 -29.340  -3.768  1.00  0.00     0.034 C 
ENDBRANCH  30  31
ENDBRANCH  25  30
ENDBRANCH   1  21
TORSDOF 8
ENDMDL
MODEL 6
REMARK VINA RESULT:      -7.1      2.571      4.727
REMARK  8 active torsions:
REMARK  status: ('A' for Active; 'I' for Inactive)
REMARK    1  A    between atoms: C_2  and  O_3 
REMARK    2  A    between atoms: O_3  and  C_4 
REMARK    3  A    between atoms: C_6  and  O_7 
REMARK    4  A    between atoms: O_7  and  C_8 
REMARK    5  A    between atoms: C_11  and  C_12 
REMARK       I    between atoms: C_12  and  N_13 
REMARK    6  A    between atoms: N_13  and  C_14 
REMARK    7  A    between atoms: C_14  and  N_15 
REMARK    8  A    between atoms: N_15  and  C_16 
ROOT
HETATM    1  C   UNL     1      42.935 -14.981   6.415  1.00  0.00     0.237 C 
HETATM    2  N   UNL     1      43.972 -14.073   6.296  1.00  0.00    -0.201 NA
HETATM    3  O   UNL     1      42.541 -15.380   7.504  1.00  0.00    -0.274 OA
HETATM    4  H   UNL     1      44.538 -14.154   7.135  1.00  0.00     0.139 HD
ENDROOT
BRANCH   2   5
HETATM    5  C   UNL     1      43.858 -12.721   6.059  1.00  0.00     0.157 C 
HETATM    6  S   UNL     1      42.593 -11.951   5.283  1.00  0.00    -0.047 SA
BRANCH   5   7
HETATM    7  N   UNL     1      44.843 -11.933   6.601  1.00  0.00    -0.337 N 
HETATM    8  H   UNL     1      45.733 -12.030   6.121  1.00  0.00     0.168 HD
BRANCH   7   9
HETATM    9  C   UNL     1      44.852 -11.108   7.750  1.00  0.00     0.036 A 
HETATM   10  C   UNL     1      43.863 -11.369   8.715  1.00  0.00     0.061 A 
HETATM   11  C   UNL     1      43.823 -10.547   9.819  1.00  0.00     0.065 A 
HETATM   12  C   UNL     1      44.708  -9.488   9.989  1.00  0.00     0.063 A 
HETATM   13  N   UNL     1      42.961 -10.563  10.911  1.00  0.00    -0.306 N 
HETATM   14  N   UNL     1      44.391  -8.848  11.181  1.00  0.00    -0.307 N 
HETATM   15  C   UNL     1      45.678  -9.195   9.066  1.00  0.00     0.034 A 
HETATM   16  C   UNL     1      43.300  -9.504  11.768  1.00  0.00     0.325 A 
HETATM   17  H   UNL     1      44.836  -8.038  11.580  1.00  0.00     0.170 HD
HETATM   18  O   UNL     1      42.750  -9.212  12.813  1.00  0.00    -0.247 OA
HETATM   19  C   UNL     1      45.740 -10.019   7.931  1.00  0.00     0.032 A 
HETATM   20  H   UNL     1      42.200 -11.198  11.086  1.00  0.00     0.170 HD
ENDBRANCH   7   9
ENDBRANCH   5   7
ENDBRANCH   2   5
BRANCH   1  21
HETATM   21  C   UNL     1      42.595 -15.719   5.174  1.00  0.00     0.032 A 
HETATM   22  C   UNL     1      43.507 -16.701   4.769  1.00  0.00     0.053 A 
HETATM   23  C   UNL     1      43.295 -17.390   3.581  1.00  0.00     0.072 A 
HETATM   24  C   UNL     1      42.177 -17.096   2.802  1.00  0.00     0.073 A 
HETATM   25  C   UNL     1      41.243 -16.144   3.220  1.00  0.00     0.072 A 
HETATM   26  C   UNL     1      41.460 -15.439   4.406  1.00  0.00     0.053 A 
BRANCH  23  27
HETATM   27  O   UNL     1      44.179 -18.299   3.072  1.00  0.00    -0.351 OA
BRANCH  27  28
HETATM   28  C   UNL     1      43.812 -19.668   3.272  1.00  0.00     0.171 C 
HETATM   29  C   UNL     1      43.586 -20.346   1.932  1.00  0.00     0.034 C 
ENDBRANCH  27  28
ENDBRANCH  23  27
BRANCH  25  30
HETATM   30  O   UNL     1      40.174 -16.000   2.380  1.00  0.00    -0.351 OA
BRANCH  30  31
HETATM   31  C   UNL     1      39.959 -14.715   1.798  1.00  0.00     0.171 C 
HETATM   32  C   UNL     1      40.193 -14.840   0.302  1.00  0.00     0.034 C 
ENDBRANCH  30  31
ENDBRANCH  25  30
ENDBRANCH   1  21
TORSDOF 8
ENDMDL
MODEL 7
REMARK VINA RESULT:      -7.1      2.280      4.572
REMARK  8 active torsions:
REMARK  status: ('A' for Active; 'I' for Inactive)
REMARK    1  A    between atoms: C_2  and  O_3 
REMARK    2  A    between atoms: O_3  and  C_4 
REMARK    3  A    between atoms: C_6  and  O_7 
REMARK    4  A    between atoms: O_7  and  C_8 
REMARK    5  A    between atoms: C_11  and  C_12 
REMARK       I    between atoms: C_12  and  N_13 
REMARK    6  A    between atoms: N_13  and  C_14 
REMARK    7  A    between atoms: C_14  and  N_15 
REMARK    8  A    between atoms: N_15  and  C_16 
ROOT
HETATM    1  C   UNL     1      42.623 -15.399   5.859  1.00  0.00     0.237 C 
HETATM    2  N   UNL     1      43.450 -14.290   5.839  1.00  0.00    -0.201 NA
HETATM    3  O   UNL     1      42.130 -15.826   6.897  1.00  0.00    -0.274 OA
HETATM    4  H   UNL     1      43.857 -14.205   6.766  1.00  0.00     0.139 HD
ENDROOT
BRANCH   2   5
HETATM    5  C   UNL     1      43.100 -13.010   5.473  1.00  0.00     0.157 C 
HETATM    6  S   UNL     1      41.602 -12.507   4.927  1.00  0.00    -0.047 SA
BRANCH   5   7
HETATM    7  N   UNL     1      44.059 -12.047   5.668  1.00  0.00    -0.337 N 
HETATM    8  H   UNL     1      44.584 -11.837   4.824  1.00  0.00     0.168 HD
BRANCH   7   9
HETATM    9  C   UNL     1      44.496 -11.391   6.843  1.00  0.00     0.036 A 
HETATM   10  C   UNL     1      43.527 -11.179   7.839  1.00  0.00     0.061 A 
HETATM   11  C   UNL     1      43.920 -10.497   8.970  1.00  0.00     0.065 A 
HETATM   12  C   UNL     1      45.216 -10.021   9.137  1.00  0.00     0.063 A 
HETATM   13  N   UNL     1      43.185 -10.141  10.096  1.00  0.00    -0.306 N 
HETATM   14  N   UNL     1      45.280  -9.367  10.362  1.00  0.00    -0.307 N 
HETATM   15  C   UNL     1      46.185 -10.199   8.185  1.00  0.00     0.034 A 
HETATM   16  C   UNL     1      44.019  -9.430  10.972  1.00  0.00     0.325 A 
HETATM   17  H   UNL     1      46.074  -8.901  10.768  1.00  0.00     0.170 HD
HETATM   18  O   UNL     1      43.706  -8.956  12.048  1.00  0.00    -0.247 OA
HETATM   19  C   UNL     1      45.809 -10.890   7.022  1.00  0.00     0.032 A 
HETATM   20  H   UNL     1      42.213 -10.328  10.281  1.00  0.00     0.170 HD
ENDBRANCH   7   9
ENDBRANCH   5   7
ENDBRANCH   2   5
BRANCH   1  21
HETATM   21  C   UNL     1      42.679 -16.251   4.646  1.00  0.00     0.032 A 
HETATM   22  C   UNL     1      41.735 -15.971   3.650  1.00  0.00     0.053 A 
HETATM   23  C   UNL     1      41.677 -16.767   2.512  1.00  0.00     0.072 A 
HETATM   24  C   UNL     1      42.558 -17.838   2.373  1.00  0.00     0.073 A 
HETATM   25  C   UNL     1      43.529 -18.099   3.345  1.00  0.00     0.072 A 
HETATM   26  C   UNL     1      43.580 -17.310   4.497  1.00  0.00     0.053 A 
BRANCH  23  27
HETATM   27  O   UNL     1      40.733 -16.616   1.537  1.00  0.00    -0.351 OA
BRANCH  27  28
HETATM   28  C   UNL     1      39.994 -15.392   1.603  1.00  0.00     0.171 C 
HETATM   29  C   UNL     1      40.230 -14.576   0.344  1.00  0.00     0.034 C 
ENDBRANCH  27  28
ENDBRANCH  23  27
BRANCH  25  30
HETATM   30  O   UNL     1      44.354 -19.148   3.048  1.00  0.00    -0.351 OA
BRANCH  30  31
HETATM   31  C   UNL     1      43.790 -20.459   3.071  1.00  0.00     0.171 C 
HETATM   32  C   UNL     1      43.894 -20.982   4.493  1.00  0.00     0.034 C 
ENDBRANCH  30  31
ENDBRANCH  25  30
ENDBRANCH   1  21
TORSDOF 8
ENDMDL
MODEL 8
REMARK VINA RESULT:      -7.0      2.469      5.101
REMARK  8 active torsions:
REMARK  status: ('A' for Active; 'I' for Inactive)
REMARK    1  A    between atoms: C_2  and  O_3 
REMARK    2  A    between atoms: O_3  and  C_4 
REMARK    3  A    between atoms: C_6  and  O_7 
REMARK    4  A    between atoms: O_7  and  C_8 
REMARK    5  A    between atoms: C_11  and  C_12 
REMARK       I    between atoms: C_12  and  N_13 
REMARK    6  A    between atoms: N_13  and  C_14 
REMARK    7  A    between atoms: C_14  and  N_15 
REMARK    8  A    between atoms: N_15  and  C_16 
ROOT
HETATM    1  C   UNL     1      41.924 -15.643   6.359  1.00  0.00     0.237 C 
HETATM    2  N   UNL     1      42.937 -14.817   6.814  1.00  0.00    -0.201 NA
HETATM    3  O   UNL     1      41.083 -16.117   7.113  1.00  0.00    -0.274 OA
HETATM    4  H   UNL     1      43.078 -15.031   7.796  1.00  0.00     0.139 HD
ENDROOT
BRANCH   2   5
HETATM    5  C   UNL     1      42.979 -13.443   6.727  1.00  0.00     0.157 C 
HETATM    6  S   UNL     1      44.349 -12.486   6.769  1.00  0.00    -0.047 SA
BRANCH   5   7
HETATM    7  N   UNL     1      41.778 -12.821   6.492  1.00  0.00    -0.337 N 
HETATM    8  H   UNL     1      41.194 -12.767   7.321  1.00  0.00     0.168 HD
BRANCH   7   9
HETATM    9  C   UNL     1      41.192 -12.347   5.295  1.00  0.00     0.036 A 
HETATM   10  C   UNL     1      42.063 -12.138   4.211  1.00  0.00     0.061 A 
HETATM   11  C   UNL     1      41.520 -11.630   3.052  1.00  0.00     0.065 A 
HETATM   12  C   UNL     1      40.170 -11.320   2.937  1.00  0.00     0.063 A 
HETATM   13  N   UNL     1      42.134 -11.317   1.844  1.00  0.00    -0.306 N 
HETATM   14  N   UNL     1      39.950 -10.813   1.662  1.00  0.00    -0.307 N 
HETATM   15  C   UNL     1      39.291 -11.501   3.974  1.00  0.00     0.034 A 
HETATM   16  C   UNL     1      41.167 -10.801   0.967  1.00  0.00     0.325 A 
HETATM   17  H   UNL     1      39.081 -10.484   1.273  1.00  0.00     0.170 HD
HETATM   18  O   UNL     1      41.352 -10.414  -0.172  1.00  0.00    -0.247 OA
HETATM   19  C   UNL     1      39.820 -12.017   5.168  1.00  0.00     0.032 A 
HETATM   20  H   UNL     1      43.107 -11.414   1.604  1.00  0.00     0.170 HD
ENDBRANCH   7   9
ENDBRANCH   5   7
ENDBRANCH   2   5
BRANCH   1  21
HETATM   21  C   UNL     1      42.136 -16.219   5.009  1.00  0.00     0.032 A 
HETATM   22  C   UNL     1      41.230 -15.822   4.018  1.00  0.00     0.053 A 
HETATM   23  C   UNL     1      41.319 -16.369   2.743  1.00  0.00     0.072 A 
HETATM   24  C   UNL     1      42.309 -17.310   2.463  1.00  0.00     0.073 A 
HETATM   25  C   UNL     1      43.241 -17.681   3.438  1.00  0.00     0.072 A 
HETATM   26  C   UNL     1      43.144 -17.144   4.723  1.00  0.00     0.053 A 
BRANCH  23  27
HETATM   27  O   UNL     1      40.424 -16.102   1.747  1.00  0.00    -0.351 OA
BRANCH  27  28
HETATM   28  C   UNL     1      40.042 -14.727   1.637  1.00  0.00     0.171 C 
HETATM   29  C   UNL     1      40.038 -14.305   0.179  1.00  0.00     0.034 C 
ENDBRANCH  27  28
ENDBRANCH  23  27
BRANCH  25  30
HETATM   30  O   UNL     1      44.182 -18.573   3.003  1.00  0.00    -0.351 OA
BRANCH  30  31
HETATM   31  C   UNL     1      43.889 -19.962   3.141  1.00  0.00     0.171 C 
HETATM   32  C   UNL     1      43.685 -20.533   1.748  1.00  0.00     0.034 C 
ENDBRANCH  30  31
ENDBRANCH  25  30
ENDBRANCH   1  21
TORSDOF 8
ENDMDL
MODEL 9
REMARK VINA RESULT:      -6.8      2.398      4.942
REMARK  8 active torsions:
REMARK  status: ('A' for Active; 'I' for Inactive)
REMARK    1  A    between atoms: C_2  and  O_3 
REMARK    2  A    between atoms: O_3  and  C_4 
REMARK    3  A    between atoms: C_6  and  O_7 
REMARK    4  A    between atoms: O_7  and  C_8 
REMARK    5  A    between atoms: C_11  and  C_12 
REMARK       I    between atoms: C_12  and  N_13 
REMARK    6  A    between atoms: N_13  and  C_14 
REMARK    7  A    between atoms: C_14  and  N_15 
REMARK    8  A    between atoms: N_15  and  C_16 
ROOT
HETATM    1  C   UNL     1      41.676 -15.573   6.336  1.00  0.00     0.237 C 
HETATM    2  N   UNL     1      42.708 -14.768   6.784  1.00  0.00    -0.201 NA
HETATM    3  O   UNL     1      40.777 -15.952   7.078  1.00  0.00    -0.274 OA
HETATM    4  H   UNL     1      42.792 -14.919   7.785  1.00  0.00     0.139 HD
ENDROOT
BRANCH   2   5
HETATM    5  C   UNL     1      42.826 -13.407   6.608  1.00  0.00     0.157 C 
HETATM    6  S   UNL     1      44.211 -12.494   6.812  1.00  0.00    -0.047 SA
BRANCH   5   7
HETATM    7  N   UNL     1      41.709 -12.766   6.130  1.00  0.00    -0.337 N 
HETATM    8  H   UNL     1      40.983 -12.662   6.834  1.00  0.00     0.168 HD
BRANCH   7   9
HETATM    9  C   UNL     1      41.368 -12.332   4.828  1.00  0.00     0.036 A 
HETATM   10  C   UNL     1      40.033 -12.526   4.432  1.00  0.00     0.061 A 
HETATM   11  C   UNL     1      39.693 -12.156   3.150  1.00  0.00     0.065 A 
HETATM   12  C   UNL     1      40.617 -11.618   2.261  1.00  0.00     0.063 A 
HETATM   13  N   UNL     1      38.469 -12.239   2.494  1.00  0.00    -0.306 N 
HETATM   14  N   UNL     1      39.968 -11.374   1.058  1.00  0.00    -0.307 N 
HETATM   15  C   UNL     1      41.930 -11.423   2.607  1.00  0.00     0.034 A 
HETATM   16  C   UNL     1      38.626 -11.760   1.185  1.00  0.00     0.325 A 
HETATM   17  H   UNL     1      40.364 -11.001   0.211  1.00  0.00     0.170 HD
HETATM   18  O   UNL     1      37.765 -11.697   0.326  1.00  0.00    -0.247 OA
HETATM   19  C   UNL     1      42.303 -11.794   3.909  1.00  0.00     0.032 A 
HETATM   20  H   UNL     1      37.599 -12.593   2.857  1.00  0.00     0.170 HD
ENDBRANCH   7   9
ENDBRANCH   5   7
ENDBRANCH   2   5
BRANCH   1  21
HETATM   21  C   UNL     1      41.921 -16.251   5.040  1.00  0.00     0.032 A 
HETATM   22  C   UNL     1      42.973 -17.175   5.013  1.00  0.00     0.053 A 
HETATM   23  C   UNL     1      43.309 -17.803   3.820  1.00  0.00     0.072 A 
HETATM   24  C   UNL     1      42.597 -17.506   2.659  1.00  0.00     0.073 A 
HETATM   25  C   UNL     1      41.521 -16.614   2.687  1.00  0.00     0.072 A 
HETATM   26  C   UNL     1      41.190 -15.970   3.881  1.00  0.00     0.053 A 
BRANCH  23  27
HETATM   27  O   UNL     1      44.374 -18.648   3.690  1.00  0.00    -0.351 OA
BRANCH  27  28
HETATM   28  C   UNL     1      44.032 -19.990   3.330  1.00  0.00     0.171 C 
HETATM   29  C   UNL     1      43.998 -20.867   4.570  1.00  0.00     0.034 C 
ENDBRANCH  27  28
ENDBRANCH  23  27
BRANCH  25  30
HETATM   30  O   UNL     1      40.887 -16.461   1.485  1.00  0.00    -0.351 OA
BRANCH  30  31
HETATM   31  C   UNL     1      39.945 -15.396   1.365  1.00  0.00     0.171 C 
HETATM   32  C   UNL     1      40.063 -14.831  -0.040  1.00  0.00     0.034 C 
ENDBRANCH  30  31
ENDBRANCH  25  30
ENDBRANCH   1  21
TORSDOF 8
ENDMDL
MODEL 10
REMARK VINA RESULT:      -6.8      3.598      5.474
REMARK  8 active torsions:
REMARK  status: ('A' for Active; 'I' for Inactive)
REMARK    1  A    between atoms: C_2  and  O_3 
REMARK    2  A    between atoms: O_3  and  C_4 
REMARK    3  A    between atoms: C_6  and  O_7 
REMARK    4  A    between atoms: O_7  and  C_8 
REMARK    5  A    between atoms: C_11  and  C_12 
REMARK       I    between atoms: C_12  and  N_13 
REMARK    6  A    between atoms: N_13  and  C_14 
REMARK    7  A    between atoms: C_14  and  N_15 
REMARK    8  A    between atoms: N_15  and  C_16 
ROOT
HETATM    1  C   UNL     1      40.013 -15.345   2.197  1.00  0.00     0.237 C 
HETATM    2  N   UNL     1      39.190 -14.388   2.763  1.00  0.00    -0.201 NA
HETATM    3  O   UNL     1      39.623 -16.099   1.312  1.00  0.00    -0.274 OA
HETATM    4  H   UNL     1      38.233 -14.703   2.634  1.00  0.00     0.139 HD
ENDROOT
BRANCH   2   5
HETATM    5  C   UNL     1      39.175 -13.042   2.473  1.00  0.00     0.157 C 
HETATM    6  S   UNL     1      39.804 -11.815   3.419  1.00  0.00    -0.047 SA
BRANCH   5   7
HETATM    7  N   UNL     1      38.673 -12.699   1.242  1.00  0.00    -0.337 N 
HETATM    8  H   UNL     1      37.658 -12.745   1.204  1.00  0.00     0.168 HD
BRANCH   7   9
HETATM    9  C   UNL     1      39.321 -12.401   0.020  1.00  0.00     0.036 A 
HETATM   10  C   UNL     1      39.389 -11.043  -0.338  1.00  0.00     0.061 A 
HETATM   11  C   UNL     1      39.971 -10.735  -1.547  1.00  0.00     0.065 A 
HETATM   12  C   UNL     1      40.471 -11.713  -2.401  1.00  0.00     0.063 A 
HETATM   13  N   UNL     1      40.164  -9.499  -2.154  1.00  0.00    -0.306 N 
HETATM   14  N   UNL     1      40.968 -11.082  -3.535  1.00  0.00    -0.307 N 
HETATM   15  C   UNL     1      40.415 -13.047  -2.091  1.00  0.00     0.034 A 
HETATM   16  C   UNL     1      40.780  -9.699  -3.399  1.00  0.00     0.325 A 
HETATM   17  H   UNL     1      41.383 -11.512  -4.345  1.00  0.00     0.170 HD
HETATM   18  O   UNL     1      41.087  -8.840  -4.204  1.00  0.00    -0.247 OA
HETATM   19  C   UNL     1      39.824 -13.387  -0.864  1.00  0.00     0.032 A 
HETATM   20  H   UNL     1      39.904  -8.593  -1.801  1.00  0.00     0.170 HD
ENDBRANCH   7   9
ENDBRANCH   5   7
ENDBRANCH   2   5
BRANCH   1  21
HETATM   21  C   UNL     1      41.240 -15.661   2.968  1.00  0.00     0.032 A 
HETATM   22  C   UNL     1      41.914 -16.834   2.607  1.00  0.00     0.053 A 
HETATM   23  C   UNL     1      43.033 -17.235   3.325  1.00  0.00     0.072 A 
HETATM   24  C   UNL     1      43.475 -16.467   4.402  1.00  0.00     0.073 A 
HETATM   25  C   UNL     1      42.830 -15.275   4.743  1.00  0.00     0.072 A 
HETATM   26  C   UNL     1      41.695 -14.877   4.033  1.00  0.00     0.053 A 
BRANCH  23  27
HETATM   27  O   UNL     1      43.694 -18.408   3.094  1.00  0.00    -0.351 OA
BRANCH  27  28
HETATM   28  C   UNL     1      43.014 -19.316   2.222  1.00  0.00     0.171 C 
HETATM   29  C   UNL     1      43.913 -20.496   1.897  1.00  0.00     0.034 C 
ENDBRANCH  27  28
ENDBRANCH  23  27
BRANCH  25  30
HETATM   30  O   UNL     1      43.406 -14.604   5.786  1.00  0.00    -0.351 OA
BRANCH  30  31
HETATM   31  C   UNL     1      43.243 -13.187   5.831  1.00  0.00     0.171 C 
HETATM   32  C   UNL     1      44.379 -12.617   6.663  1.00  0.00     0.034 C 
ENDBRANCH  30  31
ENDBRANCH  25  30
ENDBRANCH   1  21
TORSDOF 8
ENDMDL
