MODEL 1
REMARK VINA RESULT:      -8.5      0.000      0.000
REMARK  10 active torsions:
REMARK  status: ('A' for Active; 'I' for Inactive)
REMARK    1  A    between atoms: C_2  and  N_3 
REMARK    2  A    between atoms: N_3  and  C_4 
REMARK    3  A    between atoms: N_3  and  C_37 
REMARK    4  A    between atoms: C_7  and  C_8 
REMARK    5  A    between atoms: N_9  and  C_11 
REMARK    6  A    between atoms: C_11  and  C_12 
REMARK       I    between atoms: C_12  and  N_13 
REMARK    7  A    between atoms: N_13  and  C_14 
REMARK    8  A    between atoms: C_20  and  C_21 
REMARK    9  A    between atoms: C_21  and  O_22 
REMARK   10  A    between atoms: C_28  and  O_29 
ROOT
HETATM    1  C   UNL     1      41.694 -12.962   2.889  1.00  0.00     0.228 C 
HETATM    2  N   UNL     1      40.928 -12.430   4.122  1.00  0.00    -0.054 N 
HETATM    3  H   UNL     1      41.395 -12.892   4.917  1.00  0.00     0.281 HD
HETATM    4  C   UNL     1      39.457 -12.784   4.132  1.00  0.00     0.239 C 
HETATM    5  C   UNL     1      38.760 -12.295   2.874  1.00  0.00     0.066 C 
HETATM    6  C   UNL     1      39.443 -12.824   1.605  1.00  0.00     0.065 C 
HETATM    7  C   UNL     1      40.941 -12.445   1.614  1.00  0.00     0.055 C 
HETATM    8  C   UNL     1      38.716 -12.260   0.368  1.00  0.00     0.038 C 
HETATM    9  C   UNL     1      39.431 -12.566  -0.947  1.00  0.00     0.003 C 
HETATM   10  C   UNL     1      40.891 -12.134  -0.902  1.00  0.00     0.001 C 
HETATM   11  C   UNL     1      41.616 -12.785   0.273  1.00  0.00     0.010 C 
ENDROOT
BRANCH   2  12
HETATM   12  C   UNL     1      41.133 -10.934   4.412  1.00  0.00     0.338 C 
BRANCH  12  13
HETATM   13  C   UNL     1      41.208 -10.579   5.896  1.00  0.00     0.248 C 
HETATM   14  N   UNL     1      42.432 -10.035   6.228  1.00  0.00    -0.319 N 
HETATM   15  H   UNL     1      43.166  -9.986   5.518  1.00  0.00     0.169 HD
HETATM   16  O   UNL     1      40.238 -10.807   6.612  1.00  0.00    -0.271 OA
BRANCH  14  17
HETATM   17  C   UNL     1      42.851  -9.547   7.459  1.00  0.00     0.094 A 
HETATM   18  S   UNL     1      42.108  -8.218   8.183  1.00  0.00    -0.076 SA
HETATM   19  C   UNL     1      43.176  -8.249   9.514  1.00  0.00    -0.012 A 
HETATM   20  C   UNL     1      43.027  -7.214  10.584  1.00  0.00     0.057 C 
HETATM   21  C   UNL     1      44.083  -9.298   9.436  1.00  0.00    -0.030 A 
HETATM   22  C   UNL     1      45.111  -9.598  10.488  1.00  0.00     0.050 C 
HETATM   23  C   UNL     1      43.910 -10.054   8.205  1.00  0.00     0.080 A 
BRANCH  23  24
HETATM   24  C   UNL     1      44.683 -11.209   7.722  1.00  0.00     0.296 C 
HETATM   25  O   UNL     1      45.840 -11.085   7.322  1.00  0.00    -0.259 OA
BRANCH  24  26
HETATM   26  O   UNL     1      44.011 -12.388   7.776  1.00  0.00    -0.322 OA
HETATM   27  C   UNL     1      43.982 -13.156   6.571  1.00  0.00     0.213 C 
ENDBRANCH  24  26
ENDBRANCH  23  24
ENDBRANCH  14  17
ENDBRANCH  12  13
ENDBRANCH   2  12
BRANCH   1  28
HETATM   28  C   UNL     1      42.035 -14.457   2.931  1.00  0.00    -0.027 C 
HETATM   29  C   UNL     1      42.697 -15.158   1.920  1.00  0.00     0.011 C 
HETATM   30  C   UNL     1      43.170 -16.468   2.119  1.00  0.00     0.030 C 
HETATM   31  C   UNL     1      43.001 -17.156   3.324  1.00  0.00     0.030 C 
HETATM   32  C   UNL     1      42.163 -16.520   4.248  1.00  0.00     0.030 C 
HETATM   33  C   UNL     1      41.677 -15.217   4.052  1.00  0.00     0.011 C 
BRANCH  31  34
HETATM   34  N   UNL     1      43.599 -18.388   3.590  1.00  0.00    -0.382 N 
BRANCH  34  35
HETATM   35  C   UNL     1      44.198 -18.630   4.917  1.00  0.00     0.118 C 
HETATM   36  C   UNL     1      43.897 -20.039   5.416  1.00  0.00     0.026 C 
ENDBRANCH  34  35
BRANCH  34  37
HETATM   37  C   UNL     1      44.152 -19.220   2.506  1.00  0.00     0.118 C 
HETATM   38  C   UNL     1      43.099 -20.178   1.971  1.00  0.00     0.026 C 
ENDBRANCH  34  37
ENDBRANCH  31  34
ENDBRANCH   1  28
BRANCH   6  39
HETATM   39  O   UNL     1      39.286 -14.239   1.633  1.00  0.00    -0.389 OA
HETATM   40  H   UNL     1      40.055 -14.677   1.226  1.00  0.00     0.210 HD
ENDBRANCH   6  39
TORSDOF 10
ENDMDL
MODEL 2
REMARK VINA RESULT:      -8.5      1.698      3.052
REMARK  10 active torsions:
REMARK  status: ('A' for Active; 'I' for Inactive)
REMARK    1  A    between atoms: C_2  and  N_3 
REMARK    2  A    between atoms: N_3  and  C_4 
REMARK    3  A    between atoms: N_3  and  C_37 
REMARK    4  A    between atoms: C_7  and  C_8 
REMARK    5  A    between atoms: N_9  and  C_11 
REMARK    6  A    between atoms: C_11  and  C_12 
REMARK       I    between atoms: C_12  and  N_13 
REMARK    7  A    between atoms: N_13  and  C_14 
REMARK    8  A    between atoms: C_20  and  C_21 
REMARK    9  A    between atoms: C_21  and  O_22 
REMARK   10  A    between atoms: C_28  and  O_29 
ROOT
HETATM    1  C   UNL     1      42.746 -13.527   3.979  1.00  0.00     0.228 C 
HETATM    2  N   UNL     1      42.604 -13.047   5.442  1.00  0.00    -0.054 N 
HETATM    3  H   UNL     1      43.255 -13.656   5.962  1.00  0.00     0.281 HD
HETATM    4  C   UNL     1      41.210 -13.208   6.009  1.00  0.00     0.239 C 
HETATM    5  C   UNL     1      40.178 -12.490   5.155  1.00  0.00     0.066 C 
HETATM    6  C   UNL     1      40.232 -12.951   3.692  1.00  0.00     0.065 C 
HETATM    7  C   UNL     1      41.662 -12.772   3.134  1.00  0.00     0.055 C 
HETATM    8  C   UNL     1      39.194 -12.158   2.874  1.00  0.00     0.038 C 
HETATM    9  C   UNL     1      39.296 -12.398   1.369  1.00  0.00     0.003 C 
HETATM   10  C   UNL     1      40.713 -12.166   0.862  1.00  0.00     0.001 C 
HETATM   11  C   UNL     1      41.713 -13.038   1.619  1.00  0.00     0.010 C 
ENDROOT
BRANCH   2  12
HETATM   12  C   UNL     1      43.145 -11.635   5.714  1.00  0.00     0.338 C 
BRANCH  12  13
HETATM   13  C   UNL     1      43.296 -11.286   7.193  1.00  0.00     0.248 C 
HETATM   14  N   UNL     1      42.543 -10.182   7.536  1.00  0.00    -0.319 N 
HETATM   15  H   UNL     1      42.037  -9.676   6.805  1.00  0.00     0.169 HD
HETATM   16  O   UNL     1      44.036 -11.970   7.893  1.00  0.00    -0.271 OA
BRANCH  14  17
HETATM   17  C   UNL     1      42.385  -9.602   8.788  1.00  0.00     0.094 A 
HETATM   18  S   UNL     1      43.688  -9.401   9.839  1.00  0.00    -0.076 SA
HETATM   19  C   UNL     1      42.700  -8.729  11.058  1.00  0.00    -0.012 A 
HETATM   20  C   UNL     1      43.326  -8.332  12.357  1.00  0.00     0.057 C 
HETATM   21  C   UNL     1      41.375  -8.616  10.658  1.00  0.00    -0.030 A 
HETATM   22  C   UNL     1      40.291  -8.020  11.507  1.00  0.00     0.050 C 
HETATM   23  C   UNL     1      41.180  -9.158   9.321  1.00  0.00     0.080 A 
BRANCH  23  24
HETATM   24  C   UNL     1      39.933  -9.263   8.549  1.00  0.00     0.296 C 
HETATM   25  O   UNL     1      39.008  -9.986   8.918  1.00  0.00    -0.259 OA
BRANCH  24  26
HETATM   26  O   UNL     1      39.906  -8.495   7.430  1.00  0.00    -0.322 OA
HETATM   27  C   UNL     1      39.177  -9.018   6.317  1.00  0.00     0.213 C 
ENDBRANCH  24  26
ENDBRANCH  23  24
ENDBRANCH  14  17
ENDBRANCH  12  13
ENDBRANCH   2  12
BRANCH   1  28
HETATM   28  C   UNL     1      42.827 -15.048   3.799  1.00  0.00    -0.027 C 
HETATM   29  C   UNL     1      42.921 -15.706   2.570  1.00  0.00     0.011 C 
HETATM   30  C   UNL     1      43.213 -17.081   2.490  1.00  0.00     0.030 C 
HETATM   31  C   UNL     1      43.415 -17.876   3.622  1.00  0.00     0.030 C 
HETATM   32  C   UNL     1      43.118 -17.249   4.837  1.00  0.00     0.030 C 
HETATM   33  C   UNL     1      42.814 -15.880   4.925  1.00  0.00     0.011 C 
BRANCH  31  34
HETATM   34  N   UNL     1      43.859 -19.196   3.557  1.00  0.00    -0.382 N 
BRANCH  34  35
HETATM   35  C   UNL     1      43.145 -20.157   2.691  1.00  0.00     0.118 C 
HETATM   36  C   UNL     1      43.988 -20.552   1.484  1.00  0.00     0.026 C 
ENDBRANCH  34  35
BRANCH  34  37
HETATM   37  C   UNL     1      44.604 -19.810   4.671  1.00  0.00     0.118 C 
HETATM   38  C   UNL     1      43.817 -20.963   5.274  1.00  0.00     0.026 C 
ENDBRANCH  34  37
ENDBRANCH  31  34
ENDBRANCH   1  28
BRANCH   6  39
HETATM   39  O   UNL     1      39.867 -14.328   3.699  1.00  0.00    -0.389 OA
HETATM   40  H   UNL     1      39.021 -14.459   3.233  1.00  0.00     0.210 HD
ENDBRANCH   6  39
TORSDOF 10
ENDMDL
MODEL 3
REMARK VINA RESULT:      -8.4      1.641      2.347
REMARK  10 active torsions:
REMARK  status: ('A' for Active; 'I' for Inactive)
REMARK    1  A    between atoms: C_2  and  N_3 
REMARK    2  A    between atoms: N_3  and  C_4 
REMARK    3  A    between atoms: N_3  and  C_37 
REMARK    4  A    between atoms: C_7  and  C_8 
REMARK    5  A    between atoms: N_9  and  C_11 
REMARK    6  A    between atoms: C_11  and  C_12 
REMARK       I    between atoms: C_12  and  N_13 
REMARK    7  A    between atoms: N_13  and  C_14 
REMARK    8  A    between atoms: C_20  and  C_21 
REMARK    9  A    between atoms: C_21  and  O_22 
REMARK   10  A    between atoms: C_28  and  O_29 
ROOT
HETATM    1  C   UNL     1      42.851 -13.400   4.243  1.00  0.00     0.228 C 
HETATM    2  N   UNL     1      42.652 -12.970   5.715  1.00  0.00    -0.054 N 
HETATM    3  H   UNL     1      43.262 -13.614   6.241  1.00  0.00     0.281 HD
HETATM    4  C   UNL     1      41.229 -13.113   6.210  1.00  0.00     0.239 C 
HETATM    5  C   UNL     1      40.258 -12.337   5.337  1.00  0.00     0.066 C 
HETATM    6  C   UNL     1      40.369 -12.747   3.862  1.00  0.00     0.065 C 
HETATM    7  C   UNL     1      41.827 -12.586   3.378  1.00  0.00     0.055 C 
HETATM    8  C   UNL     1      39.390 -11.897   3.027  1.00  0.00     0.038 C 
HETATM    9  C   UNL     1      39.558 -12.085   1.520  1.00  0.00     0.003 C 
HETATM   10  C   UNL     1      41.002 -11.873   1.088  1.00  0.00     0.001 C 
HETATM   11  C   UNL     1      41.943 -12.798   1.857  1.00  0.00     0.010 C 
ENDROOT
BRANCH   2  12
HETATM   12  C   UNL     1      43.216 -11.583   6.063  1.00  0.00     0.338 C 
BRANCH  12  13
HETATM   13  C   UNL     1      43.269 -11.276   7.559  1.00  0.00     0.248 C 
HETATM   14  N   UNL     1      42.596 -10.111   7.865  1.00  0.00    -0.319 N 
HETATM   15  H   UNL     1      42.206  -9.546   7.106  1.00  0.00     0.169 HD
HETATM   16  O   UNL     1      43.876 -12.041   8.302  1.00  0.00    -0.271 OA
BRANCH  14  17
HETATM   17  C   UNL     1      42.385  -9.541   9.113  1.00  0.00     0.094 A 
HETATM   18  S   UNL     1      40.838  -9.140   9.652  1.00  0.00    -0.076 SA
HETATM   19  C   UNL     1      41.431  -8.500  11.119  1.00  0.00    -0.012 A 
HETATM   20  C   UNL     1      40.461  -7.921  12.099  1.00  0.00     0.057 C 
HETATM   21  C   UNL     1      42.810  -8.623  11.226  1.00  0.00    -0.030 A 
HETATM   22  C   UNL     1      43.600  -8.188  12.426  1.00  0.00     0.050 C 
HETATM   23  C   UNL     1      43.382  -9.216  10.026  1.00  0.00     0.080 A 
BRANCH  23  24
HETATM   24  C   UNL     1      44.796  -9.484   9.721  1.00  0.00     0.296 C 
HETATM   25  O   UNL     1      45.426 -10.360  10.313  1.00  0.00    -0.259 OA
BRANCH  24  26
HETATM   26  O   UNL     1      45.311  -8.697   8.742  1.00  0.00    -0.322 OA
HETATM   27  C   UNL     1      46.374  -9.260   7.969  1.00  0.00     0.213 C 
ENDBRANCH  24  26
ENDBRANCH  23  24
ENDBRANCH  14  17
ENDBRANCH  12  13
ENDBRANCH   2  12
BRANCH   1  28
HETATM   28  C   UNL     1      42.902 -14.915   4.010  1.00  0.00    -0.027 C 
HETATM   29  C   UNL     1      43.022 -15.531   2.762  1.00  0.00     0.011 C 
HETATM   30  C   UNL     1      43.284 -16.908   2.641  1.00  0.00     0.030 C 
HETATM   31  C   UNL     1      43.429 -17.748   3.749  1.00  0.00     0.030 C 
HETATM   32  C   UNL     1      43.106 -17.158   4.976  1.00  0.00     0.030 C 
HETATM   33  C   UNL     1      42.831 -15.786   5.104  1.00  0.00     0.011 C 
BRANCH  31  34
HETATM   34  N   UNL     1      43.843 -19.076   3.650  1.00  0.00    -0.382 N 
BRANCH  34  35
HETATM   35  C   UNL     1      44.541 -19.703   4.791  1.00  0.00     0.118 C 
HETATM   36  C   UNL     1      43.765 -20.898   5.331  1.00  0.00     0.026 C 
ENDBRANCH  34  35
BRANCH  34  37
HETATM   37  C   UNL     1      44.127 -19.695   2.343  1.00  0.00     0.118 C 
HETATM   38  C   UNL     1      42.886 -20.380   1.791  1.00  0.00     0.026 C 
ENDBRANCH  34  37
ENDBRANCH  31  34
ENDBRANCH   1  28
BRANCH   6  39
HETATM   39  O   UNL     1      39.970 -14.112   3.800  1.00  0.00    -0.389 OA
HETATM   40  H   UNL     1      39.109 -14.196   3.351  1.00  0.00     0.210 HD
ENDBRANCH   6  39
TORSDOF 10
ENDMDL
MODEL 4
REMARK VINA RESULT:      -7.8      1.744      2.275
REMARK  10 active torsions:
REMARK  status: ('A' for Active; 'I' for Inactive)
REMARK    1  A    between atoms: C_2  and  N_3 
REMARK    2  A    between atoms: N_3  and  C_4 
REMARK    3  A    between atoms: N_3  and  C_37 
REMARK    4  A    between atoms: C_7  and  C_8 
REMARK    5  A    between atoms: N_9  and  C_11 
REMARK    6  A    between atoms: C_11  and  C_12 
REMARK       I    between atoms: C_12  and  N_13 
REMARK    7  A    between atoms: N_13  and  C_14 
REMARK    8  A    between atoms: C_20  and  C_21 
REMARK    9  A    between atoms: C_21  and  O_22 
REMARK   10  A    between atoms: C_28  and  O_29 
ROOT
HETATM    1  C   UNL     1      40.765 -11.883   1.715  1.00  0.00     0.228 C 
HETATM    2  N   UNL     1      39.648 -11.444   2.691  1.00  0.00    -0.054 N 
HETATM    3  H   UNL     1      39.939 -11.852   3.593  1.00  0.00     0.281 HD
HETATM    4  C   UNL     1      38.275 -11.963   2.328  1.00  0.00     0.239 C 
HETATM    5  C   UNL     1      37.882 -11.553   0.919  1.00  0.00     0.066 C 
HETATM    6  C   UNL     1      38.927 -11.999  -0.114  1.00  0.00     0.065 C 
HETATM    7  C   UNL     1      40.319 -11.451   0.275  1.00  0.00     0.055 C 
HETATM    8  C   UNL     1      38.492 -11.518  -1.513  1.00  0.00     0.038 C 
HETATM    9  C   UNL     1      39.556 -11.737  -2.587  1.00  0.00     0.003 C 
HETATM   10  C   UNL     1      40.895 -11.142  -2.176  1.00  0.00     0.001 C 
HETATM   11  C   UNL     1      41.355 -11.710  -0.834  1.00  0.00     0.010 C 
ENDROOT
BRANCH   2  12
HETATM   12  C   UNL     1      39.604  -9.936   2.983  1.00  0.00     0.338 C 
BRANCH  12  13
HETATM   13  C   UNL     1      40.705  -9.436   3.916  1.00  0.00     0.248 C 
HETATM   14  N   UNL     1      40.946 -10.326   4.944  1.00  0.00    -0.319 N 
HETATM   15  H   UNL     1      40.355 -11.157   5.033  1.00  0.00     0.169 HD
HETATM   16  O   UNL     1      41.234  -8.353   3.687  1.00  0.00    -0.271 OA
BRANCH  14  17
HETATM   17  C   UNL     1      41.899 -10.243   5.949  1.00  0.00     0.094 A 
HETATM   18  S   UNL     1      41.653  -9.300   7.325  1.00  0.00    -0.076 SA
HETATM   19  C   UNL     1      43.192  -9.682   7.956  1.00  0.00    -0.012 A 
HETATM   20  C   UNL     1      43.608  -9.081   9.261  1.00  0.00     0.057 C 
HETATM   21  C   UNL     1      43.891 -10.564   7.142  1.00  0.00    -0.030 A 
HETATM   22  C   UNL     1      45.251 -11.108   7.467  1.00  0.00     0.050 C 
HETATM   23  C   UNL     1      43.137 -10.877   5.937  1.00  0.00     0.080 A 
BRANCH  23  24
HETATM   24  C   UNL     1      43.530 -11.735   4.807  1.00  0.00     0.296 C 
HETATM   25  O   UNL     1      43.831 -11.259   3.714  1.00  0.00    -0.259 OA
BRANCH  24  26
HETATM   26  O   UNL     1      43.537 -13.062   5.095  1.00  0.00    -0.322 OA
HETATM   27  C   UNL     1      42.306 -13.615   5.569  1.00  0.00     0.213 C 
ENDBRANCH  24  26
ENDBRANCH  23  24
ENDBRANCH  14  17
ENDBRANCH  12  13
ENDBRANCH   2  12
BRANCH   1  28
HETATM   28  C   UNL     1      41.245 -13.330   1.886  1.00  0.00    -0.027 C 
HETATM   29  C   UNL     1      42.526 -13.792   1.573  1.00  0.00     0.011 C 
HETATM   30  C   UNL     1      42.963 -15.072   1.959  1.00  0.00     0.030 C 
HETATM   31  C   UNL     1      42.151 -15.965   2.665  1.00  0.00     0.030 C 
HETATM   32  C   UNL     1      40.815 -15.567   2.789  1.00  0.00     0.030 C 
HETATM   33  C   UNL     1      40.368 -14.294   2.395  1.00  0.00     0.011 C 
BRANCH  31  34
HETATM   34  N   UNL     1      42.618 -17.169   3.191  1.00  0.00    -0.382 N 
BRANCH  34  35
HETATM   35  C   UNL     1      43.530 -17.145   4.352  1.00  0.00     0.118 C 
HETATM   36  C   UNL     1      42.762 -17.243   5.665  1.00  0.00     0.026 C 
ENDBRANCH  34  35
BRANCH  34  37
HETATM   37  C   UNL     1      42.717 -18.382   2.358  1.00  0.00     0.118 C 
HETATM   38  C   UNL     1      43.942 -19.198   2.739  1.00  0.00     0.026 C 
ENDBRANCH  34  37
ENDBRANCH  31  34
ENDBRANCH   1  28
BRANCH   6  39
HETATM   39  O   UNL     1      38.925 -13.423  -0.089  1.00  0.00    -0.389 OA
HETATM   40  H   UNL     1      39.666 -13.774  -0.615  1.00  0.00     0.210 HD
ENDBRANCH   6  39
TORSDOF 10
ENDMDL
MODEL 5
REMARK VINA RESULT:      -7.7      1.592      2.111
REMARK  10 active torsions:
REMARK  status: ('A' for Active; 'I' for Inactive)
REMARK    1  A    between atoms: C_2  and  N_3 
REMARK    2  A    between atoms: N_3  and  C_4 
REMARK    3  A    between atoms: N_3  and  C_37 
REMARK    4  A    between atoms: C_7  and  C_8 
REMARK    5  A    between atoms: N_9  and  C_11 
REMARK    6  A    between atoms: C_11  and  C_12 
REMARK       I    between atoms: C_12  and  N_13 
REMARK    7  A    between atoms: N_13  and  C_14 
REMARK    8  A    between atoms: C_20  and  C_21 
REMARK    9  A    between atoms: C_21  and  O_22 
REMARK   10  A    between atoms: C_28  and  O_29 
ROOT
HETATM    1  C   UNL     1      42.194 -11.936   3.235  1.00  0.00     0.228 C 
HETATM    2  N   UNL     1      41.752 -11.245   4.546  1.00  0.00    -0.054 N 
HETATM    3  H   UNL     1      42.463 -11.545   5.231  1.00  0.00     0.281 HD
HETATM    4  C   UNL     1      40.382 -11.665   5.031  1.00  0.00     0.239 C 
HETATM    5  C   UNL     1      39.321 -11.426   3.971  1.00  0.00     0.066 C 
HETATM    6  C   UNL     1      39.673 -12.124   2.649  1.00  0.00     0.065 C 
HETATM    7  C   UNL     1      41.072 -11.674   2.171  1.00  0.00     0.055 C 
HETATM    8  C   UNL     1      38.582 -11.809   1.606  1.00  0.00     0.038 C 
HETATM    9  C   UNL     1      38.931 -12.293   0.199  1.00  0.00     0.003 C 
HETATM   10  C   UNL     1      40.298 -11.788  -0.241  1.00  0.00     0.001 C 
HETATM   11  C   UNL     1      41.379 -12.199   0.756  1.00  0.00     0.010 C 
ENDROOT
BRANCH   2  12
HETATM   12  C   UNL     1      41.887  -9.714   4.545  1.00  0.00     0.338 C 
BRANCH  12  13
HETATM   13  C   UNL     1      41.366  -9.029   5.807  1.00  0.00     0.248 C 
HETATM   14  N   UNL     1      41.945  -9.549   6.946  1.00  0.00    -0.319 N 
HETATM   15  H   UNL     1      42.577 -10.349   6.864  1.00  0.00     0.169 HD
HETATM   16  O   UNL     1      40.525  -8.141   5.698  1.00  0.00    -0.271 OA
BRANCH  14  17
HETATM   17  C   UNL     1      41.762  -9.152   8.264  1.00  0.00     0.094 A 
HETATM   18  S   UNL     1      40.245  -9.196   8.998  1.00  0.00    -0.076 SA
HETATM   19  C   UNL     1      40.847  -8.546  10.457  1.00  0.00    -0.012 A 
HETATM   20  C   UNL     1      39.898  -8.309  11.589  1.00  0.00     0.057 C 
HETATM   21  C   UNL     1      42.218  -8.328  10.410  1.00  0.00    -0.030 A 
HETATM   22  C   UNL     1      43.025  -7.806  11.562  1.00  0.00     0.050 C 
HETATM   23  C   UNL     1      42.759  -8.661   9.100  1.00  0.00     0.080 A 
BRANCH  23  24
HETATM   24  C   UNL     1      44.147  -8.541   8.625  1.00  0.00     0.296 C 
HETATM   25  O   UNL     1      44.664  -7.443   8.423  1.00  0.00    -0.259 OA
BRANCH  24  26
HETATM   26  O   UNL     1      44.778  -9.731   8.451  1.00  0.00    -0.322 OA
HETATM   27  C   UNL     1      45.475 -10.251   9.586  1.00  0.00     0.213 C 
ENDBRANCH  24  26
ENDBRANCH  23  24
ENDBRANCH  14  17
ENDBRANCH  12  13
ENDBRANCH   2  12
BRANCH   1  28
HETATM   28  C   UNL     1      42.673 -13.384   3.394  1.00  0.00    -0.027 C 
HETATM   29  C   UNL     1      42.722 -14.085   4.601  1.00  0.00     0.011 C 
HETATM   30  C   UNL     1      42.961 -15.471   4.641  1.00  0.00     0.030 C 
HETATM   31  C   UNL     1      43.174 -16.233   3.488  1.00  0.00     0.030 C 
HETATM   32  C   UNL     1      43.323 -15.486   2.314  1.00  0.00     0.030 C 
HETATM   33  C   UNL     1      43.098 -14.100   2.268  1.00  0.00     0.011 C 
BRANCH  31  34
HETATM   34  N   UNL     1      43.253 -17.625   3.498  1.00  0.00    -0.382 N 
BRANCH  34  35
HETATM   35  C   UNL     1      44.266 -18.286   4.346  1.00  0.00     0.118 C 
HETATM   36  C   UNL     1      43.679 -18.705   5.688  1.00  0.00     0.026 C 
ENDBRANCH  34  35
BRANCH  34  37
HETATM   37  C   UNL     1      42.800 -18.426   2.346  1.00  0.00     0.118 C 
HETATM   38  C   UNL     1      43.539 -19.754   2.290  1.00  0.00     0.026 C 
ENDBRANCH  34  37
ENDBRANCH  31  34
ENDBRANCH   1  28
BRANCH   6  39
HETATM   39  O   UNL     1      39.664 -13.521   2.926  1.00  0.00    -0.389 OA
HETATM   40  H   UNL     1      40.501 -13.930   2.642  1.00  0.00     0.210 HD
ENDBRANCH   6  39
TORSDOF 10
ENDMDL
MODEL 6
REMARK VINA RESULT:      -7.7      1.793      2.755
REMARK  10 active torsions:
REMARK  status: ('A' for Active; 'I' for Inactive)
REMARK    1  A    between atoms: C_2  and  N_3 
REMARK    2  A    between atoms: N_3  and  C_4 
REMARK    3  A    between atoms: N_3  and  C_37 
REMARK    4  A    between atoms: C_7  and  C_8 
REMARK    5  A    between atoms: N_9  and  C_11 
REMARK    6  A    between atoms: C_11  and  C_12 
REMARK       I    between atoms: C_12  and  N_13 
REMARK    7  A    between atoms: N_13  and  C_14 
REMARK    8  A    between atoms: C_20  and  C_21 
REMARK    9  A    between atoms: C_21  and  O_22 
REMARK   10  A    between atoms: C_28  and  O_29 
ROOT
HETATM    1  C   UNL     1      42.275 -12.600   3.718  1.00  0.00     0.228 C 
HETATM    2  N   UNL     1      41.794 -12.081   5.093  1.00  0.00    -0.054 N 
HETATM    3  H   UNL     1      42.499 -12.447   5.752  1.00  0.00     0.281 HD
HETATM    4  C   UNL     1      40.426 -12.586   5.497  1.00  0.00     0.239 C 
HETATM    5  C   UNL     1      39.378 -12.244   4.451  1.00  0.00     0.066 C 
HETATM    6  C   UNL     1      39.769 -12.770   3.063  1.00  0.00     0.065 C 
HETATM    7  C   UNL     1      41.165 -12.237   2.671  1.00  0.00     0.055 C 
HETATM    8  C   UNL     1      38.690 -12.356   2.043  1.00  0.00     0.038 C 
HETATM    9  C   UNL     1      39.075 -12.659   0.596  1.00  0.00     0.003 C 
HETATM   10  C   UNL     1      40.437 -12.076   0.247  1.00  0.00     0.001 C 
HETATM   11  C   UNL     1      41.510 -12.580   1.210  1.00  0.00     0.010 C 
ENDROOT
BRANCH   2  12
HETATM   12  C   UNL     1      41.892 -10.559   5.279  1.00  0.00     0.338 C 
BRANCH  12  13
HETATM   13  C   UNL     1      41.605 -10.071   6.697  1.00  0.00     0.248 C 
HETATM   14  N   UNL     1      42.694  -9.422   7.244  1.00  0.00    -0.319 N 
HETATM   15  H   UNL     1      43.571  -9.389   6.718  1.00  0.00     0.169 HD
HETATM   16  O   UNL     1      40.506 -10.297   7.193  1.00  0.00    -0.271 OA
BRANCH  14  17
HETATM   17  C   UNL     1      42.795  -8.803   8.482  1.00  0.00     0.094 A 
HETATM   18  S   UNL     1      43.366  -9.627   9.838  1.00  0.00    -0.076 SA
HETATM   19  C   UNL     1      43.132  -8.274  10.853  1.00  0.00    -0.012 A 
HETATM   20  C   UNL     1      43.465  -8.396  12.306  1.00  0.00     0.057 C 
HETATM   21  C   UNL     1      42.654  -7.171  10.158  1.00  0.00    -0.030 A 
HETATM   22  C   UNL     1      42.398  -5.832  10.784  1.00  0.00     0.050 C 
HETATM   23  C   UNL     1      42.428  -7.490   8.756  1.00  0.00     0.080 A 
BRANCH  23  24
HETATM   24  C   UNL     1      41.897  -6.621   7.693  1.00  0.00     0.296 C 
HETATM   25  O   UNL     1      42.540  -6.393   6.669  1.00  0.00    -0.259 OA
BRANCH  24  26
HETATM   26  O   UNL     1      40.659  -6.126   7.949  1.00  0.00    -0.322 OA
HETATM   27  C   UNL     1      39.563  -7.022   7.750  1.00  0.00     0.213 C 
ENDBRANCH  24  26
ENDBRANCH  23  24
ENDBRANCH  14  17
ENDBRANCH  12  13
ENDBRANCH   2  12
BRANCH   1  28
HETATM   28  C   UNL     1      42.785 -14.046   3.712  1.00  0.00    -0.027 C 
HETATM   29  C   UNL     1      42.947 -14.845   4.847  1.00  0.00     0.011 C 
HETATM   30  C   UNL     1      43.207 -16.224   4.748  1.00  0.00     0.030 C 
HETATM   31  C   UNL     1      43.331 -16.882   3.520  1.00  0.00     0.030 C 
HETATM   32  C   UNL     1      43.368 -16.036   2.406  1.00  0.00     0.030 C 
HETATM   33  C   UNL     1      43.121 -14.656   2.497  1.00  0.00     0.011 C 
BRANCH  31  34
HETATM   34  N   UNL     1      43.429 -18.268   3.404  1.00  0.00    -0.382 N 
BRANCH  34  35
HETATM   35  C   UNL     1      44.503 -18.979   4.127  1.00  0.00     0.118 C 
HETATM   36  C   UNL     1      43.962 -19.707   5.352  1.00  0.00     0.026 C 
ENDBRANCH  34  35
BRANCH  34  37
HETATM   37  C   UNL     1      42.914 -18.977   2.219  1.00  0.00     0.118 C 
HETATM   38  C   UNL     1      43.761 -20.202   1.914  1.00  0.00     0.026 C 
ENDBRANCH  34  37
ENDBRANCH  31  34
ENDBRANCH   1  28
BRANCH   6  39
HETATM   39  O   UNL     1      39.789 -14.190   3.170  1.00  0.00    -0.389 OA
HETATM   40  H   UNL     1      39.333 -14.596   2.410  1.00  0.00     0.210 HD
ENDBRANCH   6  39
TORSDOF 10
ENDMDL
MODEL 7
REMARK VINA RESULT:      -7.6      3.194      5.848
REMARK  10 active torsions:
REMARK  status: ('A' for Active; 'I' for Inactive)
REMARK    1  A    between atoms: C_2  and  N_3 
REMARK    2  A    between atoms: N_3  and  C_4 
REMARK    3  A    between atoms: N_3  and  C_37 
REMARK    4  A    between atoms: C_7  and  C_8 
REMARK    5  A    between atoms: N_9  and  C_11 
REMARK    6  A    between atoms: C_11  and  C_12 
REMARK       I    between atoms: C_12  and  N_13 
REMARK    7  A    between atoms: N_13  and  C_14 
REMARK    8  A    between atoms: C_20  and  C_21 
REMARK    9  A    between atoms: C_21  and  O_22 
REMARK   10  A    between atoms: C_28  and  O_29 
ROOT
HETATM    1  C   UNL     1      40.163 -13.812   4.174  1.00  0.00     0.228 C 
HETATM    2  N   UNL     1      40.110 -12.393   4.787  1.00  0.00    -0.054 N 
HETATM    3  H   UNL     1      39.487 -11.875   4.148  1.00  0.00     0.281 HD
HETATM    4  C   UNL     1      41.452 -11.698   4.845  1.00  0.00     0.239 C 
HETATM    5  C   UNL     1      42.471 -12.524   5.612  1.00  0.00     0.066 C 
HETATM    6  C   UNL     1      42.610 -13.937   5.028  1.00  0.00     0.065 C 
HETATM    7  C   UNL     1      41.229 -14.628   4.984  1.00  0.00     0.055 C 
HETATM    8  C   UNL     1      43.623 -14.735   5.873  1.00  0.00     0.038 C 
HETATM    9  C   UNL     1      43.693 -16.215   5.499  1.00  0.00     0.003 C 
HETATM   10  C   UNL     1      42.313 -16.859   5.513  1.00  0.00     0.001 C 
HETATM   11  C   UNL     1      41.353 -16.111   4.590  1.00  0.00     0.010 C 
ENDROOT
BRANCH   2  12
HETATM   12  C   UNL     1      39.386 -12.301   6.139  1.00  0.00     0.338 C 
BRANCH  12  13
HETATM   13  C   UNL     1      38.922 -10.896   6.518  1.00  0.00     0.248 C 
HETATM   14  N   UNL     1      39.566 -10.432   7.647  1.00  0.00    -0.319 N 
HETATM   15  H   UNL     1      40.204 -11.055   8.148  1.00  0.00     0.169 HD
HETATM   16  O   UNL     1      38.066 -10.347   5.831  1.00  0.00    -0.271 OA
BRANCH  14  17
HETATM   17  C   UNL     1      39.447  -9.192   8.258  1.00  0.00     0.094 A 
HETATM   18  S   UNL     1      39.492  -7.760   7.369  1.00  0.00    -0.076 SA
HETATM   19  C   UNL     1      39.348  -6.795   8.769  1.00  0.00    -0.012 A 
HETATM   20  C   UNL     1      39.348  -5.306   8.624  1.00  0.00     0.057 C 
HETATM   21  C   UNL     1      39.225  -7.558   9.923  1.00  0.00    -0.030 A 
HETATM   22  C   UNL     1      39.037  -6.980  11.295  1.00  0.00     0.050 C 
HETATM   23  C   UNL     1      39.310  -8.980   9.626  1.00  0.00     0.080 A 
BRANCH  23  24
HETATM   24  C   UNL     1      39.262 -10.116  10.560  1.00  0.00     0.296 C 
HETATM   25  O   UNL     1      38.446 -11.027  10.423  1.00  0.00    -0.259 OA
BRANCH  24  26
HETATM   26  O   UNL     1      40.191 -10.060  11.549  1.00  0.00    -0.322 OA
HETATM   27  C   UNL     1      39.742 -10.406  12.862  1.00  0.00     0.213 C 
ENDBRANCH  24  26
ENDBRANCH  23  24
ENDBRANCH  14  17
ENDBRANCH  12  13
ENDBRANCH   2  12
BRANCH   1  28
HETATM   28  C   UNL     1      40.275 -13.855   2.645  1.00  0.00    -0.027 C 
HETATM   29  C   UNL     1      40.556 -14.999   1.894  1.00  0.00     0.011 C 
HETATM   30  C   UNL     1      40.426 -15.012   0.492  1.00  0.00     0.030 C 
HETATM   31  C   UNL     1      40.022 -13.890  -0.238  1.00  0.00     0.030 C 
HETATM   32  C   UNL     1      39.942 -12.707   0.506  1.00  0.00     0.030 C 
HETATM   33  C   UNL     1      40.083 -12.683   1.903  1.00  0.00     0.011 C 
BRANCH  31  34
HETATM   34  N   UNL     1      39.736 -13.931  -1.602  1.00  0.00    -0.382 N 
BRANCH  34  35
HETATM   35  C   UNL     1      39.749 -12.677  -2.381  1.00  0.00     0.118 C 
HETATM   36  C   UNL     1      41.110 -12.434  -3.023  1.00  0.00     0.026 C 
ENDBRANCH  34  35
BRANCH  34  37
HETATM   37  C   UNL     1      38.905 -15.003  -2.179  1.00  0.00     0.118 C 
HETATM   38  C   UNL     1      38.186 -14.514  -3.427  1.00  0.00     0.026 C 
ENDBRANCH  34  37
ENDBRANCH  31  34
ENDBRANCH   1  28
BRANCH   6  39
HETATM   39  O   UNL     1      43.128 -13.772   3.712  1.00  0.00    -0.389 OA
HETATM   40  H   UNL     1      42.992 -14.581   3.187  1.00  0.00     0.210 HD
ENDBRANCH   6  39
TORSDOF 10
ENDMDL
MODEL 8
REMARK VINA RESULT:      -7.6      2.915      8.893
REMARK  10 active torsions:
REMARK  status: ('A' for Active; 'I' for Inactive)
REMARK    1  A    between atoms: C_2  and  N_3 
REMARK    2  A    between atoms: N_3  and  C_4 
REMARK    3  A    between atoms: N_3  and  C_37 
REMARK    4  A    between atoms: C_7  and  C_8 
REMARK    5  A    between atoms: N_9  and  C_11 
REMARK    6  A    between atoms: C_11  and  C_12 
REMARK       I    between atoms: C_12  and  N_13 
REMARK    7  A    between atoms: N_13  and  C_14 
REMARK    8  A    between atoms: C_20  and  C_21 
REMARK    9  A    between atoms: C_21  and  O_22 
REMARK   10  A    between atoms: C_28  and  O_29 
ROOT
HETATM    1  C   UNL     1      43.177 -12.845   4.678  1.00  0.00     0.228 C 
HETATM    2  N   UNL     1      42.107 -12.204   3.763  1.00  0.00    -0.054 N 
HETATM    3  H   UNL     1      42.349 -11.200   3.772  1.00  0.00     0.281 HD
HETATM    4  C   UNL     1      40.689 -12.379   4.260  1.00  0.00     0.239 C 
HETATM    5  C   UNL     1      40.348 -13.846   4.457  1.00  0.00     0.066 C 
HETATM    6  C   UNL     1      41.347 -14.539   5.395  1.00  0.00     0.065 C 
HETATM    7  C   UNL     1      42.786 -14.352   4.864  1.00  0.00     0.055 C 
HETATM    8  C   UNL     1      40.971 -16.029   5.520  1.00  0.00     0.038 C 
HETATM    9  C   UNL     1      42.012 -16.856   6.274  1.00  0.00     0.003 C 
HETATM   10  C   UNL     1      43.404 -16.670   5.686  1.00  0.00     0.001 C 
HETATM   11  C   UNL     1      43.795 -15.194   5.666  1.00  0.00     0.010 C 
ENDROOT
BRANCH   2  12
HETATM   12  C   UNL     1      42.218 -12.582   2.278  1.00  0.00     0.338 C 
BRANCH  12  13
HETATM   13  C   UNL     1      41.343 -11.750   1.343  1.00  0.00     0.248 C 
HETATM   14  N   UNL     1      40.219 -12.444   0.943  1.00  0.00    -0.319 N 
HETATM   15  H   UNL     1      40.110 -13.421   1.226  1.00  0.00     0.169 HD
HETATM   16  O   UNL     1      41.702 -10.614   1.045  1.00  0.00    -0.271 OA
BRANCH  14  17
HETATM   17  C   UNL     1      39.174 -12.003   0.143  1.00  0.00     0.094 A 
HETATM   18  S   UNL     1      38.251 -10.654   0.557  1.00  0.00    -0.076 SA
HETATM   19  C   UNL     1      37.243 -10.829  -0.809  1.00  0.00    -0.012 A 
HETATM   20  C   UNL     1      36.120  -9.861  -1.007  1.00  0.00     0.057 C 
HETATM   21  C   UNL     1      37.627 -11.894  -1.614  1.00  0.00    -0.030 A 
HETATM   22  C   UNL     1      36.951 -12.257  -2.904  1.00  0.00     0.050 C 
HETATM   23  C   UNL     1      38.756 -12.609  -1.038  1.00  0.00     0.080 A 
BRANCH  23  24
HETATM   24  C   UNL     1      39.440 -13.807  -1.550  1.00  0.00     0.296 C 
HETATM   25  O   UNL     1      39.511 -14.839  -0.884  1.00  0.00    -0.259 OA
BRANCH  24  26
HETATM   26  O   UNL     1      39.954 -13.661  -2.798  1.00  0.00    -0.322 OA
HETATM   27  C   UNL     1      40.954 -12.651  -2.958  1.00  0.00     0.213 C 
ENDBRANCH  24  26
ENDBRANCH  23  24
ENDBRANCH  14  17
ENDBRANCH  12  13
ENDBRANCH   2  12
BRANCH   1  28
HETATM   28  C   UNL     1      43.503 -12.053   5.950  1.00  0.00    -0.027 C 
HETATM   29  C   UNL     1      44.663 -12.205   6.715  1.00  0.00     0.011 C 
HETATM   30  C   UNL     1      44.997 -11.298   7.737  1.00  0.00     0.030 C 
HETATM   31  C   UNL     1      44.195 -10.200   8.062  1.00  0.00     0.030 C 
HETATM   32  C   UNL     1      42.947 -10.180   7.429  1.00  0.00     0.030 C 
HETATM   33  C   UNL     1      42.601 -11.089   6.416  1.00  0.00     0.011 C 
BRANCH  31  34
HETATM   34  N   UNL     1      44.588  -9.207   8.960  1.00  0.00    -0.382 N 
BRANCH  34  35
HETATM   35  C   UNL     1      44.853  -9.569  10.367  1.00  0.00     0.118 C 
HETATM   36  C   UNL     1      43.813 -10.549  10.896  1.00  0.00     0.026 C 
ENDBRANCH  34  35
BRANCH  34  37
HETATM   37  C   UNL     1      44.226  -7.794   8.747  1.00  0.00     0.118 C 
HETATM   38  C   UNL     1      43.257  -7.320   9.819  1.00  0.00     0.026 C 
ENDBRANCH  34  37
ENDBRANCH  31  34
ENDBRANCH   1  28
BRANCH   6  39
HETATM   39  O   UNL     1      41.196 -13.912   6.665  1.00  0.00    -0.389 OA
HETATM   40  H   UNL     1      41.729 -14.373   7.338  1.00  0.00     0.210 HD
ENDBRANCH   6  39
TORSDOF 10
ENDMDL
MODEL 9
REMARK VINA RESULT:      -7.6      3.621      7.394
REMARK  10 active torsions:
REMARK  status: ('A' for Active; 'I' for Inactive)
REMARK    1  A    between atoms: C_2  and  N_3 
REMARK    2  A    between atoms: N_3  and  C_4 
REMARK    3  A    between atoms: N_3  and  C_37 
REMARK    4  A    between atoms: C_7  and  C_8 
REMARK    5  A    between atoms: N_9  and  C_11 
REMARK    6  A    between atoms: C_11  and  C_12 
REMARK       I    between atoms: C_12  and  N_13 
REMARK    7  A    between atoms: N_13  and  C_14 
REMARK    8  A    between atoms: C_20  and  C_21 
REMARK    9  A    between atoms: C_21  and  O_22 
REMARK   10  A    between atoms: C_28  and  O_29 
ROOT
HETATM    1  C   UNL     1      40.453 -13.869   2.878  1.00  0.00     0.228 C 
HETATM    2  N   UNL     1      40.705 -13.226   1.495  1.00  0.00    -0.054 N 
HETATM    3  H   UNL     1      40.906 -14.033   0.884  1.00  0.00     0.281 HD
HETATM    4  C   UNL     1      41.880 -12.273   1.464  1.00  0.00     0.239 C 
HETATM    5  C   UNL     1      41.726 -11.169   2.496  1.00  0.00     0.066 C 
HETATM    6  C   UNL     1      41.516 -11.737   3.907  1.00  0.00     0.065 C 
HETATM    7  C   UNL     1      40.309 -12.700   3.914  1.00  0.00     0.055 C 
HETATM    8  C   UNL     1      41.325 -10.571   4.897  1.00  0.00     0.038 C 
HETATM    9  C   UNL     1      40.916 -11.025   6.297  1.00  0.00     0.003 C 
HETATM   10  C   UNL     1      39.697 -11.936   6.253  1.00  0.00     0.001 C 
HETATM   11  C   UNL     1      39.946 -13.138   5.345  1.00  0.00     0.010 C 
ENDROOT
BRANCH   2  12
HETATM   12  C   UNL     1      39.467 -12.589   0.845  1.00  0.00     0.338 C 
BRANCH  12  13
HETATM   13  C   UNL     1      39.680 -12.103  -0.588  1.00  0.00     0.248 C 
HETATM   14  N   UNL     1      39.486 -10.741  -0.698  1.00  0.00    -0.319 N 
HETATM   15  H   UNL     1      39.163 -10.215   0.117  1.00  0.00     0.169 HD
HETATM   16  O   UNL     1      39.976 -12.919  -1.455  1.00  0.00    -0.271 OA
BRANCH  14  17
HETATM   17  C   UNL     1      39.638  -9.938  -1.820  1.00  0.00     0.094 A 
HETATM   18  S   UNL     1      38.668 -10.134  -3.186  1.00  0.00    -0.076 SA
HETATM   19  C   UNL     1      39.483  -8.898  -4.036  1.00  0.00    -0.012 A 
HETATM   20  C   UNL     1      39.060  -8.584  -5.436  1.00  0.00     0.057 C 
HETATM   21  C   UNL     1      40.475  -8.299  -3.271  1.00  0.00    -0.030 A 
HETATM   22  C   UNL     1      41.322  -7.154  -3.743  1.00  0.00     0.050 C 
HETATM   23  C   UNL     1      40.587  -8.932  -1.965  1.00  0.00     0.080 A 
BRANCH  23  24
HETATM   24  C   UNL     1      41.529  -8.626  -0.877  1.00  0.00     0.296 C 
HETATM   25  O   UNL     1      42.448  -9.392  -0.588  1.00  0.00    -0.259 OA
BRANCH  24  26
HETATM   26  O   UNL     1      41.292  -7.442  -0.255  1.00  0.00    -0.322 OA
HETATM   27  C   UNL     1      40.581  -7.508   0.984  1.00  0.00     0.213 C 
ENDBRANCH  24  26
ENDBRANCH  23  24
ENDBRANCH  14  17
ENDBRANCH  12  13
ENDBRANCH   2  12
BRANCH   1  28
HETATM   28  C   UNL     1      41.411 -15.008   3.249  1.00  0.00    -0.027 C 
HETATM   29  C   UNL     1      41.440 -15.662   4.484  1.00  0.00     0.011 C 
HETATM   30  C   UNL     1      42.189 -16.837   4.679  1.00  0.00     0.030 C 
HETATM   31  C   UNL     1      42.958 -17.418   3.666  1.00  0.00     0.030 C 
HETATM   32  C   UNL     1      43.079 -16.643   2.507  1.00  0.00     0.030 C 
HETATM   33  C   UNL     1      42.343 -15.462   2.309  1.00  0.00     0.011 C 
BRANCH  31  34
HETATM   34  N   UNL     1      43.576 -18.661   3.795  1.00  0.00    -0.382 N 
BRANCH  34  35
HETATM   35  C   UNL     1      44.094 -19.077   5.114  1.00  0.00     0.118 C 
HETATM   36  C   UNL     1      43.947 -20.580   5.322  1.00  0.00     0.026 C 
ENDBRANCH  34  35
BRANCH  34  37
HETATM   37  C   UNL     1      44.225 -19.318   2.646  1.00  0.00     0.118 C 
HETATM   38  C   UNL     1      43.236 -20.199   1.901  1.00  0.00     0.026 C 
ENDBRANCH  34  37
ENDBRANCH  31  34
ENDBRANCH   1  28
BRANCH   6  39
HETATM   39  O   UNL     1      42.714 -12.434   4.233  1.00  0.00    -0.389 OA
HETATM   40  H   UNL     1      43.245 -12.595   3.432  1.00  0.00     0.210 HD
ENDBRANCH   6  39
TORSDOF 10
ENDMDL
MODEL 10
REMARK VINA RESULT:      -7.6      2.641      5.352
REMARK  10 active torsions:
REMARK  status: ('A' for Active; 'I' for Inactive)
REMARK    1  A    between atoms: C_2  and  N_3 
REMARK    2  A    between atoms: N_3  and  C_4 
REMARK    3  A    between atoms: N_3  and  C_37 
REMARK    4  A    between atoms: C_7  and  C_8 
REMARK    5  A    between atoms: N_9  and  C_11 
REMARK    6  A    between atoms: C_11  and  C_12 
REMARK       I    between atoms: C_12  and  N_13 
REMARK    7  A    between atoms: N_13  and  C_14 
REMARK    8  A    between atoms: C_20  and  C_21 
REMARK    9  A    between atoms: C_21  and  O_22 
REMARK   10  A    between atoms: C_28  and  O_29 
ROOT
HETATM    1  C   UNL     1      39.972 -13.382   4.236  1.00  0.00     0.228 C 
HETATM    2  N   UNL     1      40.029 -11.991   4.908  1.00  0.00    -0.054 N 
HETATM    3  H   UNL     1      39.434 -11.404   4.303  1.00  0.00     0.281 HD
HETATM    4  C   UNL     1      41.419 -11.394   4.970  1.00  0.00     0.239 C 
HETATM    5  C   UNL     1      42.388 -12.322   5.683  1.00  0.00     0.066 C 
HETATM    6  C   UNL     1      42.418 -13.715   5.038  1.00  0.00     0.065 C 
HETATM    7  C   UNL     1      40.990 -14.305   4.992  1.00  0.00     0.055 C 
HETATM    8  C   UNL     1      43.385 -14.617   5.830  1.00  0.00     0.038 C 
HETATM    9  C   UNL     1      43.344 -16.081   5.393  1.00  0.00     0.003 C 
HETATM   10  C   UNL     1      41.923 -16.627   5.406  1.00  0.00     0.001 C 
HETATM   11  C   UNL     1      41.003 -15.775   4.534  1.00  0.00     0.010 C 
ENDROOT
BRANCH   2  12
HETATM   12  C   UNL     1      39.336 -11.906   6.277  1.00  0.00     0.338 C 
BRANCH  12  13
HETATM   13  C   UNL     1      39.258 -10.499   6.864  1.00  0.00     0.248 C 
HETATM   14  N   UNL     1      39.961 -10.400   8.048  1.00  0.00    -0.319 N 
HETATM   15  H   UNL     1      40.386 -11.240   8.447  1.00  0.00     0.169 HD
HETATM   16  O   UNL     1      38.609  -9.642   6.272  1.00  0.00    -0.271 OA
BRANCH  14  17
HETATM   17  C   UNL     1      40.161  -9.277   8.839  1.00  0.00     0.094 A 
HETATM   18  S   UNL     1      38.900  -8.572   9.710  1.00  0.00    -0.076 SA
HETATM   19  C   UNL     1      39.904  -7.328  10.306  1.00  0.00    -0.012 A 
HETATM   20  C   UNL     1      39.310  -6.285  11.198  1.00  0.00     0.057 C 
HETATM   21  C   UNL     1      41.219  -7.462   9.878  1.00  0.00    -0.030 A 
HETATM   22  C   UNL     1      42.331  -6.540  10.282  1.00  0.00     0.050 C 
HETATM   23  C   UNL     1      41.368  -8.602   8.986  1.00  0.00     0.080 A 
BRANCH  23  24
HETATM   24  C   UNL     1      42.578  -9.068   8.290  1.00  0.00     0.296 C 
HETATM   25  O   UNL     1      42.702  -8.954   7.071  1.00  0.00    -0.259 OA
BRANCH  24  26
HETATM   26  O   UNL     1      43.516  -9.608   9.110  1.00  0.00    -0.322 OA
HETATM   27  C   UNL     1      44.151 -10.803   8.648  1.00  0.00     0.213 C 
ENDBRANCH  24  26
ENDBRANCH  23  24
ENDBRANCH  14  17
ENDBRANCH  12  13
ENDBRANCH   2  12
BRANCH   1  28
HETATM   28  C   UNL     1      40.056 -13.368   2.705  1.00  0.00    -0.027 C 
HETATM   29  C   UNL     1      40.115 -14.505   1.894  1.00  0.00     0.011 C 
HETATM   30  C   UNL     1      39.968 -14.423   0.497  1.00  0.00     0.030 C 
HETATM   31  C   UNL     1      39.767 -13.211  -0.170  1.00  0.00     0.030 C 
HETATM   32  C   UNL     1      39.915 -12.072   0.630  1.00  0.00     0.030 C 
HETATM   33  C   UNL     1      40.074 -12.145   2.024  1.00  0.00     0.011 C 
BRANCH  31  34
HETATM   34  N   UNL     1      39.463 -13.129  -1.529  1.00  0.00    -0.382 N 
BRANCH  34  35
HETATM   35  C   UNL     1      39.960 -11.981  -2.314  1.00  0.00     0.118 C 
HETATM   36  C   UNL     1      41.271 -12.313  -3.017  1.00  0.00     0.026 C 
ENDBRANCH  34  35
BRANCH  34  37
HETATM   37  C   UNL     1      38.263 -13.780  -2.085  1.00  0.00     0.118 C 
HETATM   38  C   UNL     1      38.647 -14.974  -2.945  1.00  0.00     0.026 C 
ENDBRANCH  34  37
ENDBRANCH  31  34
ENDBRANCH   1  28
BRANCH   6  39
HETATM   39  O   UNL     1      42.925 -13.530   3.721  1.00  0.00    -0.389 OA
HETATM   40  H   UNL     1      43.221 -12.610   3.595  1.00  0.00     0.210 HD
ENDBRANCH   6  39
TORSDOF 10
ENDMDL
