MODEL 1
REMARK VINA RESULT:      -9.6      0.000      0.000
REMARK  9 active torsions:
REMARK  status: ('A' for Active; 'I' for Inactive)
REMARK    1  A    between atoms: C_4  and  S_5 
REMARK    2  A    between atoms: S_5  and  C_6 
REMARK    3  A    between atoms: C_6  and  C_7 
REMARK       I    between atoms: C_7  and  N_8 
REMARK    4  A    between atoms: N_8  and  C_9 
REMARK    5  A    between atoms: C_10  and  O_11 
REMARK    6  A    between atoms: C_16  and  O_17 
REMARK    7  A    between atoms: C_24  and  C_25 
REMARK    8  A    between atoms: C_31  and  C_32 
REMARK       I    between atoms: C_32  and  N_33 
REMARK    9  A    between atoms: N_33  and  C_34 
ROOT
HETATM    1  C   UNL     1      43.052 -15.188   8.023  1.00  0.00     0.069 C 
HETATM    2  C   UNL     1      42.932 -14.434   6.718  1.00  0.00     0.019 A 
HETATM    3  N   UNL     1      42.832 -13.060   6.843  1.00  0.00    -0.353 N 
HETATM    4  C   UNL     1      42.748 -12.164   5.795  1.00  0.00     0.087 A 
HETATM    5  C   UNL     1      42.823 -12.624   4.526  1.00  0.00     0.055 A 
HETATM    6  C   UNL     1      42.825 -11.678   3.337  1.00  0.00     0.019 C 
HETATM    7  N   UNL     1      42.826 -10.894   2.349  1.00  0.00    -0.096 N 
HETATM    8  C   UNL     1      42.878 -14.127   4.230  1.00  0.00     0.104 A 
HETATM    9  C   UNL     1      42.927 -15.008   5.488  1.00  0.00     0.046 A 
HETATM   10  H   UNL     1      43.043 -12.651   7.748  1.00  0.00     0.166 HD
ENDROOT
BRANCH   4  11
HETATM   11  S   UNL     1      42.565 -10.450   6.110  1.00  0.00    -0.102 SA
BRANCH  11  12
HETATM   12  C   UNL     1      40.857 -10.374   6.716  1.00  0.00     0.184 C 
BRANCH  12  13
HETATM   13  C   UNL     1      40.713  -9.639   8.047  1.00  0.00     0.231 C 
HETATM   14  N   UNL     1      41.778  -9.885   8.907  1.00  0.00    -0.324 N 
HETATM   15  H   UNL     1      42.547 -10.416   8.520  1.00  0.00     0.169 HD
HETATM   16  O   UNL     1      39.794  -8.845   8.221  1.00  0.00    -0.272 OA
BRANCH  14  17
HETATM   17  C   UNL     1      42.046  -9.282  10.162  1.00  0.00     0.071 A 
HETATM   18  C   UNL     1      42.966  -8.242  10.402  1.00  0.00     0.096 A 
HETATM   19  C   UNL     1      43.142  -7.762  11.709  1.00  0.00     0.065 A 
HETATM   20  C   UNL     1      42.413  -8.301  12.770  1.00  0.00     0.070 A 
HETATM   21 CL   UNL     1      42.675  -7.669  14.358  1.00  0.00    -0.081 Cl
HETATM   22  C   UNL     1      41.494  -9.320  12.540  1.00  0.00     0.092 A 
HETATM   23  C   UNL     1      41.287  -9.780  11.237  1.00  0.00     0.071 A 
BRANCH  18  24
HETATM   24  O   UNL     1      43.532  -7.625   9.321  1.00  0.00    -0.354 OA
HETATM   25  C   UNL     1      44.701  -8.222   8.773  1.00  0.00     0.210 C 
ENDBRANCH  18  24
BRANCH  22  26
HETATM   26  O   UNL     1      40.743  -9.806  13.579  1.00  0.00    -0.354 OA
HETATM   27  C   UNL     1      39.644 -10.595  13.126  1.00  0.00     0.210 C 
ENDBRANCH  22  26
ENDBRANCH  14  17
ENDBRANCH  12  13
ENDBRANCH  11  12
ENDBRANCH   4  11
BRANCH   8  28
HETATM   28  C   UNL     1      41.761 -14.530   3.263  1.00  0.00    -0.044 A 
HETATM   29  C   UNL     1      42.081 -15.059   2.000  1.00  0.00     0.008 A 
HETATM   30  C   UNL     1      41.074 -15.421   1.103  1.00  0.00     0.001 A 
HETATM   31  C   UNL     1      39.737 -15.263   1.455  1.00  0.00     0.000 A 
HETATM   32  C   UNL     1      39.404 -14.735   2.698  1.00  0.00     0.001 A 
HETATM   33  C   UNL     1      40.408 -14.359   3.593  1.00  0.00     0.008 A 
ENDBRANCH   8  28
BRANCH   9  34
HETATM   34  C   UNL     1      42.858 -16.511   5.362  1.00  0.00     0.255 C 
HETATM   35  N   UNL     1      43.793 -17.078   4.521  1.00  0.00    -0.323 N 
HETATM   36  H   UNL     1      44.441 -16.469   4.045  1.00  0.00     0.169 HD
HETATM   37  O   UNL     1      41.974 -17.126   5.953  1.00  0.00    -0.268 OA
BRANCH  35  38
HETATM   38  C   UNL     1      43.883 -18.436   4.136  1.00  0.00     0.035 A 
HETATM   39  C   UNL     1      44.165 -19.486   5.012  1.00  0.00     0.029 A 
HETATM   40  C   UNL     1      44.220 -20.804   4.547  1.00  0.00     0.002 A 
HETATM   41  C   UNL     1      43.992 -21.086   3.203  1.00  0.00     0.000 A 
HETATM   42  C   UNL     1      43.713 -20.048   2.320  1.00  0.00     0.002 A 
HETATM   43  C   UNL     1      43.662 -18.730   2.784  1.00  0.00     0.029 A 
ENDBRANCH  35  38
ENDBRANCH   9  34
TORSDOF 9
ENDMDL
MODEL 2
REMARK VINA RESULT:      -9.6      1.225      1.549
REMARK  9 active torsions:
REMARK  status: ('A' for Active; 'I' for Inactive)
REMARK    1  A    between atoms: C_4  and  S_5 
REMARK    2  A    between atoms: S_5  and  C_6 
REMARK    3  A    between atoms: C_6  and  C_7 
REMARK       I    between atoms: C_7  and  N_8 
REMARK    4  A    between atoms: N_8  and  C_9 
REMARK    5  A    between atoms: C_10  and  O_11 
REMARK    6  A    between atoms: C_16  and  O_17 
REMARK    7  A    between atoms: C_24  and  C_25 
REMARK    8  A    between atoms: C_31  and  C_32 
REMARK       I    between atoms: C_32  and  N_33 
REMARK    9  A    between atoms: N_33  and  C_34 
ROOT
HETATM    1  C   UNL     1      43.141 -15.683   8.218  1.00  0.00     0.069 C 
HETATM    2  C   UNL     1      43.063 -14.792   7.000  1.00  0.00     0.019 A 
HETATM    3  N   UNL     1      43.042 -13.435   7.268  1.00  0.00    -0.353 N 
HETATM    4  C   UNL     1      43.009 -12.431   6.320  1.00  0.00     0.087 A 
HETATM    5  C   UNL     1      43.055 -12.760   5.009  1.00  0.00     0.055 A 
HETATM    6  C   UNL     1      43.109 -11.697   3.925  1.00  0.00     0.019 C 
HETATM    7  N   UNL     1      43.154 -10.815   3.024  1.00  0.00    -0.096 N 
HETATM    8  C   UNL     1      43.023 -14.224   4.558  1.00  0.00     0.104 A 
HETATM    9  C   UNL     1      43.023 -15.233   5.717  1.00  0.00     0.046 A 
HETATM   10  H   UNL     1      43.278 -13.135   8.210  1.00  0.00     0.166 HD
ENDROOT
BRANCH   4  11
HETATM   11  S   UNL     1      42.925 -10.752   6.813  1.00  0.00    -0.102 SA
BRANCH  11  12
HETATM   12  C   UNL     1      44.489 -10.558   7.708  1.00  0.00     0.184 C 
BRANCH  12  13
HETATM   13  C   UNL     1      44.315 -10.072   9.146  1.00  0.00     0.231 C 
HETATM   14  N   UNL     1      43.163  -9.311   9.313  1.00  0.00    -0.324 N 
HETATM   15  H   UNL     1      42.544  -9.264   8.515  1.00  0.00     0.169 HD
HETATM   16  O   UNL     1      45.083 -10.450  10.026  1.00  0.00    -0.272 OA
BRANCH  14  17
HETATM   17  C   UNL     1      42.615  -8.807  10.520  1.00  0.00     0.071 A 
HETATM   18  C   UNL     1      42.681  -7.472  10.965  1.00  0.00     0.096 A 
HETATM   19  C   UNL     1      42.110  -7.126  12.200  1.00  0.00     0.065 A 
HETATM   20  C   UNL     1      41.476  -8.089  12.987  1.00  0.00     0.070 A 
HETATM   21 CL   UNL     1      40.794  -7.602  14.499  1.00  0.00    -0.081 Cl
HETATM   22  C   UNL     1      41.397  -9.408  12.548  1.00  0.00     0.092 A 
HETATM   23  C   UNL     1      41.932  -9.753  11.305  1.00  0.00     0.071 A 
BRANCH  18  24
HETATM   24  O   UNL     1      43.153  -6.529  10.096  1.00  0.00    -0.354 OA
HETATM   25  C   UNL     1      42.659  -5.204  10.246  1.00  0.00     0.210 C 
ENDBRANCH  18  24
BRANCH  22  26
HETATM   26  O   UNL     1      40.726 -10.336  13.303  1.00  0.00    -0.354 OA
HETATM   27  C   UNL     1      39.418 -10.596  12.797  1.00  0.00     0.210 C 
ENDBRANCH  22  26
ENDBRANCH  14  17
ENDBRANCH  12  13
ENDBRANCH  11  12
ENDBRANCH   4  11
BRANCH   8  28
HETATM   28  C   UNL     1      41.883 -14.460   3.563  1.00  0.00    -0.044 A 
HETATM   29  C   UNL     1      42.159 -14.988   2.290  1.00  0.00     0.008 A 
HETATM   30  C   UNL     1      41.132 -15.199   1.368  1.00  0.00     0.001 A 
HETATM   31  C   UNL     1      39.817 -14.888   1.704  1.00  0.00     0.000 A 
HETATM   32  C   UNL     1      39.529 -14.357   2.957  1.00  0.00     0.001 A 
HETATM   33  C   UNL     1      40.555 -14.133   3.878  1.00  0.00     0.008 A 
ENDBRANCH   8  28
BRANCH   9  34
HETATM   34  C   UNL     1      42.867 -16.708   5.436  1.00  0.00     0.255 C 
HETATM   35  N   UNL     1      43.874 -17.277   4.684  1.00  0.00    -0.323 N 
HETATM   36  H   UNL     1      44.626 -16.685   4.365  1.00  0.00     0.169 HD
HETATM   37  O   UNL     1      41.864 -17.296   5.834  1.00  0.00    -0.268 OA
BRANCH  35  38
HETATM   38  C   UNL     1      43.923 -18.599   4.184  1.00  0.00     0.035 A 
HETATM   39  C   UNL     1      44.126 -19.732   4.974  1.00  0.00     0.029 A 
HETATM   40  C   UNL     1      44.146 -21.007   4.397  1.00  0.00     0.002 A 
HETATM   41  C   UNL     1      43.962 -21.161   3.025  1.00  0.00     0.000 A 
HETATM   42  C   UNL     1      43.761 -20.038   2.228  1.00  0.00     0.002 A 
HETATM   43  C   UNL     1      43.746 -18.765   2.804  1.00  0.00     0.029 A 
ENDBRANCH  35  38
ENDBRANCH   9  34
TORSDOF 9
ENDMDL
MODEL 3
REMARK VINA RESULT:      -9.3      1.622      2.209
REMARK  9 active torsions:
REMARK  status: ('A' for Active; 'I' for Inactive)
REMARK    1  A    between atoms: C_4  and  S_5 
REMARK    2  A    between atoms: S_5  and  C_6 
REMARK    3  A    between atoms: C_6  and  C_7 
REMARK       I    between atoms: C_7  and  N_8 
REMARK    4  A    between atoms: N_8  and  C_9 
REMARK    5  A    between atoms: C_10  and  O_11 
REMARK    6  A    between atoms: C_16  and  O_17 
REMARK    7  A    between atoms: C_24  and  C_25 
REMARK    8  A    between atoms: C_31  and  C_32 
REMARK       I    between atoms: C_32  and  N_33 
REMARK    9  A    between atoms: N_33  and  C_34 
ROOT
HETATM    1  C   UNL     1      43.180 -15.395   8.175  1.00  0.00     0.069 C 
HETATM    2  C   UNL     1      43.062 -14.577   6.910  1.00  0.00     0.019 A 
HETATM    3  N   UNL     1      42.982 -13.209   7.101  1.00  0.00    -0.353 N 
HETATM    4  C   UNL     1      42.904 -12.262   6.100  1.00  0.00     0.087 A 
HETATM    5  C   UNL     1      42.963 -12.661   4.808  1.00  0.00     0.055 A 
HETATM    6  C   UNL     1      42.971 -11.659   3.667  1.00  0.00     0.019 C 
HETATM    7  N   UNL     1      42.976 -10.828   2.718  1.00  0.00    -0.096 N 
HETATM    8  C   UNL     1      42.995 -14.149   4.440  1.00  0.00     0.104 A 
HETATM    9  C   UNL     1      43.041 -15.091   5.653  1.00  0.00     0.046 A 
HETATM   10  H   UNL     1      43.205 -12.848   8.024  1.00  0.00     0.166 HD
ENDROOT
BRANCH   4  11
HETATM   11  S   UNL     1      42.747 -10.564   6.498  1.00  0.00    -0.102 SA
BRANCH  11  12
HETATM   12  C   UNL     1      44.417 -10.174   7.085  1.00  0.00     0.184 C 
BRANCH  12  13
HETATM   13  C   UNL     1      44.449  -9.092   8.163  1.00  0.00     0.231 C 
HETATM   14  N   UNL     1      43.347  -9.152   9.008  1.00  0.00    -0.324 N 
HETATM   15  H   UNL     1      42.732  -9.944   8.879  1.00  0.00     0.169 HD
HETATM   16  O   UNL     1      45.430  -8.362   8.281  1.00  0.00    -0.272 OA
BRANCH  14  17
HETATM   17  C   UNL     1      43.105  -8.399  10.186  1.00  0.00     0.071 A 
HETATM   18  C   UNL     1      43.421  -8.793  11.500  1.00  0.00     0.096 A 
HETATM   19  C   UNL     1      43.096  -7.948  12.573  1.00  0.00     0.065 A 
HETATM   20  C   UNL     1      42.469  -6.722  12.350  1.00  0.00     0.070 A 
HETATM   21 CL   UNL     1      42.093  -5.725  13.711  1.00  0.00    -0.081 Cl
HETATM   22  C   UNL     1      42.164  -6.320  11.052  1.00  0.00     0.092 A 
HETATM   23  C   UNL     1      42.515  -7.139   9.977  1.00  0.00     0.071 A 
BRANCH  18  24
HETATM   24  O   UNL     1      44.185  -9.914  11.667  1.00  0.00    -0.354 OA
HETATM   25  C   UNL     1      43.505 -11.120  11.995  1.00  0.00     0.210 C 
ENDBRANCH  18  24
BRANCH  22  26
HETATM   26  O   UNL     1      41.597  -5.090  10.837  1.00  0.00    -0.354 OA
HETATM   27  C   UNL     1      40.198  -5.182  10.572  1.00  0.00     0.210 C 
ENDBRANCH  22  26
ENDBRANCH  14  17
ENDBRANCH  12  13
ENDBRANCH  11  12
ENDBRANCH   4  11
BRANCH   8  28
HETATM   28  C   UNL     1      41.866 -14.489   3.463  1.00  0.00    -0.044 A 
HETATM   29  C   UNL     1      42.170 -14.971   2.178  1.00  0.00     0.008 A 
HETATM   30  C   UNL     1      41.152 -15.275   1.272  1.00  0.00     0.001 A 
HETATM   31  C   UNL     1      39.819 -15.106   1.637  1.00  0.00     0.000 A 
HETATM   32  C   UNL     1      39.503 -14.624   2.903  1.00  0.00     0.001 A 
HETATM   33  C   UNL     1      40.518 -14.306   3.807  1.00  0.00     0.008 A 
ENDBRANCH   8  28
BRANCH   9  34
HETATM   34  C   UNL     1      42.949 -16.585   5.455  1.00  0.00     0.255 C 
HETATM   35  N   UNL     1      43.838 -17.116   4.543  1.00  0.00    -0.323 N 
HETATM   36  H   UNL     1      44.468 -16.489   4.068  1.00  0.00     0.169 HD
HETATM   37  O   UNL     1      42.088 -17.222   6.056  1.00  0.00    -0.268 OA
BRANCH  35  38
HETATM   38  C   UNL     1      43.894 -18.453   4.086  1.00  0.00     0.035 A 
HETATM   39  C   UNL     1      44.234 -19.545   4.887  1.00  0.00     0.029 A 
HETATM   40  C   UNL     1      44.250 -20.839   4.355  1.00  0.00     0.002 A 
HETATM   41  C   UNL     1      43.927 -21.054   3.018  1.00  0.00     0.000 A 
HETATM   42  C   UNL     1      43.589 -19.973   2.210  1.00  0.00     0.002 A 
HETATM   43  C   UNL     1      43.577 -18.680   2.740  1.00  0.00     0.029 A 
ENDBRANCH  35  38
ENDBRANCH   9  34
TORSDOF 9
ENDMDL
MODEL 4
REMARK VINA RESULT:      -9.1      2.731      5.233
REMARK  9 active torsions:
REMARK  status: ('A' for Active; 'I' for Inactive)
REMARK    1  A    between atoms: C_4  and  S_5 
REMARK    2  A    between atoms: S_5  and  C_6 
REMARK    3  A    between atoms: C_6  and  C_7 
REMARK       I    between atoms: C_7  and  N_8 
REMARK    4  A    between atoms: N_8  and  C_9 
REMARK    5  A    between atoms: C_10  and  O_11 
REMARK    6  A    between atoms: C_16  and  O_17 
REMARK    7  A    between atoms: C_24  and  C_25 
REMARK    8  A    between atoms: C_31  and  C_32 
REMARK       I    between atoms: C_32  and  N_33 
REMARK    9  A    between atoms: N_33  and  C_34 
ROOT
HETATM    1  C   UNL     1      40.405  -9.631   1.316  1.00  0.00     0.069 C 
HETATM    2  C   UNL     1      40.480 -10.812   2.256  1.00  0.00     0.019 A 
HETATM    3  N   UNL     1      40.765 -10.495   3.573  1.00  0.00    -0.353 N 
HETATM    4  C   UNL     1      40.849 -11.398   4.615  1.00  0.00     0.087 A 
HETATM    5  C   UNL     1      40.585 -12.703   4.379  1.00  0.00     0.055 A 
HETATM    6  C   UNL     1      40.576 -13.727   5.502  1.00  0.00     0.019 C 
HETATM    7  N   UNL     1      40.569 -14.577   6.433  1.00  0.00    -0.096 N 
HETATM    8  C   UNL     1      40.311 -13.213   2.960  1.00  0.00     0.104 A 
HETATM    9  C   UNL     1      40.284 -12.106   1.895  1.00  0.00     0.046 A 
HETATM   10  H   UNL     1      40.703  -9.519   3.848  1.00  0.00     0.166 HD
ENDROOT
BRANCH   4  11
HETATM   11  S   UNL     1      41.278 -10.854   6.223  1.00  0.00    -0.102 SA
BRANCH  11  12
HETATM   12  C   UNL     1      39.784  -9.947   6.709  1.00  0.00     0.184 C 
BRANCH  12  13
HETATM   13  C   UNL     1      39.872  -9.326   8.102  1.00  0.00     0.231 C 
HETATM   14  N   UNL     1      41.054  -9.656   8.757  1.00  0.00    -0.324 N 
HETATM   15  H   UNL     1      41.738 -10.162   8.209  1.00  0.00     0.169 HD
HETATM   16  O   UNL     1      39.012  -8.539   8.486  1.00  0.00    -0.272 OA
BRANCH  14  17
HETATM   17  C   UNL     1      41.533  -9.164   9.998  1.00  0.00     0.071 A 
HETATM   18  C   UNL     1      42.611  -8.275  10.175  1.00  0.00     0.096 A 
HETATM   19  C   UNL     1      42.987  -7.895  11.473  1.00  0.00     0.065 A 
HETATM   20  C   UNL     1      42.303  -8.385  12.586  1.00  0.00     0.070 A 
HETATM   21 CL   UNL     1      42.815  -7.882  14.159  1.00  0.00    -0.081 Cl
HETATM   22  C   UNL     1      41.229  -9.255  12.418  1.00  0.00     0.092 A 
HETATM   23  C   UNL     1      40.826  -9.611  11.129  1.00  0.00     0.071 A 
BRANCH  18  24
HETATM   24  O   UNL     1      43.144  -7.684   9.064  1.00  0.00    -0.354 OA
HETATM   25  C   UNL     1      44.413  -8.153   8.625  1.00  0.00     0.210 C 
ENDBRANCH  18  24
BRANCH  22  26
HETATM   26  O   UNL     1      40.529  -9.689  13.514  1.00  0.00    -0.354 OA
HETATM   27  C   UNL     1      39.610 -10.731  13.187  1.00  0.00     0.210 C 
ENDBRANCH  22  26
ENDBRANCH  14  17
ENDBRANCH  12  13
ENDBRANCH  11  12
ENDBRANCH   4  11
BRANCH   8  28
HETATM   28  C   UNL     1      41.261 -14.359   2.604  1.00  0.00    -0.044 A 
HETATM   29  C   UNL     1      40.783 -15.681   2.562  1.00  0.00     0.008 A 
HETATM   30  C   UNL     1      41.639 -16.739   2.249  1.00  0.00     0.001 A 
HETATM   31  C   UNL     1      42.981 -16.493   1.972  1.00  0.00     0.000 A 
HETATM   32  C   UNL     1      43.470 -15.191   2.017  1.00  0.00     0.001 A 
HETATM   33  C   UNL     1      42.621 -14.132   2.342  1.00  0.00     0.008 A 
ENDBRANCH   8  28
BRANCH   9  34
HETATM   34  C   UNL     1      40.152 -12.464   0.434  1.00  0.00     0.255 C 
HETATM   35  N   UNL     1      38.925 -12.973   0.059  1.00  0.00    -0.323 N 
HETATM   36  H   UNL     1      38.216 -13.083   0.767  1.00  0.00     0.169 HD
HETATM   37  O   UNL     1      41.121 -12.336  -0.309  1.00  0.00    -0.268 OA
BRANCH  35  38
HETATM   38  C   UNL     1      38.567 -13.489  -1.208  1.00  0.00     0.035 A 
HETATM   39  C   UNL     1      37.662 -12.880  -2.079  1.00  0.00     0.029 A 
HETATM   40  C   UNL     1      37.376 -13.454  -3.323  1.00  0.00     0.002 A 
HETATM   41  C   UNL     1      37.993 -14.642  -3.708  1.00  0.00     0.000 A 
HETATM   42  C   UNL     1      38.894 -15.259  -2.846  1.00  0.00     0.002 A 
HETATM   43  C   UNL     1      39.176 -14.688  -1.602  1.00  0.00     0.029 A 
ENDBRANCH  35  38
ENDBRANCH   9  34
TORSDOF 9
ENDMDL
MODEL 5
REMARK VINA RESULT:      -9.0      2.501      4.975
REMARK  9 active torsions:
REMARK  status: ('A' for Active; 'I' for Inactive)
REMARK    1  A    between atoms: C_4  and  S_5 
REMARK    2  A    between atoms: S_5  and  C_6 
REMARK    3  A    between atoms: C_6  and  C_7 
REMARK       I    between atoms: C_7  and  N_8 
REMARK    4  A    between atoms: N_8  and  C_9 
REMARK    5  A    between atoms: C_10  and  O_11 
REMARK    6  A    between atoms: C_16  and  O_17 
REMARK    7  A    between atoms: C_24  and  C_25 
REMARK    8  A    between atoms: C_31  and  C_32 
REMARK       I    between atoms: C_32  and  N_33 
REMARK    9  A    between atoms: N_33  and  C_34 
ROOT
HETATM    1  C   UNL     1      39.811 -10.226   3.015  1.00  0.00     0.069 C 
HETATM    2  C   UNL     1      40.541 -11.354   3.707  1.00  0.00     0.019 A 
HETATM    3  N   UNL     1      41.462 -10.958   4.661  1.00  0.00    -0.353 N 
HETATM    4  C   UNL     1      42.220 -11.805   5.444  1.00  0.00     0.087 A 
HETATM    5  C   UNL     1      42.037 -13.141   5.339  1.00  0.00     0.055 A 
HETATM    6  C   UNL     1      42.778 -14.118   6.236  1.00  0.00     0.019 C 
HETATM    7  N   UNL     1      43.393 -14.929   6.981  1.00  0.00    -0.096 N 
HETATM    8  C   UNL     1      41.092 -13.731   4.286  1.00  0.00     0.104 A 
HETATM    9  C   UNL     1      40.343 -12.674   3.460  1.00  0.00     0.046 A 
HETATM   10  H   UNL     1      41.439  -9.989   4.965  1.00  0.00     0.166 HD
ENDROOT
BRANCH   4  11
HETATM   11  S   UNL     1      43.392 -11.155   6.572  1.00  0.00    -0.102 SA
BRANCH  11  12
HETATM   12  C   UNL     1      42.899  -9.412   6.642  1.00  0.00     0.184 C 
BRANCH  12  13
HETATM   13  C   UNL     1      42.917  -8.828   8.053  1.00  0.00     0.231 C 
HETATM   14  N   UNL     1      42.265  -9.642   8.973  1.00  0.00    -0.324 N 
HETATM   15  H   UNL     1      41.962 -10.544   8.630  1.00  0.00     0.169 HD
HETATM   16  O   UNL     1      43.557  -7.808   8.295  1.00  0.00    -0.272 OA
BRANCH  14  17
HETATM   17  C   UNL     1      42.193  -9.488  10.381  1.00  0.00     0.071 A 
HETATM   18  C   UNL     1      42.987 -10.162  11.330  1.00  0.00     0.096 A 
HETATM   19  C   UNL     1      42.782  -9.923  12.698  1.00  0.00     0.065 A 
HETATM   20  C   UNL     1      41.805  -9.024  13.126  1.00  0.00     0.070 A 
HETATM   21 CL   UNL     1      41.599  -8.773  14.824  1.00  0.00    -0.081 Cl
HETATM   22  C   UNL     1      41.024  -8.345  12.194  1.00  0.00     0.092 A 
HETATM   23  C   UNL     1      41.245  -8.551  10.830  1.00  0.00     0.071 A 
BRANCH  18  24
HETATM   24  O   UNL     1      44.043 -10.900  10.873  1.00  0.00    -0.354 OA
HETATM   25  C   UNL     1      45.233 -10.194  10.544  1.00  0.00     0.210 C 
ENDBRANCH  18  24
BRANCH  22  26
HETATM   26  O   UNL     1      40.103  -7.423  12.622  1.00  0.00    -0.354 OA
HETATM   27  C   UNL     1      40.589  -6.087  12.513  1.00  0.00     0.210 C 
ENDBRANCH  22  26
ENDBRANCH  14  17
ENDBRANCH  12  13
ENDBRANCH  11  12
ENDBRANCH   4  11
BRANCH   8  28
HETATM   28  C   UNL     1      41.824 -14.758   3.417  1.00  0.00    -0.044 A 
HETATM   29  C   UNL     1      41.433 -16.108   3.445  1.00  0.00     0.008 A 
HETATM   30  C   UNL     1      42.096 -17.059   2.667  1.00  0.00     0.001 A 
HETATM   31  C   UNL     1      43.156 -16.675   1.850  1.00  0.00     0.000 A 
HETATM   32  C   UNL     1      43.560 -15.344   1.817  1.00  0.00     0.001 A 
HETATM   33  C   UNL     1      42.907 -14.393   2.603  1.00  0.00     0.008 A 
ENDBRANCH   8  28
BRANCH   9  34
HETATM   34  C   UNL     1      39.473 -13.097   2.300  1.00  0.00     0.255 C 
HETATM   35  N   UNL     1      40.090 -13.094   1.066  1.00  0.00    -0.323 N 
HETATM   36  H   UNL     1      41.054 -12.805   1.014  1.00  0.00     0.169 HD
HETATM   37  O   UNL     1      38.291 -13.365   2.499  1.00  0.00    -0.268 OA
BRANCH  35  38
HETATM   38  C   UNL     1      39.487 -13.335  -0.190  1.00  0.00     0.035 A 
HETATM   39  C   UNL     1      39.621 -14.521  -0.914  1.00  0.00     0.029 A 
HETATM   40  C   UNL     1      38.975 -14.680  -2.145  1.00  0.00     0.002 A 
HETATM   41  C   UNL     1      38.188 -13.655  -2.664  1.00  0.00     0.000 A 
HETATM   42  C   UNL     1      38.048 -12.468  -1.952  1.00  0.00     0.002 A 
HETATM   43  C   UNL     1      38.697 -12.307  -0.725  1.00  0.00     0.029 A 
ENDBRANCH  35  38
ENDBRANCH   9  34
TORSDOF 9
ENDMDL
MODEL 6
REMARK VINA RESULT:      -8.8      3.347     10.100
REMARK  9 active torsions:
REMARK  status: ('A' for Active; 'I' for Inactive)
REMARK    1  A    between atoms: C_4  and  S_5 
REMARK    2  A    between atoms: S_5  and  C_6 
REMARK    3  A    between atoms: C_6  and  C_7 
REMARK       I    between atoms: C_7  and  N_8 
REMARK    4  A    between atoms: N_8  and  C_9 
REMARK    5  A    between atoms: C_10  and  O_11 
REMARK    6  A    between atoms: C_16  and  O_17 
REMARK    7  A    between atoms: C_24  and  C_25 
REMARK    8  A    between atoms: C_31  and  C_32 
REMARK       I    between atoms: C_32  and  N_33 
REMARK    9  A    between atoms: N_33  and  C_34 
ROOT
HETATM    1  C   UNL     1      44.653 -10.726   8.369  1.00  0.00     0.069 C 
HETATM    2  C   UNL     1      43.411 -10.405   7.571  1.00  0.00     0.019 A 
HETATM    3  N   UNL     1      43.418 -10.864   6.266  1.00  0.00    -0.353 N 
HETATM    4  C   UNL     1      42.386 -10.722   5.360  1.00  0.00     0.087 A 
HETATM    5  C   UNL     1      41.232 -10.140   5.760  1.00  0.00     0.055 A 
HETATM    6  C   UNL     1      40.032 -10.035   4.835  1.00  0.00     0.019 C 
HETATM    7  N   UNL     1      39.035  -9.948   4.067  1.00  0.00    -0.096 N 
HETATM    8  C   UNL     1      41.097  -9.531   7.160  1.00  0.00     0.104 A 
HETATM    9  C   UNL     1      42.335  -9.728   8.048  1.00  0.00     0.046 A 
HETATM   10  H   UNL     1      44.136 -11.534   6.005  1.00  0.00     0.166 HD
ENDROOT
BRANCH   4  11
HETATM   11  S   UNL     1      42.564 -11.305   3.718  1.00  0.00    -0.102 SA
BRANCH  11  12
HETATM   12  C   UNL     1      41.711 -12.903   3.806  1.00  0.00     0.184 C 
BRANCH  12  13
HETATM   13  C   UNL     1      42.526 -13.994   4.498  1.00  0.00     0.231 C 
HETATM   14  N   UNL     1      42.067 -15.271   4.196  1.00  0.00    -0.324 N 
HETATM   15  H   UNL     1      41.342 -15.327   3.493  1.00  0.00     0.169 HD
HETATM   16  O   UNL     1      43.532 -13.705   5.139  1.00  0.00    -0.272 OA
BRANCH  14  17
HETATM   17  C   UNL     1      42.648 -16.516   4.548  1.00  0.00     0.071 A 
HETATM   18  C   UNL     1      42.759 -17.039   5.851  1.00  0.00     0.096 A 
HETATM   19  C   UNL     1      43.385 -18.280   6.047  1.00  0.00     0.065 A 
HETATM   20  C   UNL     1      43.894 -19.001   4.966  1.00  0.00     0.070 A 
HETATM   21 CL   UNL     1      44.655 -20.522   5.271  1.00  0.00    -0.081 Cl
HETATM   22  C   UNL     1      43.777 -18.496   3.674  1.00  0.00     0.092 A 
HETATM   23  C   UNL     1      43.124 -17.279   3.466  1.00  0.00     0.071 A 
BRANCH  18  24
HETATM   24  O   UNL     1      42.101 -16.392   6.860  1.00  0.00    -0.354 OA
HETATM   25  C   UNL     1      42.899 -15.747   7.845  1.00  0.00     0.210 C 
ENDBRANCH  18  24
BRANCH  22  26
HETATM   26  O   UNL     1      44.231 -19.235   2.612  1.00  0.00    -0.354 OA
HETATM   27  C   UNL     1      43.206 -20.051   2.047  1.00  0.00     0.210 C 
ENDBRANCH  22  26
ENDBRANCH  14  17
ENDBRANCH  12  13
ENDBRANCH  11  12
ENDBRANCH   4  11
BRANCH   8  28
HETATM   28  C   UNL     1      40.653  -8.068   7.074  1.00  0.00    -0.044 A 
HETATM   29  C   UNL     1      39.415  -7.676   7.614  1.00  0.00     0.008 A 
HETATM   30  C   UNL     1      38.991  -6.348   7.534  1.00  0.00     0.001 A 
HETATM   31  C   UNL     1      39.795  -5.395   6.916  1.00  0.00     0.000 A 
HETATM   32  C   UNL     1      41.019  -5.768   6.370  1.00  0.00     0.001 A 
HETATM   33  C   UNL     1      41.441  -7.098   6.437  1.00  0.00     0.008 A 
ENDBRANCH   8  28
BRANCH   9  34
HETATM   34  C   UNL     1      42.402  -9.077   9.409  1.00  0.00     0.255 C 
HETATM   35  N   UNL     1      41.771  -9.764  10.425  1.00  0.00    -0.323 N 
HETATM   36  H   UNL     1      41.306 -10.630  10.201  1.00  0.00     0.169 HD
HETATM   37  O   UNL     1      42.951  -7.985   9.529  1.00  0.00    -0.268 OA
BRANCH  35  38
HETATM   38  C   UNL     1      41.585  -9.333  11.759  1.00  0.00     0.035 A 
HETATM   39  C   UNL     1      42.504  -9.540  12.789  1.00  0.00     0.029 A 
HETATM   40  C   UNL     1      42.245  -9.066  14.080  1.00  0.00     0.002 A 
HETATM   41  C   UNL     1      41.065  -8.379  14.353  1.00  0.00     0.000 A 
HETATM   42  C   UNL     1      40.140  -8.169  13.335  1.00  0.00     0.002 A 
HETATM   43  C   UNL     1      40.397  -8.647  12.046  1.00  0.00     0.029 A 
ENDBRANCH  35  38
ENDBRANCH   9  34
TORSDOF 9
ENDMDL
MODEL 7
REMARK VINA RESULT:      -8.7      2.564      4.200
REMARK  9 active torsions:
REMARK  status: ('A' for Active; 'I' for Inactive)
REMARK    1  A    between atoms: C_4  and  S_5 
REMARK    2  A    between atoms: S_5  and  C_6 
REMARK    3  A    between atoms: C_6  and  C_7 
REMARK       I    between atoms: C_7  and  N_8 
REMARK    4  A    between atoms: N_8  and  C_9 
REMARK    5  A    between atoms: C_10  and  O_11 
REMARK    6  A    between atoms: C_16  and  O_17 
REMARK    7  A    between atoms: C_24  and  C_25 
REMARK    8  A    between atoms: C_31  and  C_32 
REMARK       I    between atoms: C_32  and  N_33 
REMARK    9  A    between atoms: N_33  and  C_34 
ROOT
HETATM    1  C   UNL     1      40.975 -13.454   0.371  1.00  0.00     0.069 C 
HETATM    2  C   UNL     1      40.710 -13.061   1.806  1.00  0.00     0.019 A 
HETATM    3  N   UNL     1      39.904 -11.949   1.970  1.00  0.00    -0.353 N 
HETATM    4  C   UNL     1      39.498 -11.424   3.181  1.00  0.00     0.087 A 
HETATM    5  C   UNL     1      39.851 -12.054   4.325  1.00  0.00     0.055 A 
HETATM    6  C   UNL     1      39.361 -11.574   5.680  1.00  0.00     0.019 C 
HETATM    7  N   UNL     1      38.955 -11.176   6.806  1.00  0.00    -0.096 N 
HETATM    8  C   UNL     1      40.790 -13.265   4.304  1.00  0.00     0.104 A 
HETATM    9  C   UNL     1      41.193 -13.717   2.893  1.00  0.00     0.046 A 
HETATM   10  H   UNL     1      39.398 -11.608   1.158  1.00  0.00     0.166 HD
ENDROOT
BRANCH   4  11
HETATM   11  S   UNL     1      38.523  -9.970   3.232  1.00  0.00    -0.102 SA
BRANCH  11  12
HETATM   12  C   UNL     1      39.785  -8.696   3.493  1.00  0.00     0.184 C 
BRANCH  12  13
HETATM   13  C   UNL     1      39.849  -8.184   4.931  1.00  0.00     0.231 C 
HETATM   14  N   UNL     1      41.041  -8.522   5.563  1.00  0.00    -0.324 N 
HETATM   15  H   UNL     1      41.743  -8.959   4.979  1.00  0.00     0.169 HD
HETATM   16  O   UNL     1      38.962  -7.460   5.372  1.00  0.00    -0.272 OA
BRANCH  14  17
HETATM   17  C   UNL     1      41.502  -8.113   6.840  1.00  0.00     0.071 A 
HETATM   18  C   UNL     1      42.152  -6.899   7.136  1.00  0.00     0.096 A 
HETATM   19  C   UNL     1      42.574  -6.644   8.450  1.00  0.00     0.065 A 
HETATM   20  C   UNL     1      42.353  -7.577   9.464  1.00  0.00     0.070 A 
HETATM   21 CL   UNL     1      42.897  -7.206  11.062  1.00  0.00    -0.081 Cl
HETATM   22  C   UNL     1      41.700  -8.773   9.182  1.00  0.00     0.092 A 
HETATM   23  C   UNL     1      41.245  -9.020   7.884  1.00  0.00     0.071 A 
BRANCH  18  24
HETATM   24  O   UNL     1      42.198  -5.942   6.161  1.00  0.00    -0.354 OA
HETATM   25  C   UNL     1      41.439  -4.759   6.378  1.00  0.00     0.210 C 
ENDBRANCH  18  24
BRANCH  22  26
HETATM   26  O   UNL     1      41.438  -9.660  10.194  1.00  0.00    -0.354 OA
HETATM   27  C   UNL     1      40.138  -9.473  10.751  1.00  0.00     0.210 C 
ENDBRANCH  22  26
ENDBRANCH  14  17
ENDBRANCH  12  13
ENDBRANCH  11  12
ENDBRANCH   4  11
BRANCH   8  28
HETATM   28  C   UNL     1      41.993 -13.034   5.223  1.00  0.00    -0.044 A 
HETATM   29  C   UNL     1      42.288 -13.957   6.241  1.00  0.00     0.008 A 
HETATM   30  C   UNL     1      43.376 -13.755   7.093  1.00  0.00     0.001 A 
HETATM   31  C   UNL     1      44.183 -12.631   6.940  1.00  0.00     0.000 A 
HETATM   32  C   UNL     1      43.900 -11.705   5.941  1.00  0.00     0.001 A 
HETATM   33  C   UNL     1      42.806 -11.897   5.095  1.00  0.00     0.008 A 
ENDBRANCH   8  28
BRANCH   9  34
HETATM   34  C   UNL     1      42.212 -14.817   2.712  1.00  0.00     0.255 C 
HETATM   35  N   UNL     1      41.810 -16.069   3.130  1.00  0.00    -0.323 N 
HETATM   36  H   UNL     1      40.890 -16.168   3.531  1.00  0.00     0.169 HD
HETATM   37  O   UNL     1      43.323 -14.544   2.265  1.00  0.00    -0.268 OA
BRANCH  35  38
HETATM   38  C   UNL     1      42.595 -17.245   3.181  1.00  0.00     0.035 A 
HETATM   39  C   UNL     1      42.650 -18.199   2.164  1.00  0.00     0.029 A 
HETATM   40  C   UNL     1      43.468 -19.328   2.292  1.00  0.00     0.002 A 
HETATM   41  C   UNL     1      44.238 -19.512   3.437  1.00  0.00     0.000 A 
HETATM   42  C   UNL     1      44.190 -18.569   4.458  1.00  0.00     0.002 A 
HETATM   43  C   UNL     1      43.370 -17.444   4.332  1.00  0.00     0.029 A 
ENDBRANCH  35  38
ENDBRANCH   9  34
TORSDOF 9
ENDMDL
MODEL 8
REMARK VINA RESULT:      -8.7      5.474      8.586
REMARK  9 active torsions:
REMARK  status: ('A' for Active; 'I' for Inactive)
REMARK    1  A    between atoms: C_4  and  S_5 
REMARK    2  A    between atoms: S_5  and  C_6 
REMARK    3  A    between atoms: C_6  and  C_7 
REMARK       I    between atoms: C_7  and  N_8 
REMARK    4  A    between atoms: N_8  and  C_9 
REMARK    5  A    between atoms: C_10  and  O_11 
REMARK    6  A    between atoms: C_16  and  O_17 
REMARK    7  A    between atoms: C_24  and  C_25 
REMARK    8  A    between atoms: C_31  and  C_32 
REMARK       I    between atoms: C_32  and  N_33 
REMARK    9  A    between atoms: N_33  and  C_34 
ROOT
HETATM    1  C   UNL     1      40.876 -13.411   0.407  1.00  0.00     0.069 C 
HETATM    2  C   UNL     1      40.730 -12.929   1.832  1.00  0.00     0.019 A 
HETATM    3  N   UNL     1      39.953 -11.795   1.991  1.00  0.00    -0.353 N 
HETATM    4  C   UNL     1      39.649 -11.193   3.195  1.00  0.00     0.087 A 
HETATM    5  C   UNL     1      40.084 -11.759   4.344  1.00  0.00     0.055 A 
HETATM    6  C   UNL     1      39.708 -11.191   5.702  1.00  0.00     0.019 C 
HETATM    7  N   UNL     1      39.397 -10.720   6.830  1.00  0.00    -0.096 N 
HETATM    8  C   UNL     1      41.004 -12.985   4.324  1.00  0.00     0.104 A 
HETATM    9  C   UNL     1      41.290 -13.527   2.915  1.00  0.00     0.046 A 
HETATM   10  H   UNL     1      39.388 -11.496   1.201  1.00  0.00     0.166 HD
ENDROOT
BRANCH   4  11
HETATM   11  S   UNL     1      38.698  -9.723   3.234  1.00  0.00    -0.102 SA
BRANCH  11  12
HETATM   12  C   UNL     1      39.974  -8.459   2.989  1.00  0.00     0.184 C 
BRANCH  12  13
HETATM   13  C   UNL     1      40.042  -7.927   1.559  1.00  0.00     0.231 C 
HETATM   14  N   UNL     1      41.270  -8.181   0.956  1.00  0.00    -0.324 N 
HETATM   15  H   UNL     1      41.909  -8.762   1.481  1.00  0.00     0.169 HD
HETATM   16  O   UNL     1      39.046  -7.446   1.027  1.00  0.00    -0.272 OA
BRANCH  14  17
HETATM   17  C   UNL     1      41.647  -7.951  -0.392  1.00  0.00     0.071 A 
HETATM   18  C   UNL     1      41.392  -8.807  -1.481  1.00  0.00     0.096 A 
HETATM   19  C   UNL     1      41.851  -8.455  -2.760  1.00  0.00     0.065 A 
HETATM   20  C   UNL     1      42.552  -7.265  -2.963  1.00  0.00     0.070 A 
HETATM   21 CL   UNL     1      43.094  -6.887  -4.560  1.00  0.00    -0.081 Cl
HETATM   22  C   UNL     1      42.797  -6.408  -1.894  1.00  0.00     0.092 A 
HETATM   23  C   UNL     1      42.314  -6.734  -0.624  1.00  0.00     0.071 A 
BRANCH  18  24
HETATM   24  O   UNL     1      40.559  -9.871  -1.278  1.00  0.00    -0.354 OA
HETATM   25  C   UNL     1      39.235  -9.765  -1.787  1.00  0.00     0.210 C 
ENDBRANCH  18  24
BRANCH  22  26
HETATM   26  O   UNL     1      43.440  -5.216  -2.112  1.00  0.00    -0.354 OA
HETATM   27  C   UNL     1      44.411  -4.937  -1.105  1.00  0.00     0.210 C 
ENDBRANCH  22  26
ENDBRANCH  14  17
ENDBRANCH  12  13
ENDBRANCH  11  12
ENDBRANCH   4  11
BRANCH   8  28
HETATM   28  C   UNL     1      42.279 -12.719   5.130  1.00  0.00    -0.044 A 
HETATM   29  C   UNL     1      42.577 -13.508   6.255  1.00  0.00     0.008 A 
HETATM   30  C   UNL     1      43.730 -13.271   7.006  1.00  0.00     0.001 A 
HETATM   31  C   UNL     1      44.600 -12.246   6.644  1.00  0.00     0.000 A 
HETATM   32  C   UNL     1      44.316 -11.452   5.538  1.00  0.00     0.001 A 
HETATM   33  C   UNL     1      43.157 -11.678   4.792  1.00  0.00     0.008 A 
ENDBRANCH   8  28
BRANCH   9  34
HETATM   34  C   UNL     1      42.278 -14.652   2.723  1.00  0.00     0.255 C 
HETATM   35  N   UNL     1      41.874 -15.882   3.200  1.00  0.00    -0.323 N 
HETATM   36  H   UNL     1      40.973 -15.949   3.647  1.00  0.00     0.169 HD
HETATM   37  O   UNL     1      43.371 -14.416   2.215  1.00  0.00    -0.268 OA
BRANCH  35  38
HETATM   38  C   UNL     1      42.638 -17.070   3.252  1.00  0.00     0.035 A 
HETATM   39  C   UNL     1      42.648 -18.045   2.253  1.00  0.00     0.029 A 
HETATM   40  C   UNL     1      43.448 -19.187   2.380  1.00  0.00     0.002 A 
HETATM   41  C   UNL     1      44.247 -19.363   3.507  1.00  0.00     0.000 A 
HETATM   42  C   UNL     1      44.244 -18.399   4.510  1.00  0.00     0.002 A 
HETATM   43  C   UNL     1      43.441 -17.262   4.385  1.00  0.00     0.029 A 
ENDBRANCH  35  38
ENDBRANCH   9  34
TORSDOF 9
ENDMDL
MODEL 9
REMARK VINA RESULT:      -8.5      6.331      9.671
REMARK  9 active torsions:
REMARK  status: ('A' for Active; 'I' for Inactive)
REMARK    1  A    between atoms: C_4  and  S_5 
REMARK    2  A    between atoms: S_5  and  C_6 
REMARK    3  A    between atoms: C_6  and  C_7 
REMARK       I    between atoms: C_7  and  N_8 
REMARK    4  A    between atoms: N_8  and  C_9 
REMARK    5  A    between atoms: C_10  and  O_11 
REMARK    6  A    between atoms: C_16  and  O_17 
REMARK    7  A    between atoms: C_24  and  C_25 
REMARK    8  A    between atoms: C_31  and  C_32 
REMARK       I    between atoms: C_32  and  N_33 
REMARK    9  A    between atoms: N_33  and  C_34 
ROOT
HETATM    1  C   UNL     1      39.820 -15.749   0.794  1.00  0.00     0.069 C 
HETATM    2  C   UNL     1      39.802 -14.484   1.622  1.00  0.00     0.019 A 
HETATM    3  N   UNL     1      39.301 -13.368   0.976  1.00  0.00    -0.353 N 
HETATM    4  C   UNL     1      39.153 -12.115   1.538  1.00  0.00     0.087 A 
HETATM    5  C   UNL     1      39.463 -11.937   2.843  1.00  0.00     0.055 A 
HETATM    6  C   UNL     1      39.239 -10.604   3.537  1.00  0.00     0.019 C 
HETATM    7  N   UNL     1      39.053  -9.498   4.114  1.00  0.00    -0.096 N 
HETATM    8  C   UNL     1      40.083 -13.067   3.671  1.00  0.00     0.104 A 
HETATM    9  C   UNL     1      40.224 -14.394   2.909  1.00  0.00     0.046 A 
HETATM   10  H   UNL     1      38.809 -13.511   0.099  1.00  0.00     0.166 HD
ENDROOT
BRANCH   4  11
HETATM   11  S   UNL     1      38.558 -10.779   0.575  1.00  0.00    -0.102 SA
BRANCH  11  12
HETATM   12  C   UNL     1      38.176 -11.604  -0.993  1.00  0.00     0.184 C 
BRANCH  12  13
HETATM   13  C   UNL     1      39.054 -11.146  -2.156  1.00  0.00     0.231 C 
HETATM   14  N   UNL     1      39.181  -9.762  -2.211  1.00  0.00    -0.324 N 
HETATM   15  H   UNL     1      38.779  -9.249  -1.437  1.00  0.00     0.169 HD
HETATM   16  O   UNL     1      39.644 -11.968  -2.850  1.00  0.00    -0.272 OA
BRANCH  14  17
HETATM   17  C   UNL     1      40.012  -8.993  -3.065  1.00  0.00     0.071 A 
HETATM   18  C   UNL     1      39.769  -8.711  -4.423  1.00  0.00     0.096 A 
HETATM   19  C   UNL     1      40.700  -7.953  -5.150  1.00  0.00     0.065 A 
HETATM   20  C   UNL     1      41.860  -7.473  -4.541  1.00  0.00     0.070 A 
HETATM   21 CL   UNL     1      42.969  -6.546  -5.488  1.00  0.00    -0.081 Cl
HETATM   22  C   UNL     1      42.102  -7.737  -3.195  1.00  0.00     0.092 A 
HETATM   23  C   UNL     1      41.163  -8.461  -2.456  1.00  0.00     0.071 A 
BRANCH  18  24
HETATM   24  O   UNL     1      38.548  -9.047  -4.939  1.00  0.00    -0.354 OA
HETATM   25  C   UNL     1      38.266  -8.623  -6.267  1.00  0.00     0.210 C 
ENDBRANCH  18  24
BRANCH  22  26
HETATM   26  O   UNL     1      43.217  -7.217  -2.590  1.00  0.00    -0.354 OA
HETATM   27  C   UNL     1      43.067  -7.125  -1.175  1.00  0.00     0.210 C 
ENDBRANCH  22  26
ENDBRANCH  14  17
ENDBRANCH  12  13
ENDBRANCH  11  12
ENDBRANCH   4  11
BRANCH   8  28
HETATM   28  C   UNL     1      41.393 -12.609   4.317  1.00  0.00    -0.044 A 
HETATM   29  C   UNL     1      42.463 -12.180   3.511  1.00  0.00     0.008 A 
HETATM   30  C   UNL     1      43.668 -11.769   4.084  1.00  0.00     0.001 A 
HETATM   31  C   UNL     1      43.821 -11.778   5.467  1.00  0.00     0.000 A 
HETATM   32  C   UNL     1      42.775 -12.206   6.279  1.00  0.00     0.001 A 
HETATM   33  C   UNL     1      41.573 -12.630   5.709  1.00  0.00     0.008 A 
ENDBRANCH   8  28
BRANCH   9  34
HETATM   34  C   UNL     1      40.932 -15.563   3.550  1.00  0.00     0.255 C 
HETATM   35  N   UNL     1      42.131 -15.920   2.968  1.00  0.00    -0.323 N 
HETATM   36  H   UNL     1      42.447 -15.399   2.165  1.00  0.00     0.169 HD
HETATM   37  O   UNL     1      40.401 -16.148   4.491  1.00  0.00    -0.268 OA
BRANCH  35  38
HETATM   38  C   UNL     1      42.938 -17.035   3.292  1.00  0.00     0.035 A 
HETATM   39  C   UNL     1      43.706 -17.141   4.453  1.00  0.00     0.029 A 
HETATM   40  C   UNL     1      44.466 -18.290   4.701  1.00  0.00     0.002 A 
HETATM   41  C   UNL     1      44.464 -19.344   3.791  1.00  0.00     0.000 A 
HETATM   42  C   UNL     1      43.704 -19.249   2.630  1.00  0.00     0.002 A 
HETATM   43  C   UNL     1      42.949 -18.099   2.380  1.00  0.00     0.029 A 
ENDBRANCH  35  38
ENDBRANCH   9  34
TORSDOF 9
ENDMDL
MODEL 10
REMARK VINA RESULT:      -8.5      6.491      9.862
REMARK  9 active torsions:
REMARK  status: ('A' for Active; 'I' for Inactive)
REMARK    1  A    between atoms: C_4  and  S_5 
REMARK    2  A    between atoms: S_5  and  C_6 
REMARK    3  A    between atoms: C_6  and  C_7 
REMARK       I    between atoms: C_7  and  N_8 
REMARK    4  A    between atoms: N_8  and  C_9 
REMARK    5  A    between atoms: C_10  and  O_11 
REMARK    6  A    between atoms: C_16  and  O_17 
REMARK    7  A    between atoms: C_24  and  C_25 
REMARK    8  A    between atoms: C_31  and  C_32 
REMARK       I    between atoms: C_32  and  N_33 
REMARK    9  A    between atoms: N_33  and  C_34 
ROOT
HETATM    1  C   UNL     1      39.825 -15.846   0.764  1.00  0.00     0.069 C 
HETATM    2  C   UNL     1      39.851 -14.507   1.463  1.00  0.00     0.019 A 
HETATM    3  N   UNL     1      39.377 -13.445   0.713  1.00  0.00    -0.353 N 
HETATM    4  C   UNL     1      39.271 -12.139   1.149  1.00  0.00     0.087 A 
HETATM    5  C   UNL     1      39.596 -11.842   2.428  1.00  0.00     0.055 A 
HETATM    6  C   UNL     1      39.417 -10.441   2.988  1.00  0.00     0.019 C 
HETATM    7  N   UNL     1      39.269  -9.279   3.454  1.00  0.00    -0.096 N 
HETATM    8  C   UNL     1      40.191 -12.903   3.361  1.00  0.00     0.104 A 
HETATM    9  C   UNL     1      40.287 -14.302   2.733  1.00  0.00     0.046 A 
HETATM   10  H   UNL     1      38.874 -13.659  -0.143  1.00  0.00     0.166 HD
ENDROOT
BRANCH   4  11
HETATM   11  S   UNL     1      38.705 -10.888   0.062  1.00  0.00    -0.102 SA
BRANCH  11  12
HETATM   12  C   UNL     1      38.753 -11.745  -1.534  1.00  0.00     0.184 C 
BRANCH  12  13
HETATM   13  C   UNL     1      39.777 -11.167  -2.509  1.00  0.00     0.231 C 
HETATM   14  N   UNL     1      39.691  -9.783  -2.611  1.00  0.00    -0.324 N 
HETATM   15  H   UNL     1      39.054  -9.330  -1.969  1.00  0.00     0.169 HD
HETATM   16  O   UNL     1      40.628 -11.892  -3.017  1.00  0.00    -0.272 OA
BRANCH  14  17
HETATM   17  C   UNL     1      40.553  -8.902  -3.312  1.00  0.00     0.071 A 
HETATM   18  C   UNL     1      41.717  -8.298  -2.796  1.00  0.00     0.096 A 
HETATM   19  C   UNL     1      42.459  -7.424  -3.606  1.00  0.00     0.065 A 
HETATM   20  C   UNL     1      42.059  -7.151  -4.915  1.00  0.00     0.070 A 
HETATM   21 CL   UNL     1      43.014  -6.065  -5.862  1.00  0.00    -0.081 Cl
HETATM   22  C   UNL     1      40.917  -7.754  -5.435  1.00  0.00     0.092 A 
HETATM   23  C   UNL     1      40.192  -8.652  -4.648  1.00  0.00     0.071 A 
BRANCH  18  24
HETATM   24  O   UNL     1      42.171  -8.718  -1.577  1.00  0.00    -0.354 OA
HETATM   25  C   UNL     1      41.818  -7.930  -0.447  1.00  0.00     0.210 C 
ENDBRANCH  18  24
BRANCH  22  26
HETATM   26  O   UNL     1      40.561  -7.523  -6.739  1.00  0.00    -0.354 OA
HETATM   27  C   UNL     1      39.280  -8.067  -7.051  1.00  0.00     0.210 C 
ENDBRANCH  22  26
ENDBRANCH  14  17
ENDBRANCH  12  13
ENDBRANCH  11  12
ENDBRANCH   4  11
BRANCH   8  28
HETATM   28  C   UNL     1      41.520 -12.422   3.950  1.00  0.00    -0.044 A 
HETATM   29  C   UNL     1      42.595 -12.110   3.099  1.00  0.00     0.008 A 
HETATM   30  C   UNL     1      43.816 -11.680   3.622  1.00  0.00     0.001 A 
HETATM   31  C   UNL     1      43.981 -11.554   4.998  1.00  0.00     0.000 A 
HETATM   32  C   UNL     1      42.929 -11.866   5.854  1.00  0.00     0.001 A 
HETATM   33  C   UNL     1      41.710 -12.308   5.336  1.00  0.00     0.008 A 
ENDBRANCH   8  28
BRANCH   9  34
HETATM   34  C   UNL     1      40.967 -15.423   3.482  1.00  0.00     0.255 C 
HETATM   35  N   UNL     1      42.226 -15.759   3.029  1.00  0.00    -0.323 N 
HETATM   36  H   UNL     1      42.600 -15.257   2.238  1.00  0.00     0.169 HD
HETATM   37  O   UNL     1      40.368 -15.991   4.391  1.00  0.00    -0.268 OA
BRANCH  35  38
HETATM   38  C   UNL     1      43.032 -16.833   3.469  1.00  0.00     0.035 A 
HETATM   39  C   UNL     1      43.670 -16.883   4.711  1.00  0.00     0.029 A 
HETATM   40  C   UNL     1      44.439 -17.995   5.072  1.00  0.00     0.002 A 
HETATM   41  C   UNL     1      44.577 -19.068   4.196  1.00  0.00     0.000 A 
HETATM   42  C   UNL     1      43.949 -19.029   2.956  1.00  0.00     0.002 A 
HETATM   43  C   UNL     1      43.184 -17.917   2.593  1.00  0.00     0.029 A 
ENDBRANCH  35  38
ENDBRANCH   9  34
TORSDOF 9
ENDMDL
