MODEL 1
REMARK VINA RESULT:      -8.1      0.000      0.000
REMARK  4 active torsions:
REMARK  status: ('A' for Active; 'I' for Inactive)
REMARK    1  A    between atoms: C_9  and  C_10 
REMARK    2  A    between atoms: C_22  and  C_23 
REMARK    3  A    between atoms: C_23  and  C_24 
REMARK    4  A    between atoms: C_24  and  O_25 
ROOT
HETATM    1  C   UNL     1      38.995 -15.037  -2.012  1.00  0.00     0.069 C 
HETATM    2  C   UNL     1      39.600 -13.918  -1.197  1.00  0.00     0.018 A 
HETATM    3  N   UNL     1      40.305 -14.318  -0.071  1.00  0.00    -0.343 N 
HETATM    4  C   UNL     1      40.990 -13.442   0.698  1.00  0.00     0.146 A 
HETATM    5  N   UNL     1      40.901 -12.101   0.398  1.00  0.00    -0.179 N 
HETATM    6  N   UNL     1      41.628 -11.333   1.252  1.00  0.00    -0.167 NA
HETATM    7  C   UNL     1      42.195 -12.215   2.087  1.00  0.00     0.066 A 
HETATM    8  C   UNL     1      43.082 -11.731   3.175  1.00  0.00     0.073 C 
HETATM    9  C   UNL     1      41.835 -13.559   1.779  1.00  0.00     0.047 A 
HETATM   10  C   UNL     1      40.168 -11.577  -0.677  1.00  0.00     0.278 A 
HETATM   11  O   UNL     1      40.114 -10.371  -0.893  1.00  0.00    -0.265 OA
HETATM   12  C   UNL     1      39.499 -12.612  -1.545  1.00  0.00     0.036 A 
HETATM   13  H   UNL     1      40.352 -15.322   0.115  1.00  0.00     0.167 HD
ENDROOT
BRANCH   9  14
HETATM   14  C   UNL     1      42.176 -14.814   2.437  1.00  0.00    -0.009 A 
HETATM   15  C   UNL     1      41.738 -15.136   3.756  1.00  0.00    -0.015 A 
HETATM   16  C   UNL     1      42.187 -16.352   4.334  1.00  0.00    -0.025 A 
HETATM   17  C   UNL     1      40.876 -14.328   4.540  1.00  0.00     0.013 A 
HETATM   18  C   UNL     1      41.813 -16.691   5.645  1.00  0.00     0.012 A 
HETATM   19  C   UNL     1      43.005 -17.220   3.597  1.00  0.00     0.012 A 
HETATM   20  C   UNL     1      40.991 -15.855   6.399  1.00  0.00     0.001 A 
HETATM   21  C   UNL     1      40.516 -14.676   5.843  1.00  0.00     0.001 A 
HETATM   22  C   UNL     1      43.399 -16.906   2.299  1.00  0.00     0.002 A 
HETATM   23  C   UNL     1      42.993 -15.707   1.725  1.00  0.00     0.013 A 
ENDBRANCH   9  14
BRANCH  12  24
HETATM   24  C   UNL     1      38.742 -12.052  -2.725  1.00  0.00     0.072 C 
BRANCH  24  25
HETATM   25  C   UNL     1      37.258 -11.827  -2.432  1.00  0.00     0.169 C 
BRANCH  25  26
HETATM   26  O   UNL     1      36.447 -12.588  -3.322  1.00  0.00    -0.401 OA
HETATM   27  H   UNL     1      36.102 -11.973  -3.992  1.00  0.00     0.209 HD
ENDBRANCH  25  26
ENDBRANCH  24  25
ENDBRANCH  12  24
TORSDOF 4
ENDMDL
MODEL 2
REMARK VINA RESULT:      -8.1      5.214      7.302
REMARK  4 active torsions:
REMARK  status: ('A' for Active; 'I' for Inactive)
REMARK    1  A    between atoms: C_9  and  C_10 
REMARK    2  A    between atoms: C_22  and  C_23 
REMARK    3  A    between atoms: C_23  and  C_24 
REMARK    4  A    between atoms: C_24  and  O_25 
ROOT
HETATM    1  C   UNL     1      42.884 -16.336   1.221  1.00  0.00     0.069 C 
HETATM    2  C   UNL     1      43.230 -16.697   2.645  1.00  0.00     0.018 A 
HETATM    3  N   UNL     1      42.954 -15.719   3.590  1.00  0.00    -0.343 N 
HETATM    4  C   UNL     1      43.110 -15.934   4.915  1.00  0.00     0.146 A 
HETATM    5  N   UNL     1      43.650 -17.132   5.323  1.00  0.00    -0.179 N 
HETATM    6  N   UNL     1      43.760 -17.214   6.676  1.00  0.00    -0.167 NA
HETATM    7  C   UNL     1      43.262 -16.050   7.118  1.00  0.00     0.066 A 
HETATM    8  C   UNL     1      43.215 -15.778   8.577  1.00  0.00     0.073 C 
HETATM    9  C   UNL     1      42.829 -15.209   6.051  1.00  0.00     0.047 A 
HETATM   10  C   UNL     1      44.024 -18.170   4.456  1.00  0.00     0.278 A 
HETATM   11  O   UNL     1      44.510 -19.215   4.872  1.00  0.00    -0.265 OA
HETATM   12  C   UNL     1      43.744 -17.901   2.999  1.00  0.00     0.036 A 
HETATM   13  H   UNL     1      42.550 -14.845   3.247  1.00  0.00     0.167 HD
ENDROOT
BRANCH   9  14
HETATM   14  C   UNL     1      42.274 -13.862   6.064  1.00  0.00    -0.009 A 
HETATM   15  C   UNL     1      43.046 -12.713   6.411  1.00  0.00    -0.015 A 
HETATM   16  C   UNL     1      42.392 -11.455   6.464  1.00  0.00    -0.025 A 
HETATM   17  C   UNL     1      44.433 -12.732   6.705  1.00  0.00     0.013 A 
HETATM   18  C   UNL     1      43.104 -10.304   6.839  1.00  0.00     0.012 A 
HETATM   19  C   UNL     1      41.030 -11.357   6.140  1.00  0.00     0.012 A 
HETATM   20  C   UNL     1      44.460 -10.366   7.155  1.00  0.00     0.001 A 
HETATM   21  C   UNL     1      45.128 -11.580   7.080  1.00  0.00     0.001 A 
HETATM   22  C   UNL     1      40.297 -12.483   5.774  1.00  0.00     0.002 A 
HETATM   23  C   UNL     1      40.914 -13.729   5.743  1.00  0.00     0.013 A 
ENDBRANCH   9  14
BRANCH  12  24
HETATM   24  C   UNL     1      44.110 -19.031   2.067  1.00  0.00     0.072 C 
BRANCH  24  25
HETATM   25  C   UNL     1      43.174 -20.235   2.190  1.00  0.00     0.169 C 
BRANCH  25  26
HETATM   26  O   UNL     1      43.825 -21.315   2.851  1.00  0.00    -0.401 OA
HETATM   27  H   UNL     1      43.605 -22.126   2.361  1.00  0.00     0.209 HD
ENDBRANCH  25  26
ENDBRANCH  24  25
ENDBRANCH  12  24
TORSDOF 4
ENDMDL
MODEL 3
REMARK VINA RESULT:      -7.9      4.094      6.553
REMARK  4 active torsions:
REMARK  status: ('A' for Active; 'I' for Inactive)
REMARK    1  A    between atoms: C_9  and  C_10 
REMARK    2  A    between atoms: C_22  and  C_23 
REMARK    3  A    between atoms: C_23  and  C_24 
REMARK    4  A    between atoms: C_24  and  O_25 
ROOT
HETATM    1  C   UNL     1      45.314 -11.623   6.952  1.00  0.00     0.069 C 
HETATM    2  C   UNL     1      43.941 -11.485   6.339  1.00  0.00     0.018 A 
HETATM    3  N   UNL     1      43.595 -12.473   5.428  1.00  0.00    -0.343 N 
HETATM    4  C   UNL     1      42.362 -12.543   4.877  1.00  0.00     0.146 A 
HETATM    5  N   UNL     1      41.460 -11.544   5.163  1.00  0.00    -0.179 N 
HETATM    6  N   UNL     1      40.267 -11.731   4.540  1.00  0.00    -0.167 NA
HETATM    7  C   UNL     1      40.425 -12.880   3.866  1.00  0.00     0.066 A 
HETATM    8  C   UNL     1      39.303 -13.415   3.053  1.00  0.00     0.073 C 
HETATM    9  C   UNL     1      41.723 -13.439   4.050  1.00  0.00     0.047 A 
HETATM   10  C   UNL     1      41.720 -10.463   6.020  1.00  0.00     0.278 A 
HETATM   11  O   UNL     1      40.883  -9.594   6.234  1.00  0.00    -0.265 OA
HETATM   12  C   UNL     1      43.080 -10.490   6.669  1.00  0.00     0.036 A 
HETATM   13  H   UNL     1      44.289 -13.199   5.245  1.00  0.00     0.167 HD
ENDROOT
BRANCH   9  14
HETATM   14  C   UNL     1      42.336 -14.633   3.483  1.00  0.00    -0.009 A 
HETATM   15  C   UNL     1      42.663 -15.779   4.268  1.00  0.00    -0.015 A 
HETATM   16  C   UNL     1      43.325 -16.861   3.634  1.00  0.00    -0.025 A 
HETATM   17  C   UNL     1      42.369 -15.921   5.648  1.00  0.00     0.013 A 
HETATM   18  C   UNL     1      43.701 -17.993   4.377  1.00  0.00     0.012 A 
HETATM   19  C   UNL     1      43.605 -16.806   2.260  1.00  0.00     0.012 A 
HETATM   20  C   UNL     1      43.425 -18.084   5.740  1.00  0.00     0.001 A 
HETATM   21  C   UNL     1      42.751 -17.050   6.375  1.00  0.00     0.001 A 
HETATM   22  C   UNL     1      43.253 -15.694   1.500  1.00  0.00     0.002 A 
HETATM   23  C   UNL     1      42.629 -14.611   2.110  1.00  0.00     0.013 A 
ENDBRANCH   9  14
BRANCH  12  24
HETATM   24  C   UNL     1      43.348  -9.349   7.621  1.00  0.00     0.072 C 
BRANCH  24  25
HETATM   25  C   UNL     1      43.013  -9.692   9.074  1.00  0.00     0.169 C 
BRANCH  25  26
HETATM   26  O   UNL     1      41.604  -9.699   9.278  1.00  0.00    -0.401 OA
HETATM   27  H   UNL     1      41.188  -9.566   8.409  1.00  0.00     0.209 HD
ENDBRANCH  25  26
ENDBRANCH  24  25
ENDBRANCH  12  24
TORSDOF 4
ENDMDL
MODEL 4
REMARK VINA RESULT:      -7.7      3.245      7.023
REMARK  4 active torsions:
REMARK  status: ('A' for Active; 'I' for Inactive)
REMARK    1  A    between atoms: C_9  and  C_10 
REMARK    2  A    between atoms: C_22  and  C_23 
REMARK    3  A    between atoms: C_23  and  C_24 
REMARK    4  A    between atoms: C_24  and  O_25 
ROOT
HETATM    1  C   UNL     1      43.132 -17.658   2.245  1.00  0.00     0.069 C 
HETATM    2  C   UNL     1      42.314 -16.505   2.774  1.00  0.00     0.018 A 
HETATM    3  N   UNL     1      41.714 -15.709   1.808  1.00  0.00    -0.343 N 
HETATM    4  C   UNL     1      40.867 -14.705   2.128  1.00  0.00     0.146 A 
HETATM    5  N   UNL     1      40.674 -14.412   3.458  1.00  0.00    -0.179 N 
HETATM    6  N   UNL     1      39.809 -13.379   3.638  1.00  0.00    -0.167 NA
HETATM    7  C   UNL     1      39.442 -13.036   2.394  1.00  0.00     0.066 A 
HETATM    8  C   UNL     1      38.481 -11.923   2.193  1.00  0.00     0.073 C 
HETATM    9  C   UNL     1      40.072 -13.845   1.404  1.00  0.00     0.047 A 
HETATM   10  C   UNL     1      41.275 -15.106   4.518  1.00  0.00     0.278 A 
HETATM   11  O   UNL     1      41.077 -14.797   5.688  1.00  0.00    -0.265 OA
HETATM   12  C   UNL     1      42.139 -16.268   4.097  1.00  0.00     0.036 A 
HETATM   13  H   UNL     1      41.878 -15.963   0.832  1.00  0.00     0.167 HD
ENDROOT
BRANCH   9  14
HETATM   14  C   UNL     1      40.003 -13.799  -0.051  1.00  0.00    -0.009 A 
HETATM   15  C   UNL     1      40.440 -12.671  -0.808  1.00  0.00    -0.015 A 
HETATM   16  C   UNL     1      40.261 -12.697  -2.215  1.00  0.00    -0.025 A 
HETATM   17  C   UNL     1      41.050 -11.516  -0.256  1.00  0.00     0.013 A 
HETATM   18  C   UNL     1      40.641 -11.593  -2.996  1.00  0.00     0.012 A 
HETATM   19  C   UNL     1      39.706 -13.828  -2.832  1.00  0.00     0.012 A 
HETATM   20  C   UNL     1      41.207 -10.460  -2.415  1.00  0.00     0.001 A 
HETATM   21  C   UNL     1      41.419 -10.424  -1.044  1.00  0.00     0.001 A 
HETATM   22  C   UNL     1      39.312 -14.934  -2.083  1.00  0.00     0.002 A 
HETATM   23  C   UNL     1      39.453 -14.916  -0.700  1.00  0.00     0.013 A 
ENDBRANCH   9  14
BRANCH  12  24
HETATM   24  C   UNL     1      42.756 -17.042   5.238  1.00  0.00     0.072 C 
BRANCH  24  25
HETATM   25  C   UNL     1      44.132 -16.512   5.646  1.00  0.00     0.169 C 
BRANCH  25  26
HETATM   26  O   UNL     1      44.004 -15.448   6.585  1.00  0.00    -0.401 OA
HETATM   27  H   UNL     1      43.823 -15.852   7.451  1.00  0.00     0.209 HD
ENDBRANCH  25  26
ENDBRANCH  24  25
ENDBRANCH  12  24
TORSDOF 4
ENDMDL
MODEL 5
REMARK VINA RESULT:      -7.6      1.800      2.985
REMARK  4 active torsions:
REMARK  status: ('A' for Active; 'I' for Inactive)
REMARK    1  A    between atoms: C_9  and  C_10 
REMARK    2  A    between atoms: C_22  and  C_23 
REMARK    3  A    between atoms: C_23  and  C_24 
REMARK    4  A    between atoms: C_24  and  O_25 
ROOT
HETATM    1  C   UNL     1      39.481 -16.164   0.386  1.00  0.00     0.069 C 
HETATM    2  C   UNL     1      40.213 -14.891   0.738  1.00  0.00     0.018 A 
HETATM    3  N   UNL     1      40.870 -14.902   1.960  1.00  0.00    -0.343 N 
HETATM    4  C   UNL     1      41.654 -13.877   2.365  1.00  0.00     0.146 A 
HETATM    5  N   UNL     1      41.720 -12.754   1.574  1.00  0.00    -0.179 N 
HETATM    6  N   UNL     1      42.534 -11.800   2.100  1.00  0.00    -0.167 NA
HETATM    7  C   UNL     1      42.997 -12.350   3.231  1.00  0.00     0.066 A 
HETATM    8  C   UNL     1      43.937 -11.585   4.089  1.00  0.00     0.073 C 
HETATM    9  C   UNL     1      42.481 -13.662   3.444  1.00  0.00     0.047 A 
HETATM   10  C   UNL     1      41.051 -12.605   0.349  1.00  0.00     0.278 A 
HETATM   11  O   UNL     1      41.137 -11.577  -0.313  1.00  0.00    -0.265 OA
HETATM   12  C   UNL     1      40.264 -13.815  -0.086  1.00  0.00     0.036 A 
HETATM   13  H   UNL     1      40.800 -15.756   2.516  1.00  0.00     0.167 HD
ENDROOT
BRANCH   9  14
HETATM   14  C   UNL     1      42.676 -14.597   4.544  1.00  0.00    -0.009 A 
HETATM   15  C   UNL     1      43.137 -15.933   4.349  1.00  0.00    -0.015 A 
HETATM   16  C   UNL     1      43.223 -16.786   5.479  1.00  0.00    -0.025 A 
HETATM   17  C   UNL     1      43.526 -16.477   3.098  1.00  0.00     0.013 A 
HETATM   18  C   UNL     1      43.635 -18.121   5.328  1.00  0.00     0.012 A 
HETATM   19  C   UNL     1      42.898 -16.298   6.754  1.00  0.00     0.012 A 
HETATM   20  C   UNL     1      43.976 -18.632   4.077  1.00  0.00     0.001 A 
HETATM   21  C   UNL     1      43.929 -17.806   2.962  1.00  0.00     0.001 A 
HETATM   22  C   UNL     1      42.478 -14.983   6.934  1.00  0.00     0.002 A 
HETATM   23  C   UNL     1      42.361 -14.140   5.834  1.00  0.00     0.013 A 
ENDBRANCH   9  14
BRANCH  12  24
HETATM   24  C   UNL     1      39.575 -13.673  -1.422  1.00  0.00     0.072 C 
BRANCH  24  25
HETATM   25  C   UNL     1      40.419 -14.187  -2.589  1.00  0.00     0.169 C 
BRANCH  25  26
HETATM   26  O   UNL     1      41.209 -13.137  -3.140  1.00  0.00    -0.401 OA
HETATM   27  H   UNL     1      40.734 -12.304  -2.974  1.00  0.00     0.209 HD
ENDBRANCH  25  26
ENDBRANCH  24  25
ENDBRANCH  12  24
TORSDOF 4
ENDMDL
MODEL 6
REMARK VINA RESULT:      -7.6      6.786      9.166
REMARK  4 active torsions:
REMARK  status: ('A' for Active; 'I' for Inactive)
REMARK    1  A    between atoms: C_9  and  C_10 
REMARK    2  A    between atoms: C_22  and  C_23 
REMARK    3  A    between atoms: C_23  and  C_24 
REMARK    4  A    between atoms: C_24  and  O_25 
ROOT
HETATM    1  C   UNL     1      39.135 -10.908   6.819  1.00  0.00     0.069 C 
HETATM    2  C   UNL     1      40.638 -10.939   6.676  1.00  0.00     0.018 A 
HETATM    3  N   UNL     1      41.330 -10.054   7.489  1.00  0.00    -0.343 N 
HETATM    4  C   UNL     1      42.681 -10.039   7.550  1.00  0.00     0.146 A 
HETATM    5  N   UNL     1      43.382 -10.868   6.705  1.00  0.00    -0.179 N 
HETATM    6  N   UNL     1      44.727 -10.748   6.863  1.00  0.00    -0.167 NA
HETATM    7  C   UNL     1      44.863  -9.839   7.840  1.00  0.00     0.066 A 
HETATM    8  C   UNL     1      46.222  -9.447   8.294  1.00  0.00     0.073 C 
HETATM    9  C   UNL     1      43.606  -9.365   8.315  1.00  0.00     0.047 A 
HETATM   10  C   UNL     1      42.790 -11.759   5.797  1.00  0.00     0.278 A 
HETATM   11  O   UNL     1      43.463 -12.470   5.059  1.00  0.00    -0.265 OA
HETATM   12  C   UNL     1      41.284 -11.789   5.840  1.00  0.00     0.036 A 
HETATM   13  H   UNL     1      40.774  -9.458   8.105  1.00  0.00     0.167 HD
ENDROOT
BRANCH   9  14
HETATM   14  C   UNL     1      43.283  -8.360   9.319  1.00  0.00    -0.009 A 
HETATM   15  C   UNL     1      43.022  -8.689  10.683  1.00  0.00    -0.015 A 
HETATM   16  C   UNL     1      42.644  -7.644  11.565  1.00  0.00    -0.025 A 
HETATM   17  C   UNL     1      43.116  -9.994  11.230  1.00  0.00     0.013 A 
HETATM   18  C   UNL     1      42.339  -7.927  12.907  1.00  0.00     0.012 A 
HETATM   19  C   UNL     1      42.576  -6.322  11.100  1.00  0.00     0.012 A 
HETATM   20  C   UNL     1      42.409  -9.228  13.403  1.00  0.00     0.001 A 
HETATM   21  C   UNL     1      42.806 -10.262  12.565  1.00  0.00     0.001 A 
HETATM   22  C   UNL     1      42.864  -6.012   9.774  1.00  0.00     0.002 A 
HETATM   23  C   UNL     1      43.208  -7.026   8.887  1.00  0.00     0.013 A 
ENDBRANCH   9  14
BRANCH  12  24
HETATM   24  C   UNL     1      40.645 -12.776   4.891  1.00  0.00     0.072 C 
BRANCH  24  25
HETATM   25  C   UNL     1      40.602 -14.199   5.448  1.00  0.00     0.169 C 
BRANCH  25  26
HETATM   26  O   UNL     1      39.541 -14.341   6.388  1.00  0.00    -0.401 OA
HETATM   27  H   UNL     1      39.435 -13.481   6.832  1.00  0.00     0.209 HD
ENDBRANCH  25  26
ENDBRANCH  24  25
ENDBRANCH  12  24
TORSDOF 4
ENDMDL
MODEL 7
REMARK VINA RESULT:      -7.4     16.101     18.531
REMARK  4 active torsions:
REMARK  status: ('A' for Active; 'I' for Inactive)
REMARK    1  A    between atoms: C_9  and  C_10 
REMARK    2  A    between atoms: C_22  and  C_23 
REMARK    3  A    between atoms: C_23  and  C_24 
REMARK    4  A    between atoms: C_24  and  O_25 
ROOT
HETATM    1  C   UNL     1      50.144 -29.993   0.112  1.00  0.00     0.069 C 
HETATM    2  C   UNL     1      48.804 -29.833   0.790  1.00  0.00     0.018 A 
HETATM    3  N   UNL     1      47.728 -29.628  -0.062  1.00  0.00    -0.343 N 
HETATM    4  C   UNL     1      46.454 -29.572   0.389  1.00  0.00     0.146 A 
HETATM    5  N   UNL     1      46.239 -29.628   1.747  1.00  0.00    -0.179 N 
HETATM    6  N   UNL     1      44.919 -29.553   2.063  1.00  0.00    -0.167 NA
HETATM    7  C   UNL     1      44.301 -29.468   0.876  1.00  0.00     0.066 A 
HETATM    8  C   UNL     1      42.820 -29.372   0.825  1.00  0.00     0.073 C 
HETATM    9  C   UNL     1      45.220 -29.484  -0.213  1.00  0.00     0.047 A 
HETATM   10  C   UNL     1      47.253 -29.771   2.706  1.00  0.00     0.278 A 
HETATM   11  O   UNL     1      47.007 -29.805   3.906  1.00  0.00    -0.265 OA
HETATM   12  C   UNL     1      48.641 -29.914   2.134  1.00  0.00     0.036 A 
HETATM   13  H   UNL     1      47.929 -29.597  -1.062  1.00  0.00     0.167 HD
ENDROOT
BRANCH   9  14
HETATM   14  C   UNL     1      44.999 -29.371  -1.649  1.00  0.00    -0.009 A 
HETATM   15  C   UNL     1      44.661 -30.490  -2.468  1.00  0.00    -0.015 A 
HETATM   16  C   UNL     1      44.540 -30.287  -3.866  1.00  0.00    -0.025 A 
HETATM   17  C   UNL     1      44.429 -31.803  -1.983  1.00  0.00     0.013 A 
HETATM   18  C   UNL     1      44.246 -31.367  -4.715  1.00  0.00     0.012 A 
HETATM   19  C   UNL     1      44.711 -29.004  -4.407  1.00  0.00     0.012 A 
HETATM   20  C   UNL     1      44.058 -32.651  -4.207  1.00  0.00     0.001 A 
HETATM   21  C   UNL     1      44.142 -32.868  -2.839  1.00  0.00     0.001 A 
HETATM   22  C   UNL     1      45.012 -27.915  -3.592  1.00  0.00     0.002 A 
HETATM   23  C   UNL     1      45.162 -28.100  -2.222  1.00  0.00     0.013 A 
ENDBRANCH   9  14
BRANCH  12  24
HETATM   24  C   UNL     1      49.730 -30.108   3.162  1.00  0.00     0.072 C 
BRANCH  24  25
HETATM   25  C   UNL     1      49.902 -31.567   3.585  1.00  0.00     0.169 C 
BRANCH  25  26
HETATM   26  O   UNL     1      49.173 -31.835   4.779  1.00  0.00    -0.401 OA
HETATM   27  H   UNL     1      49.112 -32.802   4.867  1.00  0.00     0.209 HD
ENDBRANCH  25  26
ENDBRANCH  24  25
ENDBRANCH  12  24
TORSDOF 4
ENDMDL
MODEL 8
REMARK VINA RESULT:      -7.4      2.976      4.862
REMARK  4 active torsions:
REMARK  status: ('A' for Active; 'I' for Inactive)
REMARK    1  A    between atoms: C_9  and  C_10 
REMARK    2  A    between atoms: C_22  and  C_23 
REMARK    3  A    between atoms: C_23  and  C_24 
REMARK    4  A    between atoms: C_24  and  O_25 
ROOT
HETATM    1  C   UNL     1      39.688 -16.258   1.404  1.00  0.00     0.069 C 
HETATM    2  C   UNL     1      40.477 -15.521   2.460  1.00  0.00     0.018 A 
HETATM    3  N   UNL     1      41.240 -16.321   3.298  1.00  0.00    -0.343 N 
HETATM    4  C   UNL     1      42.079 -15.800   4.222  1.00  0.00     0.146 A 
HETATM    5  N   UNL     1      42.098 -14.435   4.391  1.00  0.00    -0.179 N 
HETATM    6  N   UNL     1      42.976 -14.047   5.353  1.00  0.00    -0.167 NA
HETATM    7  C   UNL     1      43.527 -15.193   5.778  1.00  0.00     0.066 A 
HETATM    8  C   UNL     1      44.556 -15.161   6.847  1.00  0.00     0.073 C 
HETATM    9  C   UNL     1      43.004 -16.329   5.093  1.00  0.00     0.047 A 
HETATM   10  C   UNL     1      41.325 -13.532   3.644  1.00  0.00     0.278 A 
HETATM   11  O   UNL     1      41.373 -12.324   3.842  1.00  0.00    -0.265 OA
HETATM   12  C   UNL     1      40.477 -14.170   2.574  1.00  0.00     0.036 A 
HETATM   13  H   UNL     1      41.202 -17.329   3.138  1.00  0.00     0.167 HD
ENDROOT
BRANCH   9  14
HETATM   14  C   UNL     1      43.277 -17.750   5.258  1.00  0.00    -0.009 A 
HETATM   15  C   UNL     1      43.522 -18.622   4.154  1.00  0.00    -0.015 A 
HETATM   16  C   UNL     1      43.703 -20.004   4.417  1.00  0.00    -0.025 A 
HETATM   17  C   UNL     1      43.602 -18.205   2.801  1.00  0.00     0.013 A 
HETATM   18  C   UNL     1      43.908 -20.904   3.358  1.00  0.00     0.012 A 
HETATM   19  C   UNL     1      43.682 -20.477   5.738  1.00  0.00     0.012 A 
HETATM   20  C   UNL     1      43.947 -20.464   2.036  1.00  0.00     0.001 A 
HETATM   21  C   UNL     1      43.802 -19.112   1.757  1.00  0.00     0.001 A 
HETATM   22  C   UNL     1      43.472 -19.610   6.807  1.00  0.00     0.002 A 
HETATM   23  C   UNL     1      43.264 -18.256   6.568  1.00  0.00     0.013 A 
ENDBRANCH   9  14
BRANCH  12  24
HETATM   24  C   UNL     1      39.673 -13.198   1.744  1.00  0.00     0.072 C 
BRANCH  24  25
HETATM   25  C   UNL     1      40.406 -12.739   0.482  1.00  0.00     0.169 C 
BRANCH  25  26
HETATM   26  O   UNL     1      39.945 -13.455  -0.658  1.00  0.00    -0.401 OA
HETATM   27  H   UNL     1      40.495 -13.179  -1.412  1.00  0.00     0.209 HD
ENDBRANCH  25  26
ENDBRANCH  24  25
ENDBRANCH  12  24
TORSDOF 4
ENDMDL
MODEL 9
REMARK VINA RESULT:      -7.3      3.238      6.958
REMARK  4 active torsions:
REMARK  status: ('A' for Active; 'I' for Inactive)
REMARK    1  A    between atoms: C_9  and  C_10 
REMARK    2  A    between atoms: C_22  and  C_23 
REMARK    3  A    between atoms: C_23  and  C_24 
REMARK    4  A    between atoms: C_24  and  O_25 
ROOT
HETATM    1  C   UNL     1      43.334 -16.551   2.235  1.00  0.00     0.069 C 
HETATM    2  C   UNL     1      42.392 -15.583   2.910  1.00  0.00     0.018 A 
HETATM    3  N   UNL     1      41.989 -14.507   2.132  1.00  0.00    -0.343 N 
HETATM    4  C   UNL     1      41.066 -13.616   2.561  1.00  0.00     0.146 A 
HETATM    5  N   UNL     1      40.590 -13.736   3.846  1.00  0.00    -0.179 N 
HETATM    6  N   UNL     1      39.678 -12.774   4.149  1.00  0.00    -0.167 NA
HETATM    7  C   UNL     1      39.573 -12.053   3.024  1.00  0.00     0.066 A 
HETATM    8  C   UNL     1      38.646 -10.894   2.978  1.00  0.00     0.073 C 
HETATM    9  C   UNL     1      40.419 -12.544   1.987  1.00  0.00     0.047 A 
HETATM   10  C   UNL     1      40.972 -14.745   4.742  1.00  0.00     0.278 A 
HETATM   11  O   UNL     1      40.523 -14.800   5.882  1.00  0.00    -0.265 OA
HETATM   12  C   UNL     1      41.936 -15.756   4.175  1.00  0.00     0.036 A 
HETATM   13  H   UNL     1      42.361 -14.456   1.183  1.00  0.00     0.167 HD
ENDROOT
BRANCH   9  14
HETATM   14  C   UNL     1      40.657 -12.053   0.637  1.00  0.00    -0.009 A 
HETATM   15  C   UNL     1      40.253 -12.772  -0.528  1.00  0.00    -0.015 A 
HETATM   16  C   UNL     1      40.598 -12.242  -1.798  1.00  0.00    -0.025 A 
HETATM   17  C   UNL     1      39.522 -13.987  -0.512  1.00  0.00     0.013 A 
HETATM   18  C   UNL     1      40.255 -12.936  -2.970  1.00  0.00     0.012 A 
HETATM   19  C   UNL     1      41.281 -11.020  -1.887  1.00  0.00     0.012 A 
HETATM   20  C   UNL     1      39.565 -14.145  -2.916  1.00  0.00     0.001 A 
HETATM   21  C   UNL     1      39.191 -14.668  -1.685  1.00  0.00     0.001 A 
HETATM   22  C   UNL     1      41.642 -10.314  -0.743  1.00  0.00     0.002 A 
HETATM   23  C   UNL     1      41.338 -10.831   0.512  1.00  0.00     0.013 A 
ENDBRANCH   9  14
BRANCH  12  24
HETATM   24  C   UNL     1      42.319 -16.865   5.125  1.00  0.00     0.072 C 
BRANCH  24  25
HETATM   25  C   UNL     1      43.452 -16.474   6.075  1.00  0.00     0.169 C 
BRANCH  25  26
HETATM   26  O   UNL     1      42.934 -16.079   7.342  1.00  0.00    -0.401 OA
HETATM   27  H   UNL     1      43.394 -15.260   7.596  1.00  0.00     0.209 HD
ENDBRANCH  25  26
ENDBRANCH  24  25
ENDBRANCH  12  24
TORSDOF 4
ENDMDL
MODEL 10
REMARK VINA RESULT:      -7.2      3.763      5.412
REMARK  4 active torsions:
REMARK  status: ('A' for Active; 'I' for Inactive)
REMARK    1  A    between atoms: C_9  and  C_10 
REMARK    2  A    between atoms: C_22  and  C_23 
REMARK    3  A    between atoms: C_23  and  C_24 
REMARK    4  A    between atoms: C_24  and  O_25 
ROOT
HETATM    1  C   UNL     1      39.417 -13.582   2.403  1.00  0.00     0.069 C 
HETATM    2  C   UNL     1      40.388 -13.653   3.556  1.00  0.00     0.018 A 
HETATM    3  N   UNL     1      41.181 -14.792   3.596  1.00  0.00    -0.343 N 
HETATM    4  C   UNL     1      42.168 -14.949   4.506  1.00  0.00     0.146 A 
HETATM    5  N   UNL     1      42.320 -13.987   5.478  1.00  0.00    -0.179 N 
HETATM    6  N   UNL     1      43.340 -14.272   6.331  1.00  0.00    -0.167 NA
HETATM    7  C   UNL     1      43.843 -15.425   5.868  1.00  0.00     0.066 A 
HETATM    8  C   UNL     1      44.996 -16.053   6.561  1.00  0.00     0.073 C 
HETATM    9  C   UNL     1      43.148 -15.893   4.715  1.00  0.00     0.047 A 
HETATM   10  C   UNL     1      41.537 -12.827   5.575  1.00  0.00     0.278 A 
HETATM   11  O   UNL     1      41.709 -12.005   6.468  1.00  0.00    -0.265 OA
HETATM   12  C   UNL     1      40.513 -12.669   4.480  1.00  0.00     0.036 A 
HETATM   13  H   UNL     1      41.041 -15.480   2.855  1.00  0.00     0.167 HD
ENDROOT
BRANCH   9  14
HETATM   14  C   UNL     1      43.321 -17.103   3.923  1.00  0.00    -0.009 A 
HETATM   15  C   UNL     1      43.472 -18.395   4.510  1.00  0.00    -0.015 A 
HETATM   16  C   UNL     1      43.709 -19.500   3.652  1.00  0.00    -0.025 A 
HETATM   17  C   UNL     1      43.399 -18.661   5.901  1.00  0.00     0.013 A 
HETATM   18  C   UNL     1      43.903 -20.783   4.190  1.00  0.00     0.012 A 
HETATM   19  C   UNL     1      43.748 -19.314   2.262  1.00  0.00     0.012 A 
HETATM   20  C   UNL     1      43.858 -21.002   5.565  1.00  0.00     0.001 A 
HETATM   21  C   UNL     1      43.597 -19.942   6.422  1.00  0.00     0.001 A 
HETATM   22  C   UNL     1      43.569 -18.053   1.701  1.00  0.00     0.002 A 
HETATM   23  C   UNL     1      43.364 -16.953   2.527  1.00  0.00     0.013 A 
ENDBRANCH   9  14
BRANCH  12  24
HETATM   24  C   UNL     1      39.695 -11.402   4.559  1.00  0.00     0.072 C 
BRANCH  24  25
HETATM   25  C   UNL     1      40.319 -10.237   3.789  1.00  0.00     0.169 C 
BRANCH  25  26
HETATM   26  O   UNL     1      41.294  -9.571   4.586  1.00  0.00    -0.401 OA
HETATM   27  H   UNL     1      42.106  -9.510   4.054  1.00  0.00     0.209 HD
ENDBRANCH  25  26
ENDBRANCH  24  25
ENDBRANCH  12  24
TORSDOF 4
ENDMDL
