MODEL 1
REMARK VINA RESULT:      -8.1      0.000      0.000
REMARK  6 active torsions:
REMARK  status: ('A' for Active; 'I' for Inactive)
REMARK    1  A    between atoms: C_2  and  C_3 
REMARK    2  A    between atoms: C_3  and  N_4 
REMARK    3  A    between atoms: C_3  and  C_11 
REMARK    4  A    between atoms: N_4  and  C_5 
REMARK       I    between atoms: C_11  and  N_12 
REMARK    5  A    between atoms: N_12  and  N_13 
REMARK    6  A    between atoms: C_14  and  C_15 
ROOT
HETATM    1  C   UNL     1      41.452 -12.892   1.434  1.00  0.00     0.260 C 
HETATM    2  N   UNL     1      42.226 -14.024   1.155  1.00  0.00    -0.246 N 
HETATM    3  O   UNL     1      41.164 -12.500   2.562  1.00  0.00    -0.269 OA
HETATM    4  H   UNL     1      42.606 -14.110   0.215  1.00  0.00     0.192 HD
ENDROOT
BRANCH   2   5
HETATM    5  N   UNL     1      42.878 -14.772   2.104  1.00  0.00    -0.184 NA
HETATM    6  C   UNL     1      42.531 -16.016   2.216  1.00  0.00     0.152 C 
BRANCH   6   7
HETATM    7  C   UNL     1      43.144 -16.847   3.232  1.00  0.00     0.011 A 
HETATM    8  C   UNL     1      43.368 -18.261   3.165  1.00  0.00     0.004 A 
HETATM    9  C   UNL     1      43.974 -18.645   4.362  1.00  0.00     0.043 A 
HETATM   10  C   UNL     1      43.117 -19.252   2.192  1.00  0.00     0.014 A 
HETATM   11  C   UNL     1      44.337 -19.969   4.638  1.00  0.00     0.030 A 
HETATM   12  N   UNL     1      44.108 -17.511   5.130  1.00  0.00    -0.364 N 
HETATM   13  C   UNL     1      44.080 -20.930   3.655  1.00  0.00     0.002 A 
HETATM   14  C   UNL     1      43.479 -20.579   2.449  1.00  0.00     0.001 A 
HETATM   15  H   UNL     1      44.510 -17.492   6.057  1.00  0.00     0.165 HD
HETATM   16  C   UNL     1      43.621 -16.424   4.459  1.00  0.00     0.102 A 
ENDBRANCH   6   7
ENDBRANCH   2   5
BRANCH   1  17
HETATM   17  C   UNL     1      40.984 -12.190   0.133  1.00  0.00     0.175 C 
BRANCH  17  18
HETATM   18  C   UNL     1      41.231 -10.675   0.184  1.00  0.00     0.030 C 
HETATM   19  C   UNL     1      41.287 -10.056  -1.208  1.00  0.00     0.007 C 
ENDBRANCH  17  18
BRANCH  17  20
HETATM   20  N   UNL     1      39.550 -12.460  -0.045  1.00  0.00    -0.377 N 
HETATM   21  H   UNL     1      38.959 -12.322   0.770  1.00  0.00     0.160 HD
BRANCH  20  22
HETATM   22  C   UNL     1      38.980 -13.088  -1.136  1.00  0.00     0.028 A 
HETATM   23  C   UNL     1      39.552 -14.282  -1.599  1.00  0.00     0.029 A 
HETATM   24  C   UNL     1      39.015 -14.976  -2.687  1.00  0.00     0.002 A 
HETATM   25  C   UNL     1      37.882 -14.489  -3.329  1.00  0.00     0.000 A 
HETATM   26  C   UNL     1      37.289 -13.315  -2.879  1.00  0.00     0.002 A 
HETATM   27  C   UNL     1      37.835 -12.623  -1.790  1.00  0.00     0.029 A 
ENDBRANCH  20  22
ENDBRANCH  17  20
ENDBRANCH   1  17
TORSDOF 6
ENDMDL
MODEL 2
REMARK VINA RESULT:      -8.0      1.525      8.211
REMARK  6 active torsions:
REMARK  status: ('A' for Active; 'I' for Inactive)
REMARK    1  A    between atoms: C_2  and  C_3 
REMARK    2  A    between atoms: C_3  and  N_4 
REMARK    3  A    between atoms: C_3  and  C_11 
REMARK    4  A    between atoms: N_4  and  C_5 
REMARK       I    between atoms: C_11  and  N_12 
REMARK    5  A    between atoms: N_12  and  N_13 
REMARK    6  A    between atoms: C_14  and  C_15 
ROOT
HETATM    1  C   UNL     1      41.973 -14.931   4.380  1.00  0.00     0.260 C 
HETATM    2  N   UNL     1      41.319 -15.415   3.242  1.00  0.00    -0.246 N 
HETATM    3  O   UNL     1      41.932 -13.766   4.770  1.00  0.00    -0.269 OA
HETATM    4  H   UNL     1      41.216 -16.423   3.156  1.00  0.00     0.192 HD
ENDROOT
BRANCH   2   5
HETATM    5  N   UNL     1      40.437 -14.685   2.483  1.00  0.00    -0.184 NA
HETATM    6  C   UNL     1      40.828 -14.335   1.298  1.00  0.00     0.152 C 
BRANCH   6   7
HETATM    7  C   UNL     1      39.965 -13.521   0.466  1.00  0.00     0.011 A 
HETATM    8  C   UNL     1      39.366 -13.900  -0.779  1.00  0.00     0.004 A 
HETATM    9  C   UNL     1      38.624 -12.810  -1.235  1.00  0.00     0.043 A 
HETATM   10  C   UNL     1      39.380 -15.076  -1.560  1.00  0.00     0.014 A 
HETATM   11  C   UNL     1      37.900 -12.833  -2.434  1.00  0.00     0.030 A 
HETATM   12  N   UNL     1      38.771 -11.804  -0.308  1.00  0.00    -0.364 N 
HETATM   13  C   UNL     1      37.929 -14.011  -3.186  1.00  0.00     0.002 A 
HETATM   14  C   UNL     1      38.658 -15.118  -2.758  1.00  0.00     0.001 A 
HETATM   15  H   UNL     1      38.347 -10.889  -0.383  1.00  0.00     0.165 HD
HETATM   16  C   UNL     1      39.567 -12.222   0.722  1.00  0.00     0.102 A 
ENDBRANCH   6   7
ENDBRANCH   2   5
BRANCH   1  17
HETATM   17  C   UNL     1      42.777 -16.049   5.093  1.00  0.00     0.175 C 
BRANCH  17  18
HETATM   18  C   UNL     1      43.663 -15.487   6.214  1.00  0.00     0.030 C 
HETATM   19  C   UNL     1      43.038 -15.683   7.591  1.00  0.00     0.007 C 
ENDBRANCH  17  18
BRANCH  17  20
HETATM   20  N   UNL     1      43.607 -16.730   4.089  1.00  0.00    -0.377 N 
HETATM   21  H   UNL     1      44.027 -16.141   3.375  1.00  0.00     0.160 HD
BRANCH  20  22
HETATM   22  C   UNL     1      43.682 -18.097   3.901  1.00  0.00     0.028 A 
HETATM   23  C   UNL     1      43.411 -18.617   2.626  1.00  0.00     0.029 A 
HETATM   24  C   UNL     1      43.485 -19.988   2.366  1.00  0.00     0.002 A 
HETATM   25  C   UNL     1      43.844 -20.868   3.380  1.00  0.00     0.000 A 
HETATM   26  C   UNL     1      44.131 -20.375   4.647  1.00  0.00     0.002 A 
HETATM   27  C   UNL     1      44.051 -19.000   4.902  1.00  0.00     0.029 A 
ENDBRANCH  20  22
ENDBRANCH  17  20
ENDBRANCH   1  17
TORSDOF 6
ENDMDL
MODEL 3
REMARK VINA RESULT:      -8.0      4.712      8.244
REMARK  6 active torsions:
REMARK  status: ('A' for Active; 'I' for Inactive)
REMARK    1  A    between atoms: C_2  and  C_3 
REMARK    2  A    between atoms: C_3  and  N_4 
REMARK    3  A    between atoms: C_3  and  C_11 
REMARK    4  A    between atoms: N_4  and  C_5 
REMARK       I    between atoms: C_11  and  N_12 
REMARK    5  A    between atoms: N_12  and  N_13 
REMARK    6  A    between atoms: C_14  and  C_15 
ROOT
HETATM    1  C   UNL     1      42.724 -14.243   3.122  1.00  0.00     0.260 C 
HETATM    2  N   UNL     1      41.926 -13.779   4.173  1.00  0.00    -0.246 N 
HETATM    3  O   UNL     1      43.567 -13.570   2.533  1.00  0.00    -0.269 OA
HETATM    4  H   UNL     1      41.452 -14.476   4.743  1.00  0.00     0.192 HD
ENDROOT
BRANCH   2   5
HETATM    5  N   UNL     1      42.069 -12.553   4.776  1.00  0.00    -0.184 NA
HETATM    6  C   UNL     1      42.721 -12.518   5.896  1.00  0.00     0.152 C 
BRANCH   6   7
HETATM    7  C   UNL     1      42.863 -11.265   6.608  1.00  0.00     0.011 A 
HETATM    8  C   UNL     1      44.070 -10.721   7.155  1.00  0.00     0.004 A 
HETATM    9  C   UNL     1      43.745  -9.506   7.759  1.00  0.00     0.043 A 
HETATM   10  C   UNL     1      45.416 -11.147   7.188  1.00  0.00     0.014 A 
HETATM   11  C   UNL     1      44.694  -8.698   8.398  1.00  0.00     0.030 A 
HETATM   12  N   UNL     1      42.392  -9.320   7.592  1.00  0.00    -0.364 N 
HETATM   13  C   UNL     1      46.020  -9.142   8.412  1.00  0.00     0.002 A 
HETATM   14  C   UNL     1      46.378 -10.349   7.817  1.00  0.00     0.001 A 
HETATM   15  H   UNL     1      41.877  -8.522   7.937  1.00  0.00     0.165 HD
HETATM   16  C   UNL     1      41.853 -10.366   6.895  1.00  0.00     0.102 A 
ENDBRANCH   6   7
ENDBRANCH   2   5
BRANCH   1  17
HETATM   17  C   UNL     1      42.406 -15.720   2.775  1.00  0.00     0.175 C 
BRANCH  17  18
HETATM   18  C   UNL     1      40.928 -16.057   3.024  1.00  0.00     0.030 C 
HETATM   19  C   UNL     1      40.081 -15.883   1.768  1.00  0.00     0.007 C 
ENDBRANCH  17  18
BRANCH  17  20
HETATM   20  N   UNL     1      43.264 -16.582   3.601  1.00  0.00    -0.377 N 
HETATM   21  H   UNL     1      43.899 -16.109   4.238  1.00  0.00     0.160 HD
BRANCH  20  22
HETATM   22  C   UNL     1      43.442 -17.941   3.428  1.00  0.00     0.028 A 
HETATM   23  C   UNL     1      43.942 -18.696   4.500  1.00  0.00     0.029 A 
HETATM   24  C   UNL     1      44.129 -20.077   4.397  1.00  0.00     0.002 A 
HETATM   25  C   UNL     1      43.807 -20.734   3.215  1.00  0.00     0.000 A 
HETATM   26  C   UNL     1      43.297 -20.009   2.144  1.00  0.00     0.002 A 
HETATM   27  C   UNL     1      43.116 -18.624   2.253  1.00  0.00     0.029 A 
ENDBRANCH  20  22
ENDBRANCH  17  20
ENDBRANCH   1  17
TORSDOF 6
ENDMDL
MODEL 4
REMARK VINA RESULT:      -7.9      1.657      2.195
REMARK  6 active torsions:
REMARK  status: ('A' for Active; 'I' for Inactive)
REMARK    1  A    between atoms: C_2  and  C_3 
REMARK    2  A    between atoms: C_3  and  N_4 
REMARK    3  A    between atoms: C_3  and  C_11 
REMARK    4  A    between atoms: N_4  and  C_5 
REMARK       I    between atoms: C_11  and  N_12 
REMARK    5  A    between atoms: N_12  and  N_13 
REMARK    6  A    between atoms: C_14  and  C_15 
ROOT
HETATM    1  C   UNL     1      39.923 -13.253   2.955  1.00  0.00     0.260 C 
HETATM    2  N   UNL     1      40.473 -14.430   2.435  1.00  0.00    -0.246 N 
HETATM    3  O   UNL     1      39.818 -12.998   4.153  1.00  0.00    -0.269 OA
HETATM    4  H   UNL     1      40.737 -14.428   1.452  1.00  0.00     0.192 HD
ENDROOT
BRANCH   2   5
HETATM    5  N   UNL     1      41.090 -15.399   3.188  1.00  0.00    -0.184 NA
HETATM    6  C   UNL     1      42.364 -15.562   3.011  1.00  0.00     0.152 C 
BRANCH   6   7
HETATM    7  C   UNL     1      43.064 -16.601   3.737  1.00  0.00     0.011 A 
HETATM    8  C   UNL     1      43.236 -17.965   3.332  1.00  0.00     0.004 A 
HETATM    9  C   UNL     1      43.963 -18.610   4.334  1.00  0.00     0.043 A 
HETATM   10  C   UNL     1      42.846 -18.712   2.199  1.00  0.00     0.014 A 
HETATM   11  C   UNL     1      44.316 -19.963   4.263  1.00  0.00     0.030 A 
HETATM   12  N   UNL     1      44.218 -17.678   5.313  1.00  0.00    -0.364 N 
HETATM   13  C   UNL     1      43.920 -20.678   3.129  1.00  0.00     0.002 A 
HETATM   14  C   UNL     1      43.196 -20.064   2.111  1.00  0.00     0.001 A 
HETATM   15  H   UNL     1      44.724 -17.868   6.167  1.00  0.00     0.165 HD
HETATM   16  C   UNL     1      43.690 -16.466   4.962  1.00  0.00     0.102 A 
ENDBRANCH   6   7
ENDBRANCH   2   5
BRANCH   1  17
HETATM   17  C   UNL     1      39.444 -12.303   1.827  1.00  0.00     0.175 C 
BRANCH  17  18
HETATM   18  C   UNL     1      38.219 -11.482   2.258  1.00  0.00     0.030 C 
HETATM   19  C   UNL     1      37.321 -11.129   1.077  1.00  0.00     0.007 C 
ENDBRANCH  17  18
BRANCH  17  20
HETATM   20  N   UNL     1      39.116 -13.116   0.648  1.00  0.00    -0.377 N 
HETATM   21  H   UNL     1      38.506 -13.914   0.805  1.00  0.00     0.160 HD
BRANCH  20  22
HETATM   22  C   UNL     1      39.730 -13.027  -0.586  1.00  0.00     0.028 A 
HETATM   23  C   UNL     1      40.544 -11.916  -0.853  1.00  0.00     0.029 A 
HETATM   24  C   UNL     1      41.207 -11.773  -2.075  1.00  0.00     0.002 A 
HETATM   25  C   UNL     1      41.075 -12.751  -3.055  1.00  0.00     0.000 A 
HETATM   26  C   UNL     1      40.284 -13.868  -2.807  1.00  0.00     0.002 A 
HETATM   27  C   UNL     1      39.620 -14.002  -1.582  1.00  0.00     0.029 A 
ENDBRANCH  20  22
ENDBRANCH  17  20
ENDBRANCH   1  17
TORSDOF 6
ENDMDL
MODEL 5
REMARK VINA RESULT:      -7.8      5.428      8.849
REMARK  6 active torsions:
REMARK  status: ('A' for Active; 'I' for Inactive)
REMARK    1  A    between atoms: C_2  and  C_3 
REMARK    2  A    between atoms: C_3  and  N_4 
REMARK    3  A    between atoms: C_3  and  C_11 
REMARK    4  A    between atoms: N_4  and  C_5 
REMARK       I    between atoms: C_11  and  N_12 
REMARK    5  A    between atoms: N_12  and  N_13 
REMARK    6  A    between atoms: C_14  and  C_15 
ROOT
HETATM    1  C   UNL     1      42.044 -13.763   4.959  1.00  0.00     0.260 C 
HETATM    2  N   UNL     1      43.394 -13.534   5.246  1.00  0.00    -0.246 N 
HETATM    3  O   UNL     1      41.139 -12.956   5.155  1.00  0.00    -0.269 OA
HETATM    4  H   UNL     1      44.076 -14.157   4.818  1.00  0.00     0.192 HD
ENDROOT
BRANCH   2   5
HETATM    5  N   UNL     1      43.907 -12.329   5.661  1.00  0.00    -0.184 NA
HETATM    6  C   UNL     1      44.516 -12.310   6.805  1.00  0.00     0.152 C 
BRANCH   6   7
HETATM    7  C   UNL     1      45.035 -11.061   7.324  1.00  0.00     0.011 A 
HETATM    8  C   UNL     1      44.280 -10.000   7.923  1.00  0.00     0.004 A 
HETATM    9  C   UNL     1      45.180  -8.991   8.269  1.00  0.00     0.043 A 
HETATM   10  C   UNL     1      42.911  -9.807   8.210  1.00  0.00     0.014 A 
HETATM   11  C   UNL     1      44.781  -7.797   8.883  1.00  0.00     0.030 A 
HETATM   12  N   UNL     1      46.431  -9.417   7.889  1.00  0.00    -0.364 N 
HETATM   13  C   UNL     1      43.420  -7.633   9.159  1.00  0.00     0.002 A 
HETATM   14  C   UNL     1      42.497  -8.622   8.829  1.00  0.00     0.001 A 
HETATM   15  H   UNL     1      47.280  -8.882   8.012  1.00  0.00     0.165 HD
HETATM   16  C   UNL     1      46.358 -10.662   7.329  1.00  0.00     0.102 A 
ENDBRANCH   6   7
ENDBRANCH   2   5
BRANCH   1  17
HETATM   17  C   UNL     1      41.821 -15.180   4.368  1.00  0.00     0.175 C 
BRANCH  17  18
HETATM   18  C   UNL     1      40.826 -15.995   5.206  1.00  0.00     0.030 C 
HETATM   19  C   UNL     1      41.240 -16.075   6.671  1.00  0.00     0.007 C 
ENDBRANCH  17  18
BRANCH  17  20
HETATM   20  N   UNL     1      43.120 -15.867   4.318  1.00  0.00    -0.377 N 
HETATM   21  H   UNL     1      43.941 -15.294   4.491  1.00  0.00     0.160 HD
BRANCH  20  22
HETATM   22  C   UNL     1      43.334 -17.147   3.845  1.00  0.00     0.028 A 
HETATM   23  C   UNL     1      43.995 -18.068   4.670  1.00  0.00     0.029 A 
HETATM   24  C   UNL     1      44.228 -19.383   4.258  1.00  0.00     0.002 A 
HETATM   25  C   UNL     1      43.791 -19.806   3.008  1.00  0.00     0.000 A 
HETATM   26  C   UNL     1      43.121 -18.914   2.178  1.00  0.00     0.002 A 
HETATM   27  C   UNL     1      42.894 -17.597   2.596  1.00  0.00     0.029 A 
ENDBRANCH  20  22
ENDBRANCH  17  20
ENDBRANCH   1  17
TORSDOF 6
ENDMDL
MODEL 6
REMARK VINA RESULT:      -7.8      1.204      3.102
REMARK  6 active torsions:
REMARK  status: ('A' for Active; 'I' for Inactive)
REMARK    1  A    between atoms: C_2  and  C_3 
REMARK    2  A    between atoms: C_3  and  N_4 
REMARK    3  A    between atoms: C_3  and  C_11 
REMARK    4  A    between atoms: N_4  and  C_5 
REMARK       I    between atoms: C_11  and  N_12 
REMARK    5  A    between atoms: N_12  and  N_13 
REMARK    6  A    between atoms: C_14  and  C_15 
ROOT
HETATM    1  C   UNL     1      40.315 -13.548   0.681  1.00  0.00     0.260 C 
HETATM    2  N   UNL     1      41.521 -14.236   0.512  1.00  0.00    -0.246 N 
HETATM    3  O   UNL     1      39.708 -13.447   1.745  1.00  0.00    -0.269 OA
HETATM    4  H   UNL     1      42.053 -14.047  -0.335  1.00  0.00     0.192 HD
ENDROOT
BRANCH   2   5
HETATM    5  N   UNL     1      42.258 -14.777   1.537  1.00  0.00    -0.184 NA
HETATM    6  C   UNL     1      42.152 -16.054   1.730  1.00  0.00     0.152 C 
BRANCH   6   7
HETATM    7  C   UNL     1      42.863 -16.678   2.827  1.00  0.00     0.011 A 
HETATM    8  C   UNL     1      43.203 -18.064   2.952  1.00  0.00     0.004 A 
HETATM    9  C   UNL     1      43.874 -18.223   4.165  1.00  0.00     0.043 A 
HETATM   10  C   UNL     1      43.008 -19.203   2.140  1.00  0.00     0.014 A 
HETATM   11  C   UNL     1      44.356 -19.460   4.610  1.00  0.00     0.030 A 
HETATM   12  N   UNL     1      43.934 -16.984   4.759  1.00  0.00    -0.364 N 
HETATM   13  C   UNL     1      44.152 -20.570   3.784  1.00  0.00     0.002 A 
HETATM   14  C   UNL     1      43.488 -20.446   2.567  1.00  0.00     0.001 A 
HETATM   15  H   UNL     1      44.361 -16.798   5.656  1.00  0.00     0.165 HD
HETATM   16  C   UNL     1      43.338 -16.047   3.961  1.00  0.00     0.102 A 
ENDBRANCH   6   7
ENDBRANCH   2   5
BRANCH   1  17
HETATM   17  C   UNL     1      39.819 -12.933  -0.654  1.00  0.00     0.175 C 
BRANCH  17  18
HETATM   18  C   UNL     1      39.069 -13.962  -1.511  1.00  0.00     0.030 C 
HETATM   19  C   UNL     1      39.765 -14.215  -2.844  1.00  0.00     0.007 C 
ENDBRANCH  17  18
BRANCH  17  20
HETATM   20  N   UNL     1      40.988 -12.423  -1.386  1.00  0.00    -0.377 N 
HETATM   21  H   UNL     1      41.799 -13.033  -1.424  1.00  0.00     0.160 HD
BRANCH  20  22
HETATM   22  C   UNL     1      41.156 -11.124  -1.826  1.00  0.00     0.028 A 
HETATM   23  C   UNL     1      41.748 -10.192  -0.960  1.00  0.00     0.029 A 
HETATM   24  C   UNL     1      41.961  -8.867  -1.349  1.00  0.00     0.002 A 
HETATM   25  C   UNL     1      41.594  -8.450  -2.623  1.00  0.00     0.000 A 
HETATM   26  C   UNL     1      41.019  -9.359  -3.504  1.00  0.00     0.002 A 
HETATM   27  C   UNL     1      40.804 -10.685  -3.106  1.00  0.00     0.029 A 
ENDBRANCH  20  22
ENDBRANCH  17  20
ENDBRANCH   1  17
TORSDOF 6
ENDMDL
MODEL 7
REMARK VINA RESULT:      -7.5      6.632      9.402
REMARK  6 active torsions:
REMARK  status: ('A' for Active; 'I' for Inactive)
REMARK    1  A    between atoms: C_2  and  C_3 
REMARK    2  A    between atoms: C_3  and  N_4 
REMARK    3  A    between atoms: C_3  and  C_11 
REMARK    4  A    between atoms: N_4  and  C_5 
REMARK       I    between atoms: C_11  and  N_12 
REMARK    5  A    between atoms: N_12  and  N_13 
REMARK    6  A    between atoms: C_14  and  C_15 
ROOT
HETATM    1  C   UNL     1      43.183 -10.699   7.280  1.00  0.00     0.260 C 
HETATM    2  N   UNL     1      43.812 -11.753   6.608  1.00  0.00    -0.246 N 
HETATM    3  O   UNL     1      42.080 -10.241   6.988  1.00  0.00    -0.269 OA
HETATM    4  H   UNL     1      44.590 -12.209   7.080  1.00  0.00     0.192 HD
ENDROOT
BRANCH   2   5
HETATM    5  N   UNL     1      43.227 -12.503   5.618  1.00  0.00    -0.184 NA
HETATM    6  C   UNL     1      43.373 -13.789   5.687  1.00  0.00     0.152 C 
BRANCH   6   7
HETATM    7  C   UNL     1      42.824 -14.633   4.646  1.00  0.00     0.011 A 
HETATM    8  C   UNL     1      43.212 -15.977   4.337  1.00  0.00     0.004 A 
HETATM    9  C   UNL     1      42.431 -16.401   3.261  1.00  0.00     0.043 A 
HETATM   10  C   UNL     1      44.154 -16.879   4.878  1.00  0.00     0.014 A 
HETATM   11  C   UNL     1      42.547 -17.677   2.696  1.00  0.00     0.030 A 
HETATM   12  N   UNL     1      41.605 -15.354   2.924  1.00  0.00    -0.364 N 
HETATM   13  C   UNL     1      43.485 -18.551   3.253  1.00  0.00     0.002 A 
HETATM   14  C   UNL     1      44.278 -18.160   4.329  1.00  0.00     0.001 A 
HETATM   15  H   UNL     1      40.932 -15.376   2.169  1.00  0.00     0.165 HD
HETATM   16  C   UNL     1      41.826 -14.290   3.754  1.00  0.00     0.102 A 
ENDBRANCH   6   7
ENDBRANCH   2   5
BRANCH   1  17
HETATM   17  C   UNL     1      44.057 -10.163   8.444  1.00  0.00     0.175 C 
BRANCH  17  18
HETATM   18  C   UNL     1      45.524 -10.596   8.299  1.00  0.00     0.030 C 
HETATM   19  C   UNL     1      46.444  -9.415   8.009  1.00  0.00     0.007 C 
ENDBRANCH  17  18
BRANCH  17  20
HETATM   20  N   UNL     1      43.504 -10.672   9.707  1.00  0.00    -0.377 N 
HETATM   21  H   UNL     1      43.139 -11.620   9.691  1.00  0.00     0.160 HD
BRANCH  20  22
HETATM   22  C   UNL     1      43.236  -9.914  10.830  1.00  0.00     0.028 A 
HETATM   23  C   UNL     1      42.722 -10.554  11.967  1.00  0.00     0.029 A 
HETATM   24  C   UNL     1      42.445  -9.847  13.141  1.00  0.00     0.002 A 
HETATM   25  C   UNL     1      42.690  -8.480  13.201  1.00  0.00     0.000 A 
HETATM   26  C   UNL     1      43.213  -7.827  12.091  1.00  0.00     0.002 A 
HETATM   27  C   UNL     1      43.484  -8.540  10.917  1.00  0.00     0.029 A 
ENDBRANCH  20  22
ENDBRANCH  17  20
ENDBRANCH   1  17
TORSDOF 6
ENDMDL
MODEL 8
REMARK VINA RESULT:      -7.4      1.675      3.577
REMARK  6 active torsions:
REMARK  status: ('A' for Active; 'I' for Inactive)
REMARK    1  A    between atoms: C_2  and  C_3 
REMARK    2  A    between atoms: C_3  and  N_4 
REMARK    3  A    between atoms: C_3  and  C_11 
REMARK    4  A    between atoms: N_4  and  C_5 
REMARK       I    between atoms: C_11  and  N_12 
REMARK    5  A    between atoms: N_12  and  N_13 
REMARK    6  A    between atoms: C_14  and  C_15 
ROOT
HETATM    1  C   UNL     1      40.017 -13.462  -0.216  1.00  0.00     0.260 C 
HETATM    2  N   UNL     1      40.978 -14.463  -0.038  1.00  0.00    -0.246 N 
HETATM    3  O   UNL     1      39.470 -12.845   0.696  1.00  0.00    -0.269 OA
HETATM    4  H   UNL     1      41.537 -14.724  -0.847  1.00  0.00     0.192 HD
ENDROOT
BRANCH   2   5
HETATM    5  N   UNL     1      41.536 -14.799   1.171  1.00  0.00    -0.184 NA
HETATM    6  C   UNL     1      41.020 -15.807   1.800  1.00  0.00     0.152 C 
BRANCH   6   7
HETATM    7  C   UNL     1      41.529 -16.181   3.104  1.00  0.00     0.011 A 
HETATM    8  C   UNL     1      42.549 -17.148   3.382  1.00  0.00     0.004 A 
HETATM    9  C   UNL     1      42.716 -17.193   4.767  1.00  0.00     0.043 A 
HETATM   10  C   UNL     1      43.353 -17.989   2.581  1.00  0.00     0.014 A 
HETATM   11  C   UNL     1      43.642 -18.038   5.392  1.00  0.00     0.030 A 
HETATM   12  N   UNL     1      41.829 -16.294   5.310  1.00  0.00    -0.364 N 
HETATM   13  C   UNL     1      44.428 -18.857   4.575  1.00  0.00     0.002 A 
HETATM   14  C   UNL     1      44.287 -18.834   3.190  1.00  0.00     0.001 A 
HETATM   15  H   UNL     1      41.724 -16.120   6.301  1.00  0.00     0.165 HD
HETATM   16  C   UNL     1      41.117 -15.674   4.322  1.00  0.00     0.102 A 
ENDBRANCH   6   7
ENDBRANCH   2   5
BRANCH   1  17
HETATM   17  C   UNL     1      39.710 -13.229  -1.718  1.00  0.00     0.175 C 
BRANCH  17  18
HETATM   18  C   UNL     1      39.369 -14.542  -2.439  1.00  0.00     0.030 C 
HETATM   19  C   UNL     1      38.183 -14.385  -3.385  1.00  0.00     0.007 C 
ENDBRANCH  17  18
BRANCH  17  20
HETATM   20  N   UNL     1      40.888 -12.606  -2.337  1.00  0.00    -0.377 N 
HETATM   21  H   UNL     1      41.660 -13.226  -2.566  1.00  0.00     0.160 HD
BRANCH  20  22
HETATM   22  C   UNL     1      41.124 -11.248  -2.428  1.00  0.00     0.028 A 
HETATM   23  C   UNL     1      40.742 -10.574  -3.597  1.00  0.00     0.029 A 
HETATM   24  C   UNL     1      40.938  -9.199  -3.746  1.00  0.00     0.002 A 
HETATM   25  C   UNL     1      41.513  -8.465  -2.715  1.00  0.00     0.000 A 
HETATM   26  C   UNL     1      41.887  -9.108  -1.540  1.00  0.00     0.002 A 
HETATM   27  C   UNL     1      41.692 -10.487  -1.400  1.00  0.00     0.029 A 
ENDBRANCH  20  22
ENDBRANCH  17  20
ENDBRANCH   1  17
TORSDOF 6
ENDMDL
MODEL 9
REMARK VINA RESULT:      -7.4      1.726      8.430
REMARK  6 active torsions:
REMARK  status: ('A' for Active; 'I' for Inactive)
REMARK    1  A    between atoms: C_2  and  C_3 
REMARK    2  A    between atoms: C_3  and  N_4 
REMARK    3  A    between atoms: C_3  and  C_11 
REMARK    4  A    between atoms: N_4  and  C_5 
REMARK       I    between atoms: C_11  and  N_12 
REMARK    5  A    between atoms: N_12  and  N_13 
REMARK    6  A    between atoms: C_14  and  C_15 
ROOT
HETATM    1  C   UNL     1      41.619 -14.580   2.868  1.00  0.00     0.260 C 
HETATM    2  N   UNL     1      40.518 -14.971   2.099  1.00  0.00    -0.246 N 
HETATM    3  O   UNL     1      42.312 -13.589   2.648  1.00  0.00    -0.269 OA
HETATM    4  H   UNL     1      39.878 -15.647   2.509  1.00  0.00     0.192 HD
ENDROOT
BRANCH   2   5
HETATM    5  N   UNL     1      39.983 -14.229   1.074  1.00  0.00    -0.184 NA
HETATM    6  C   UNL     1      40.261 -14.606  -0.135  1.00  0.00     0.152 C 
BRANCH   6   7
HETATM    7  C   UNL     1      39.769 -13.837  -1.260  1.00  0.00     0.011 A 
HETATM    8  C   UNL     1      40.137 -12.498  -1.611  1.00  0.00     0.004 A 
HETATM    9  C   UNL     1      39.417 -12.153  -2.756  1.00  0.00     0.043 A 
HETATM   10  C   UNL     1      41.025 -11.545  -1.064  1.00  0.00     0.014 A 
HETATM   11  C   UNL     1      39.536 -10.905  -3.379  1.00  0.00     0.030 A 
HETATM   12  N   UNL     1      38.637 -13.237  -3.085  1.00  0.00    -0.364 N 
HETATM   13  C   UNL     1      40.423  -9.981  -2.818  1.00  0.00     0.002 A 
HETATM   14  C   UNL     1      41.158 -10.295  -1.678  1.00  0.00     0.001 A 
HETATM   15  H   UNL     1      38.002 -13.268  -3.871  1.00  0.00     0.165 HD
HETATM   16  C   UNL     1      38.845 -14.257  -2.199  1.00  0.00     0.102 A 
ENDBRANCH   6   7
ENDBRANCH   2   5
BRANCH   1  17
HETATM   17  C   UNL     1      41.873 -15.564   4.039  1.00  0.00     0.175 C 
BRANCH  17  18
HETATM   18  C   UNL     1      41.865 -14.846   5.397  1.00  0.00     0.030 C 
HETATM   19  C   UNL     1      43.268 -14.691   5.972  1.00  0.00     0.007 C 
ENDBRANCH  17  18
BRANCH  17  20
HETATM   20  N   UNL     1      43.173 -16.214   3.820  1.00  0.00    -0.377 N 
HETATM   21  H   UNL     1      43.963 -15.598   3.651  1.00  0.00     0.160 HD
BRANCH  20  22
HETATM   22  C   UNL     1      43.370 -17.563   3.605  1.00  0.00     0.028 A 
HETATM   23  C   UNL     1      42.980 -18.113   2.374  1.00  0.00     0.029 A 
HETATM   24  C   UNL     1      43.166 -19.467   2.086  1.00  0.00     0.002 A 
HETATM   25  C   UNL     1      43.761 -20.301   3.027  1.00  0.00     0.000 A 
HETATM   26  C   UNL     1      44.169 -19.776   4.248  1.00  0.00     0.002 A 
HETATM   27  C   UNL     1      43.975 -18.419   4.531  1.00  0.00     0.029 A 
ENDBRANCH  20  22
ENDBRANCH  17  20
ENDBRANCH   1  17
TORSDOF 6
ENDMDL
MODEL 10
REMARK VINA RESULT:      -7.2      6.247      9.104
REMARK  6 active torsions:
REMARK  status: ('A' for Active; 'I' for Inactive)
REMARK    1  A    between atoms: C_2  and  C_3 
REMARK    2  A    between atoms: C_3  and  N_4 
REMARK    3  A    between atoms: C_3  and  C_11 
REMARK    4  A    between atoms: N_4  and  C_5 
REMARK       I    between atoms: C_11  and  N_12 
REMARK    5  A    between atoms: N_12  and  N_13 
REMARK    6  A    between atoms: C_14  and  C_15 
ROOT
HETATM    1  C   UNL     1      42.805 -13.907   5.949  1.00  0.00     0.260 C 
HETATM    2  N   UNL     1      43.808 -12.955   6.156  1.00  0.00    -0.246 N 
HETATM    3  O   UNL     1      42.150 -14.442   6.842  1.00  0.00    -0.269 OA
HETATM    4  H   UNL     1      44.103 -12.404   5.352  1.00  0.00     0.192 HD
ENDROOT
BRANCH   2   5
HETATM    5  N   UNL     1      44.105 -12.390   7.372  1.00  0.00    -0.184 NA
HETATM    6  C   UNL     1      43.940 -11.109   7.485  1.00  0.00     0.152 C 
BRANCH   6   7
HETATM    7  C   UNL     1      44.284 -10.445   8.725  1.00  0.00     0.011 A 
HETATM    8  C   UNL     1      43.389  -9.756   9.607  1.00  0.00     0.004 A 
HETATM    9  C   UNL     1      44.146  -9.264  10.670  1.00  0.00     0.043 A 
HETATM   10  C   UNL     1      41.998  -9.510   9.603  1.00  0.00     0.014 A 
HETATM   11  C   UNL     1      43.586  -8.535  11.727  1.00  0.00     0.030 A 
HETATM   12  N   UNL     1      45.451  -9.632  10.442  1.00  0.00    -0.364 N 
HETATM   13  C   UNL     1      42.207  -8.309  11.700  1.00  0.00     0.002 A 
HETATM   14  C   UNL     1      41.422  -8.789  10.654  1.00  0.00     0.001 A 
HETATM   15  H   UNL     1      46.226  -9.404  11.051  1.00  0.00     0.165 HD
HETATM   16  C   UNL     1      45.546 -10.349   9.282  1.00  0.00     0.102 A 
ENDBRANCH   6   7
ENDBRANCH   2   5
BRANCH   1  17
HETATM   17  C   UNL     1      42.623 -14.224   4.442  1.00  0.00     0.175 C 
BRANCH  17  18
HETATM   18  C   UNL     1      41.732 -13.184   3.746  1.00  0.00     0.030 C 
HETATM   19  C   UNL     1      40.256 -13.561   3.807  1.00  0.00     0.007 C 
ENDBRANCH  17  18
BRANCH  17  20
HETATM   20  N   UNL     1      42.025 -15.561   4.321  1.00  0.00    -0.377 N 
HETATM   21  H   UNL     1      41.090 -15.674   4.702  1.00  0.00     0.160 HD
BRANCH  20  22
HETATM   22  C   UNL     1      42.695 -16.710   3.948  1.00  0.00     0.028 A 
HETATM   23  C   UNL     1      42.407 -17.282   2.700  1.00  0.00     0.029 A 
HETATM   24  C   UNL     1      43.061 -18.434   2.255  1.00  0.00     0.002 A 
HETATM   25  C   UNL     1      44.030 -19.033   3.052  1.00  0.00     0.000 A 
HETATM   26  C   UNL     1      44.344 -18.475   4.286  1.00  0.00     0.002 A 
HETATM   27  C   UNL     1      43.681 -17.323   4.727  1.00  0.00     0.029 A 
ENDBRANCH  20  22
ENDBRANCH  17  20
ENDBRANCH   1  17
TORSDOF 6
ENDMDL
