MODEL 1
REMARK VINA RESULT:      -8.8      0.000      0.000
REMARK  3 active torsions:
REMARK  status: ('A' for Active; 'I' for Inactive)
REMARK    1  A    between atoms: O_2  and  C_3 
REMARK    2  A    between atoms: C_9  and  C_10 
REMARK       I    between atoms: C_10  and  N_11 
REMARK    3  A    between atoms: N_11  and  C_12 
ROOT
HETATM    1  C   UNL     1      43.796 -19.869   3.712  1.00  0.00     0.068 A 
HETATM    2  C   UNL     1      43.443 -18.646   3.138  1.00  0.00     0.044 A 
HETATM    3  C   UNL     1      43.284 -17.503   3.932  1.00  0.00    -0.043 A 
HETATM    4  C   UNL     1      43.448 -17.603   5.333  1.00  0.00    -0.001 A 
HETATM    5  C   UNL     1      43.312 -16.370   6.089  1.00  0.00     0.069 A 
HETATM    6  C   UNL     1      43.247 -15.116   5.521  1.00  0.00     0.007 A 
HETATM    7  C   UNL     1      43.188 -14.206   6.604  1.00  0.00     0.153 A 
HETATM    8  N   UNL     1      43.187 -14.868   7.786  1.00  0.00    -0.168 NA
HETATM    9  N   UNL     1      43.248 -16.172   7.434  1.00  0.00    -0.276 N 
HETATM   10  H   UNL     1      43.253 -16.870   8.169  1.00  0.00     0.189 HD
HETATM   11  C   UNL     1      43.320 -14.920   4.048  1.00  0.00     0.048 C 
HETATM   12  C   UNL     1      42.850 -16.187   3.296  1.00  0.00     0.044 C 
HETATM   13  C   UNL     1      43.777 -18.832   5.907  1.00  0.00     0.017 A 
HETATM   14  C   UNL     1      43.951 -19.961   5.096  1.00  0.00     0.037 A 
ENDROOT
BRANCH   7  15
HETATM   15  C   UNL     1      43.184 -12.729   6.541  1.00  0.00     0.277 C 
HETATM   16  N   UNL     1      43.558 -12.168   7.747  1.00  0.00    -0.319 N 
HETATM   17  H   UNL     1      43.860 -12.865   8.423  1.00  0.00     0.169 HD
HETATM   18  O   UNL     1      42.940 -12.137   5.498  1.00  0.00    -0.266 OA
BRANCH  16  19
HETATM   19  C   UNL     1      43.724 -10.807   8.063  1.00  0.00     0.074 A 
HETATM   20  C   UNL     1      44.951 -10.166   8.279  1.00  0.00     0.144 A 
HETATM   21  F   UNL     1      46.119 -10.791   8.088  1.00  0.00    -0.204 F 
HETATM   22  C   UNL     1      45.013  -8.818   8.629  1.00  0.00     0.068 A 
HETATM   23  C   UNL     1      43.839  -8.086   8.755  1.00  0.00     0.037 A 
HETATM   24 CL   UNL     1      43.906  -6.426   9.197  1.00  0.00    -0.084 Cl
HETATM   25  C   UNL     1      42.607  -8.690   8.514  1.00  0.00     0.026 A 
HETATM   26  C   UNL     1      42.552 -10.043   8.158  1.00  0.00     0.034 A 
ENDBRANCH  16  19
ENDBRANCH   7  15
BRANCH   1  27
HETATM   27  O   UNL     1      43.945 -20.896   2.820  1.00  0.00    -0.356 OA
HETATM   28  C   UNL     1      43.638 -20.611   1.461  1.00  0.00     0.210 C 
ENDBRANCH   1  27
TORSDOF 3
ENDMDL
MODEL 2
REMARK VINA RESULT:      -8.7      2.107      3.154
REMARK  3 active torsions:
REMARK  status: ('A' for Active; 'I' for Inactive)
REMARK    1  A    between atoms: O_2  and  C_3 
REMARK    2  A    between atoms: C_9  and  C_10 
REMARK       I    between atoms: C_10  and  N_11 
REMARK    3  A    between atoms: N_11  and  C_12 
ROOT
HETATM    1  C   UNL     1      42.977 -17.256   2.484  1.00  0.00     0.068 A 
HETATM    2  C   UNL     1      43.019 -16.913   3.837  1.00  0.00     0.044 A 
HETATM    3  C   UNL     1      43.105 -15.572   4.233  1.00  0.00    -0.043 A 
HETATM    4  C   UNL     1      43.188 -14.562   3.247  1.00  0.00    -0.001 A 
HETATM    5  C   UNL     1      43.231 -13.192   3.728  1.00  0.00     0.069 A 
HETATM    6  C   UNL     1      42.989 -12.820   5.032  1.00  0.00     0.007 A 
HETATM    7  C   UNL     1      43.065 -11.407   5.050  1.00  0.00     0.153 A 
HETATM    8  N   UNL     1      43.369 -10.928   3.820  1.00  0.00    -0.168 NA
HETATM    9  N   UNL     1      43.475 -12.036   3.052  1.00  0.00    -0.276 N 
HETATM   10  H   UNL     1      43.708 -11.922   2.072  1.00  0.00     0.189 HD
HETATM   11  C   UNL     1      42.648 -13.821   6.079  1.00  0.00     0.048 C 
HETATM   12  C   UNL     1      43.201 -15.218   5.712  1.00  0.00     0.044 C 
HETATM   13  C   UNL     1      43.171 -14.909   1.894  1.00  0.00     0.017 A 
HETATM   14  C   UNL     1      43.063 -16.254   1.516  1.00  0.00     0.037 A 
ENDROOT
BRANCH   7  15
HETATM   15  C   UNL     1      42.806 -10.505   6.193  1.00  0.00     0.277 C 
HETATM   16  N   UNL     1      43.551 -10.863   7.301  1.00  0.00    -0.319 N 
HETATM   17  H   UNL     1      44.209 -11.614   7.101  1.00  0.00     0.169 HD
HETATM   18  O   UNL     1      42.066  -9.537   6.085  1.00  0.00    -0.266 OA
BRANCH  16  19
HETATM   19  C   UNL     1      43.620 -10.223   8.551  1.00  0.00     0.074 A 
HETATM   20  C   UNL     1      44.774 -10.089   9.334  1.00  0.00     0.144 A 
HETATM   21  F   UNL     1      45.977 -10.475   8.892  1.00  0.00    -0.204 F 
HETATM   22  C   UNL     1      44.735  -9.472  10.584  1.00  0.00     0.068 A 
HETATM   23  C   UNL     1      43.533  -8.966  11.062  1.00  0.00     0.037 A 
HETATM   24 CL   UNL     1      43.474  -8.213  12.607  1.00  0.00    -0.084 Cl
HETATM   25  C   UNL     1      42.377  -9.057  10.291  1.00  0.00     0.026 A 
HETATM   26  C   UNL     1      42.424  -9.673   9.036  1.00  0.00     0.034 A 
ENDBRANCH  16  19
ENDBRANCH   7  15
BRANCH   1  27
HETATM   27  O   UNL     1      42.863 -18.597   2.239  1.00  0.00    -0.356 OA
HETATM   28  C   UNL     1      43.843 -19.440   2.833  1.00  0.00     0.210 C 
ENDBRANCH   1  27
TORSDOF 3
ENDMDL
MODEL 3
REMARK VINA RESULT:      -8.5      5.489      6.764
REMARK  3 active torsions:
REMARK  status: ('A' for Active; 'I' for Inactive)
REMARK    1  A    between atoms: O_2  and  C_3 
REMARK    2  A    between atoms: C_9  and  C_10 
REMARK       I    between atoms: C_10  and  N_11 
REMARK    3  A    between atoms: N_11  and  C_12 
ROOT
HETATM    1  C   UNL     1      44.083 -18.826   4.796  1.00  0.00     0.068 A 
HETATM    2  C   UNL     1      43.952 -18.347   3.491  1.00  0.00     0.044 A 
HETATM    3  C   UNL     1      43.380 -17.092   3.243  1.00  0.00    -0.043 A 
HETATM    4  C   UNL     1      42.898 -16.323   4.328  1.00  0.00    -0.001 A 
HETATM    5  C   UNL     1      42.357 -15.015   4.002  1.00  0.00     0.069 A 
HETATM    6  C   UNL     1      42.478 -14.411   2.769  1.00  0.00     0.007 A 
HETATM    7  C   UNL     1      41.879 -13.136   2.904  1.00  0.00     0.153 A 
HETATM    8  N   UNL     1      41.384 -12.970   4.154  1.00  0.00    -0.168 NA
HETATM    9  N   UNL     1      41.679 -14.130   4.783  1.00  0.00    -0.276 N 
HETATM   10  H   UNL     1      41.395 -14.241   5.749  1.00  0.00     0.189 HD
HETATM   11  C   UNL     1      43.198 -15.068   1.645  1.00  0.00     0.048 C 
HETATM   12  C   UNL     1      43.199 -16.606   1.810  1.00  0.00     0.044 C 
HETATM   13  C   UNL     1      43.007 -16.815   5.630  1.00  0.00     0.017 A 
HETATM   14  C   UNL     1      43.600 -18.063   5.862  1.00  0.00     0.037 A 
ENDROOT
BRANCH   7  15
HETATM   15  C   UNL     1      41.811 -12.060   1.892  1.00  0.00     0.277 C 
HETATM   16  N   UNL     1      40.909 -12.362   0.890  1.00  0.00    -0.319 N 
HETATM   17  H   UNL     1      40.388 -13.215   1.079  1.00  0.00     0.169 HD
HETATM   18  O   UNL     1      42.449 -11.024   2.021  1.00  0.00    -0.266 OA
BRANCH  16  19
HETATM   19  C   UNL     1      40.531 -11.572  -0.211  1.00  0.00     0.074 A 
HETATM   20  C   UNL     1      39.786 -10.387  -0.144  1.00  0.00     0.144 A 
HETATM   21  F   UNL     1      39.453  -9.826   1.025  1.00  0.00    -0.204 F 
HETATM   22  C   UNL     1      39.423  -9.693  -1.298  1.00  0.00     0.068 A 
HETATM   23  C   UNL     1      39.816 -10.173  -2.541  1.00  0.00     0.037 A 
HETATM   24 CL   UNL     1      39.363  -9.329  -3.968  1.00  0.00    -0.084 Cl
HETATM   25  C   UNL     1      40.585 -11.331  -2.634  1.00  0.00     0.026 A 
HETATM   26  C   UNL     1      40.949 -12.021  -1.472  1.00  0.00     0.034 A 
ENDBRANCH  16  19
ENDBRANCH   7  15
BRANCH   1  27
HETATM   27  O   UNL     1      44.683 -20.050   4.897  1.00  0.00    -0.356 OA
HETATM   28  C   UNL     1      43.850 -21.143   5.265  1.00  0.00     0.210 C 
ENDBRANCH   1  27
TORSDOF 3
ENDMDL
MODEL 4
REMARK VINA RESULT:      -8.5      1.748      2.302
REMARK  3 active torsions:
REMARK  status: ('A' for Active; 'I' for Inactive)
REMARK    1  A    between atoms: O_2  and  C_3 
REMARK    2  A    between atoms: C_9  and  C_10 
REMARK       I    between atoms: C_10  and  N_11 
REMARK    3  A    between atoms: N_11  and  C_12 
ROOT
HETATM    1  C   UNL     1      43.752 -19.347   3.393  1.00  0.00     0.068 A 
HETATM    2  C   UNL     1      44.034 -18.636   4.561  1.00  0.00     0.044 A 
HETATM    3  C   UNL     1      43.718 -17.274   4.664  1.00  0.00    -0.043 A 
HETATM    4  C   UNL     1      43.144 -16.610   3.555  1.00  0.00    -0.001 A 
HETATM    5  C   UNL     1      42.803 -15.211   3.746  1.00  0.00     0.069 A 
HETATM    6  C   UNL     1      42.808 -14.571   4.966  1.00  0.00     0.007 A 
HETATM    7  C   UNL     1      42.353 -13.255   4.714  1.00  0.00     0.153 A 
HETATM    8  N   UNL     1      42.105 -13.080   3.393  1.00  0.00    -0.168 NA
HETATM    9  N   UNL     1      42.402 -14.277   2.840  1.00  0.00    -0.276 N 
HETATM   10  H   UNL     1      42.296 -14.385   1.838  1.00  0.00     0.189 HD
HETATM   11  C   UNL     1      43.167 -15.285   6.221  1.00  0.00     0.048 C 
HETATM   12  C   UNL     1      44.077 -16.501   5.927  1.00  0.00     0.044 C 
HETATM   13  C   UNL     1      42.886 -17.318   2.379  1.00  0.00     0.017 A 
HETATM   14  C   UNL     1      43.189 -18.683   2.302  1.00  0.00     0.037 A 
ENDROOT
BRANCH   7  15
HETATM   15  C   UNL     1      42.101 -12.183   5.700  1.00  0.00     0.277 C 
HETATM   16  N   UNL     1      43.258 -11.490   6.002  1.00  0.00    -0.319 N 
HETATM   17  H   UNL     1      44.045 -11.775   5.423  1.00  0.00     0.169 HD
HETATM   18  O   UNL     1      40.973 -11.944   6.107  1.00  0.00    -0.266 OA
BRANCH  16  19
HETATM   19  C   UNL     1      43.414 -10.378   6.849  1.00  0.00     0.074 A 
HETATM   20  C   UNL     1      44.467 -10.185   7.754  1.00  0.00     0.144 A 
HETATM   21  F   UNL     1      45.510 -11.022   7.813  1.00  0.00    -0.204 F 
HETATM   22  C   UNL     1      44.513  -9.066   8.584  1.00  0.00     0.068 A 
HETATM   23  C   UNL     1      43.507  -8.112   8.508  1.00  0.00     0.037 A 
HETATM   24 CL   UNL     1      43.552  -6.734   9.536  1.00  0.00    -0.084 Cl
HETATM   25  C   UNL     1      42.466  -8.262   7.595  1.00  0.00     0.026 A 
HETATM   26  C   UNL     1      42.427  -9.385   6.761  1.00  0.00     0.034 A 
ENDBRANCH  16  19
ENDBRANCH   7  15
BRANCH   1  27
HETATM   27  O   UNL     1      44.085 -20.673   3.439  1.00  0.00    -0.356 OA
HETATM   28  C   UNL     1      44.105 -21.283   4.724  1.00  0.00     0.210 C 
ENDBRANCH   1  27
TORSDOF 3
ENDMDL
MODEL 5
REMARK VINA RESULT:      -8.4      4.035      9.376
REMARK  3 active torsions:
REMARK  status: ('A' for Active; 'I' for Inactive)
REMARK    1  A    between atoms: O_2  and  C_3 
REMARK    2  A    between atoms: C_9  and  C_10 
REMARK       I    between atoms: C_10  and  N_11 
REMARK    3  A    between atoms: N_11  and  C_12 
ROOT
HETATM    1  C   UNL     1      43.199  -7.893   8.689  1.00  0.00     0.068 A 
HETATM    2  C   UNL     1      44.158  -8.822   8.281  1.00  0.00     0.044 A 
HETATM    3  C   UNL     1      43.788  -9.958   7.548  1.00  0.00    -0.043 A 
HETATM    4  C   UNL     1      42.423 -10.179   7.254  1.00  0.00    -0.001 A 
HETATM    5  C   UNL     1      42.116 -11.353   6.454  1.00  0.00     0.069 A 
HETATM    6  C   UNL     1      43.062 -12.118   5.807  1.00  0.00     0.007 A 
HETATM    7  C   UNL     1      42.338 -13.106   5.097  1.00  0.00     0.153 A 
HETATM    8  N   UNL     1      41.007 -12.976   5.319  1.00  0.00    -0.168 NA
HETATM    9  N   UNL     1      40.914 -11.916   6.154  1.00  0.00    -0.276 N 
HETATM   10  H   UNL     1      39.994 -11.629   6.468  1.00  0.00     0.189 HD
HETATM   11  C   UNL     1      44.511 -11.790   5.873  1.00  0.00     0.048 C 
HETATM   12  C   UNL     1      44.841 -10.987   7.153  1.00  0.00     0.044 C 
HETATM   13  C   UNL     1      41.462  -9.262   7.684  1.00  0.00     0.017 A 
HETATM   14  C   UNL     1      41.852  -8.121   8.399  1.00  0.00     0.037 A 
ENDROOT
BRANCH   7  15
HETATM   15  C   UNL     1      42.876 -14.133   4.180  1.00  0.00     0.277 C 
HETATM   16  N   UNL     1      42.713 -15.406   4.692  1.00  0.00    -0.319 N 
HETATM   17  H   UNL     1      42.170 -15.413   5.552  1.00  0.00     0.169 HD
HETATM   18  O   UNL     1      43.332 -13.832   3.085  1.00  0.00    -0.266 OA
BRANCH  16  19
HETATM   19  C   UNL     1      43.046 -16.636   4.095  1.00  0.00     0.074 A 
HETATM   20  C   UNL     1      44.000 -17.542   4.578  1.00  0.00     0.144 A 
HETATM   21  F   UNL     1      44.620 -17.359   5.750  1.00  0.00    -0.204 F 
HETATM   22  C   UNL     1      44.291 -18.721   3.892  1.00  0.00     0.068 A 
HETATM   23  C   UNL     1      43.615 -19.016   2.715  1.00  0.00     0.037 A 
HETATM   24 CL   UNL     1      43.977 -20.463   1.859  1.00  0.00    -0.084 Cl
HETATM   25  C   UNL     1      42.639 -18.149   2.230  1.00  0.00     0.026 A 
HETATM   26  C   UNL     1      42.348 -16.969   2.925  1.00  0.00     0.034 A 
ENDBRANCH  16  19
ENDBRANCH   7  15
BRANCH   1  27
HETATM   27  O   UNL     1      43.700  -6.819   9.371  1.00  0.00    -0.356 OA
HETATM   28  C   UNL     1      42.795  -6.121  10.218  1.00  0.00     0.210 C 
ENDBRANCH   1  27
TORSDOF 3
ENDMDL
MODEL 6
REMARK VINA RESULT:      -8.2      6.645      9.532
REMARK  3 active torsions:
REMARK  status: ('A' for Active; 'I' for Inactive)
REMARK    1  A    between atoms: O_2  and  C_3 
REMARK    2  A    between atoms: C_9  and  C_10 
REMARK       I    between atoms: C_10  and  N_11 
REMARK    3  A    between atoms: N_11  and  C_12 
ROOT
HETATM    1  C   UNL     1      39.295 -10.249  -2.995  1.00  0.00     0.068 A 
HETATM    2  C   UNL     1      39.376 -11.642  -2.951  1.00  0.00     0.044 A 
HETATM    3  C   UNL     1      39.942 -12.292  -1.847  1.00  0.00    -0.043 A 
HETATM    4  C   UNL     1      40.470 -11.521  -0.785  1.00  0.00    -0.001 A 
HETATM    5  C   UNL     1      41.002 -12.260   0.347  1.00  0.00     0.069 A 
HETATM    6  C   UNL     1      40.835 -13.614   0.536  1.00  0.00     0.007 A 
HETATM    7  C   UNL     1      41.444 -13.908   1.781  1.00  0.00     0.153 A 
HETATM    8  N   UNL     1      41.989 -12.791   2.321  1.00  0.00    -0.168 NA
HETATM    9  N   UNL     1      41.714 -11.821   1.421  1.00  0.00    -0.276 N 
HETATM   10  H   UNL     1      42.037 -10.879   1.614  1.00  0.00     0.189 HD
HETATM   11  C   UNL     1      40.069 -14.449  -0.427  1.00  0.00     0.048 C 
HETATM   12  C   UNL     1      40.068 -13.811  -1.836  1.00  0.00     0.044 C 
HETATM   13  C   UNL     1      40.411 -10.127  -0.842  1.00  0.00     0.017 A 
HETATM   14  C   UNL     1      39.823  -9.495  -1.945  1.00  0.00     0.037 A 
ENDROOT
BRANCH   7  15
HETATM   15  C   UNL     1      41.475 -15.207   2.484  1.00  0.00     0.277 C 
HETATM   16  N   UNL     1      42.768 -15.672   2.634  1.00  0.00    -0.319 N 
HETATM   17  H   UNL     1      43.463 -14.997   2.324  1.00  0.00     0.169 HD
HETATM   18  O   UNL     1      40.453 -15.721   2.918  1.00  0.00    -0.266 OA
BRANCH  16  19
HETATM   19  C   UNL     1      43.207 -16.836   3.292  1.00  0.00     0.074 A 
HETATM   20  C   UNL     1      43.591 -16.914   4.638  1.00  0.00     0.144 A 
HETATM   21  F   UNL     1      43.463 -15.874   5.471  1.00  0.00    -0.204 F 
HETATM   22  C   UNL     1      44.052 -18.107   5.192  1.00  0.00     0.068 A 
HETATM   23  C   UNL     1      44.122 -19.249   4.403  1.00  0.00     0.037 A 
HETATM   24 CL   UNL     1      44.700 -20.722   5.076  1.00  0.00    -0.084 Cl
HETATM   25  C   UNL     1      43.715 -19.208   3.072  1.00  0.00     0.026 A 
HETATM   26  C   UNL     1      43.249 -18.008   2.522  1.00  0.00     0.034 A 
ENDBRANCH  16  19
ENDBRANCH   7  15
BRANCH   1  27
HETATM   27  O   UNL     1      38.694  -9.748  -4.117  1.00  0.00    -0.356 OA
HETATM   28  C   UNL     1      38.623  -8.332  -4.226  1.00  0.00     0.210 C 
ENDBRANCH   1  27
TORSDOF 3
ENDMDL
MODEL 7
REMARK VINA RESULT:      -8.1      4.201     10.044
REMARK  3 active torsions:
REMARK  status: ('A' for Active; 'I' for Inactive)
REMARK    1  A    between atoms: O_2  and  C_3 
REMARK    2  A    between atoms: C_9  and  C_10 
REMARK       I    between atoms: C_10  and  N_11 
REMARK    3  A    between atoms: N_11  and  C_12 
ROOT
HETATM    1  C   UNL     1      41.661  -6.845  12.934  1.00  0.00     0.068 A 
HETATM    2  C   UNL     1      41.314  -7.005  11.591  1.00  0.00     0.044 A 
HETATM    3  C   UNL     1      42.068  -7.835  10.751  1.00  0.00    -0.043 A 
HETATM    4  C   UNL     1      43.213  -8.485  11.265  1.00  0.00    -0.001 A 
HETATM    5  C   UNL     1      43.922  -9.364  10.350  1.00  0.00     0.069 A 
HETATM    6  C   UNL     1      43.440  -9.754   9.120  1.00  0.00     0.007 A 
HETATM    7  C   UNL     1      44.401 -10.652   8.597  1.00  0.00     0.153 A 
HETATM    8  N   UNL     1      45.444 -10.788   9.451  1.00  0.00    -0.168 NA
HETATM    9  N   UNL     1      45.126  -9.984  10.491  1.00  0.00    -0.276 N 
HETATM   10  H   UNL     1      45.775  -9.918  11.266  1.00  0.00     0.189 HD
HETATM   11  C   UNL     1      42.115  -9.299   8.620  1.00  0.00     0.048 C 
HETATM   12  C   UNL     1      41.705  -7.960   9.276  1.00  0.00     0.044 C 
HETATM   13  C   UNL     1      43.573  -8.304  12.602  1.00  0.00     0.017 A 
HETATM   14  C   UNL     1      42.796  -7.487  13.433  1.00  0.00     0.037 A 
ENDROOT
BRANCH   7  15
HETATM   15  C   UNL     1      44.326 -11.417   7.334  1.00  0.00     0.277 C 
HETATM   16  N   UNL     1      43.532 -12.540   7.467  1.00  0.00    -0.319 N 
HETATM   17  H   UNL     1      43.069 -12.583   8.372  1.00  0.00     0.169 HD
HETATM   18  O   UNL     1      44.866 -11.013   6.313  1.00  0.00    -0.266 OA
BRANCH  16  19
HETATM   19  C   UNL     1      43.178 -13.481   6.483  1.00  0.00     0.074 A 
HETATM   20  C   UNL     1      42.293 -13.252   5.421  1.00  0.00     0.144 A 
HETATM   21  F   UNL     1      41.775 -12.042   5.180  1.00  0.00    -0.204 F 
HETATM   22  C   UNL     1      41.971 -14.263   4.516  1.00  0.00     0.068 A 
HETATM   23  C   UNL     1      42.547 -15.519   4.656  1.00  0.00     0.037 A 
HETATM   24 CL   UNL     1      42.146 -16.774   3.550  1.00  0.00    -0.084 Cl
HETATM   25  C   UNL     1      43.455 -15.764   5.683  1.00  0.00     0.026 A 
HETATM   26  C   UNL     1      43.777 -14.745   6.586  1.00  0.00     0.034 A 
ENDBRANCH  16  19
ENDBRANCH   7  15
BRANCH   1  27
HETATM   27  O   UNL     1      40.824  -6.031  13.646  1.00  0.00    -0.356 OA
HETATM   28  C   UNL     1      39.538  -6.553  13.960  1.00  0.00     0.210 C 
ENDBRANCH   1  27
TORSDOF 3
ENDMDL
MODEL 8
REMARK VINA RESULT:      -8.1      4.116      9.921
REMARK  3 active torsions:
REMARK  status: ('A' for Active; 'I' for Inactive)
REMARK    1  A    between atoms: O_2  and  C_3 
REMARK    2  A    between atoms: C_9  and  C_10 
REMARK       I    between atoms: C_10  and  N_11 
REMARK    3  A    between atoms: N_11  and  C_12 
ROOT
HETATM    1  C   UNL     1      41.738  -6.890  12.787  1.00  0.00     0.068 A 
HETATM    2  C   UNL     1      41.322  -7.054  11.465  1.00  0.00     0.044 A 
HETATM    3  C   UNL     1      42.016  -7.907  10.597  1.00  0.00    -0.043 A 
HETATM    4  C   UNL     1      43.172  -8.577  11.060  1.00  0.00    -0.001 A 
HETATM    5  C   UNL     1      43.816  -9.479  10.120  1.00  0.00     0.069 A 
HETATM    6  C   UNL     1      43.266  -9.869   8.919  1.00  0.00     0.007 A 
HETATM    7  C   UNL     1      44.181 -10.792   8.358  1.00  0.00     0.153 A 
HETATM    8  N   UNL     1      45.262 -10.943   9.161  1.00  0.00    -0.168 NA
HETATM    9  N   UNL     1      45.012 -10.124  10.207  1.00  0.00    -0.276 N 
HETATM   10  H   UNL     1      45.700 -10.065  10.949  1.00  0.00     0.189 HD
HETATM   11  C   UNL     1      41.927  -9.391   8.481  1.00  0.00     0.048 C 
HETATM   12  C   UNL     1      41.578  -8.037   9.142  1.00  0.00     0.044 C 
HETATM   13  C   UNL     1      43.601  -8.392  12.376  1.00  0.00     0.017 A 
HETATM   14  C   UNL     1      42.883  -7.551  13.236  1.00  0.00     0.037 A 
ENDROOT
BRANCH   7  15
HETATM   15  C   UNL     1      44.028 -11.566   7.108  1.00  0.00     0.277 C 
HETATM   16  N   UNL     1      43.199 -12.658   7.285  1.00  0.00    -0.319 N 
HETATM   17  H   UNL     1      42.771 -12.676   8.208  1.00  0.00     0.169 HD
HETATM   18  O   UNL     1      44.540 -11.193   6.061  1.00  0.00    -0.266 OA
BRANCH  16  19
HETATM   19  C   UNL     1      42.772 -13.595   6.327  1.00  0.00     0.074 A 
HETATM   20  C   UNL     1      43.464 -14.758   5.961  1.00  0.00     0.144 A 
HETATM   21  F   UNL     1      44.577 -15.147   6.595  1.00  0.00    -0.204 F 
HETATM   22  C   UNL     1      42.979 -15.607   4.968  1.00  0.00     0.068 A 
HETATM   23  C   UNL     1      41.780 -15.308   4.333  1.00  0.00     0.037 A 
HETATM   24 CL   UNL     1      41.181 -16.346   3.099  1.00  0.00    -0.084 Cl
HETATM   25  C   UNL     1      41.056 -14.177   4.700  1.00  0.00     0.026 A 
HETATM   26  C   UNL     1      41.546 -13.330   5.701  1.00  0.00     0.034 A 
ENDBRANCH  16  19
ENDBRANCH   7  15
BRANCH   1  27
HETATM   27  O   UNL     1      40.954  -6.052  13.532  1.00  0.00    -0.356 OA
HETATM   28  C   UNL     1      39.573  -6.379  13.620  1.00  0.00     0.210 C 
ENDBRANCH   1  27
TORSDOF 3
ENDMDL
MODEL 9
REMARK VINA RESULT:      -8.0     17.650     18.939
REMARK  3 active torsions:
REMARK  status: ('A' for Active; 'I' for Inactive)
REMARK    1  A    between atoms: O_2  and  C_3 
REMARK    2  A    between atoms: C_9  and  C_10 
REMARK       I    between atoms: C_10  and  N_11 
REMARK    3  A    between atoms: N_11  and  C_12 
ROOT
HETATM    1  C   UNL     1      44.261 -30.847  -5.431  1.00  0.00     0.068 A 
HETATM    2  C   UNL     1      45.382 -31.584  -5.048  1.00  0.00     0.044 A 
HETATM    3  C   UNL     1      46.266 -31.090  -4.079  1.00  0.00    -0.043 A 
HETATM    4  C   UNL     1      46.035 -29.814  -3.516  1.00  0.00    -0.001 A 
HETATM    5  C   UNL     1      46.966 -29.383  -2.487  1.00  0.00     0.069 A 
HETATM    6  C   UNL     1      47.902 -30.204  -1.897  1.00  0.00     0.007 A 
HETATM    7  C   UNL     1      48.543 -29.412  -0.913  1.00  0.00     0.153 A 
HETATM    8  N   UNL     1      48.046 -28.152  -0.916  1.00  0.00    -0.168 NA
HETATM    9  N   UNL     1      47.107 -28.169  -1.888  1.00  0.00    -0.276 N 
HETATM   10  H   UNL     1      46.595 -27.316  -2.080  1.00  0.00     0.189 HD
HETATM   11  C   UNL     1      48.032 -31.638  -2.272  1.00  0.00     0.048 C 
HETATM   12  C   UNL     1      47.513 -31.885  -3.708  1.00  0.00     0.044 C 
HETATM   13  C   UNL     1      44.926 -29.068  -3.919  1.00  0.00     0.017 A 
HETATM   14  C   UNL     1      44.041 -29.586  -4.874  1.00  0.00     0.037 A 
ENDROOT
BRANCH   7  15
HETATM   15  C   UNL     1      49.575 -29.839   0.055  1.00  0.00     0.277 C 
HETATM   16  N   UNL     1      49.025 -30.120   1.292  1.00  0.00    -0.319 N 
HETATM   17  H   UNL     1      48.009 -30.077   1.284  1.00  0.00     0.169 HD
HETATM   18  O   UNL     1      50.744 -29.976  -0.279  1.00  0.00    -0.266 OA
BRANCH  16  19
HETATM   19  C   UNL     1      49.670 -30.601   2.445  1.00  0.00     0.074 A 
HETATM   20  C   UNL     1      49.893 -29.867   3.619  1.00  0.00     0.144 A 
HETATM   21  F   UNL     1      49.395 -28.636   3.788  1.00  0.00    -0.204 F 
HETATM   22  C   UNL     1      50.581 -30.419   4.699  1.00  0.00     0.068 A 
HETATM   23  C   UNL     1      51.044 -31.726   4.623  1.00  0.00     0.037 A 
HETATM   24 CL   UNL     1      51.903 -32.410   5.946  1.00  0.00    -0.084 Cl
HETATM   25  C   UNL     1      50.808 -32.489   3.481  1.00  0.00     0.026 A 
HETATM   26  C   UNL     1      50.114 -31.930   2.402  1.00  0.00     0.034 A 
ENDBRANCH  16  19
ENDBRANCH   7  15
BRANCH   1  27
HETATM   27  O   UNL     1      43.468 -31.459  -6.363  1.00  0.00    -0.356 OA
HETATM   28  C   UNL     1      43.927 -31.432  -7.710  1.00  0.00     0.210 C 
ENDBRANCH   1  27
TORSDOF 3
ENDMDL
MODEL 10
REMARK VINA RESULT:      -8.0      4.185      9.312
REMARK  3 active torsions:
REMARK  status: ('A' for Active; 'I' for Inactive)
REMARK    1  A    between atoms: O_2  and  C_3 
REMARK    2  A    between atoms: C_9  and  C_10 
REMARK       I    between atoms: C_10  and  N_11 
REMARK    3  A    between atoms: N_11  and  C_12 
ROOT
HETATM    1  C   UNL     1      41.782  -7.235   6.792  1.00  0.00     0.068 A 
HETATM    2  C   UNL     1      41.412  -8.036   5.710  1.00  0.00     0.044 A 
HETATM    3  C   UNL     1      41.753  -9.395   5.676  1.00  0.00    -0.043 A 
HETATM    4  C   UNL     1      42.512  -9.946   6.735  1.00  0.00    -0.001 A 
HETATM    5  C   UNL     1      42.791 -11.370   6.656  1.00  0.00     0.069 A 
HETATM    6  C   UNL     1      42.201 -12.227   5.754  1.00  0.00     0.007 A 
HETATM    7  C   UNL     1      42.697 -13.516   6.065  1.00  0.00     0.153 A 
HETATM    8  N   UNL     1      43.577 -13.454   7.093  1.00  0.00    -0.168 NA
HETATM    9  N   UNL     1      43.618 -12.141   7.414  1.00  0.00    -0.276 N 
HETATM   10  H   UNL     1      44.228 -11.848   8.169  1.00  0.00     0.189 HD
HETATM   11  C   UNL     1      41.196 -11.750   4.765  1.00  0.00     0.048 C 
HETATM   12  C   UNL     1      41.385 -10.244   4.465  1.00  0.00     0.044 C 
HETATM   13  C   UNL     1      42.902  -9.137   7.804  1.00  0.00     0.017 A 
HETATM   14  C   UNL     1      42.535  -7.785   7.831  1.00  0.00     0.037 A 
ENDROOT
BRANCH   7  15
HETATM   15  C   UNL     1      42.318 -14.802   5.443  1.00  0.00     0.277 C 
HETATM   16  N   UNL     1      43.393 -15.397   4.811  1.00  0.00    -0.319 N 
HETATM   17  H   UNL     1      44.264 -14.896   4.971  1.00  0.00     0.169 HD
HETATM   18  O   UNL     1      41.191 -15.262   5.569  1.00  0.00    -0.266 OA
BRANCH  16  19
HETATM   19  C   UNL     1      43.443 -16.641   4.156  1.00  0.00     0.074 A 
HETATM   20  C   UNL     1      43.910 -17.837   4.718  1.00  0.00     0.144 A 
HETATM   21  F   UNL     1      44.260 -17.924   6.007  1.00  0.00    -0.204 F 
HETATM   22  C   UNL     1      43.959 -19.016   3.975  1.00  0.00     0.068 A 
HETATM   23  C   UNL     1      43.523 -19.015   2.656  1.00  0.00     0.037 A 
HETATM   24 CL   UNL     1      43.591 -20.462   1.730  1.00  0.00    -0.084 Cl
HETATM   25  C   UNL     1      43.023 -17.848   2.083  1.00  0.00     0.026 A 
HETATM   26  C   UNL     1      42.973 -16.669   2.835  1.00  0.00     0.034 A 
ENDBRANCH  16  19
ENDBRANCH   7  15
BRANCH   1  27
HETATM   27  O   UNL     1      41.361  -5.936   6.710  1.00  0.00    -0.356 OA
HETATM   28  C   UNL     1      39.958  -5.724   6.606  1.00  0.00     0.210 C 
ENDBRANCH   1  27
TORSDOF 3
ENDMDL
