MODEL 1
REMARK VINA RESULT:      -7.8      0.000      0.000
REMARK  7 active torsions:
REMARK  status: ('A' for Active; 'I' for Inactive)
REMARK    1  A    between atoms: C_2  and  O_3 
REMARK    2  A    between atoms: O_3  and  C_4 
REMARK    3  A    between atoms: C_4  and  C_5 
REMARK    4  A    between atoms: C_10  and  N_11 
REMARK       I    between atoms: N_11  and  C_12 
REMARK       I    between atoms: C_12  and  N_13 
REMARK    5  A    between atoms: N_13  and  N_14 
REMARK       I    between atoms: N_14  and  C_15 
REMARK    6  A    between atoms: C_15  and  C_16 
REMARK    7  A    between atoms: C_19  and  O_20 
ROOT
HETATM    1  N   UNL     1      40.462 -16.050   1.713  1.00  0.00    -0.293 N 
HETATM    2  C   UNL     1      40.051 -14.804   1.284  1.00  0.00     0.340 C 
HETATM    3  N   UNL     1      39.571 -14.845  -0.014  1.00  0.00    -0.249 N 
HETATM    4  O   UNL     1      40.125 -13.757   1.927  1.00  0.00    -0.245 OA
HETATM    5  H   UNL     1      40.419 -16.818   1.059  1.00  0.00     0.172 HD
HETATM    6  H   UNL     1      39.127 -15.696  -0.353  1.00  0.00     0.192 HD
ENDROOT
BRANCH   1   7
HETATM    7  C   UNL     1      41.044 -16.277   2.944  1.00  0.00     0.116 A 
HETATM    8  N   UNL     1      40.443 -15.923   4.121  1.00  0.00    -0.345 N 
HETATM    9  C   UNL     1      41.256 -16.230   5.181  1.00  0.00     0.024 A 
HETATM   10  H   UNL     1      39.533 -15.476   4.171  1.00  0.00     0.167 HD
HETATM   11  C   UNL     1      42.425 -16.799   4.678  1.00  0.00     0.071 A 
HETATM   12  C   UNL     1      40.838 -15.928   6.575  1.00  0.00     0.069 C 
HETATM   13  C   UNL     1      42.267 -16.853   3.240  1.00  0.00     0.000 A 
HETATM   14  C   UNL     1      43.248 -17.406   2.262  1.00  0.00     0.053 C 
BRANCH  11  15
HETATM   15  C   UNL     1      43.560 -17.228   5.507  1.00  0.00     0.295 C 
HETATM   16  O   UNL     1      44.470 -16.482   5.850  1.00  0.00    -0.259 OA
BRANCH  15  17
HETATM   17  O   UNL     1      43.501 -18.552   5.839  1.00  0.00    -0.318 OA
BRANCH  17  18
HETATM   18  C   UNL     1      44.241 -19.447   5.000  1.00  0.00     0.174 C 
HETATM   19  C   UNL     1      43.860 -20.885   5.298  1.00  0.00     0.034 C 
ENDBRANCH  17  18
ENDBRANCH  15  17
ENDBRANCH  11  15
ENDBRANCH   1   7
BRANCH   3  20
HETATM   20  N   UNL     1      39.023 -13.668  -0.549  1.00  0.00    -0.262 N 
HETATM   21  C   UNL     1      39.321 -13.379  -1.867  1.00  0.00     0.270 C 
HETATM   22  O   UNL     1      40.066 -14.094  -2.534  1.00  0.00    -0.266 OA
HETATM   23  H   UNL     1      38.234 -13.269  -0.042  1.00  0.00     0.190 HD
BRANCH  21  24
HETATM   24  C   UNL     1      38.688 -12.169  -2.463  1.00  0.00     0.033 A 
HETATM   25  C   UNL     1      37.306 -11.954  -2.450  1.00  0.00     0.020 A 
HETATM   26  C   UNL     1      36.780 -10.779  -2.995  1.00  0.00     0.038 A 
HETATM   27  C   UNL     1      37.617  -9.805  -3.547  1.00  0.00     0.068 A 
HETATM   28  C   UNL     1      38.995 -10.018  -3.559  1.00  0.00     0.038 A 
HETATM   29  C   UNL     1      39.527 -11.193  -3.017  1.00  0.00     0.020 A 
BRANCH  27  30
HETATM   30  O   UNL     1      36.971  -8.702  -4.032  1.00  0.00    -0.356 OA
HETATM   31  C   UNL     1      36.296  -8.848  -5.276  1.00  0.00     0.210 C 
ENDBRANCH  27  30
ENDBRANCH  21  24
ENDBRANCH   3  20
TORSDOF 7
ENDMDL
MODEL 2
REMARK VINA RESULT:      -7.5      6.197     10.176
REMARK  7 active torsions:
REMARK  status: ('A' for Active; 'I' for Inactive)
REMARK    1  A    between atoms: C_2  and  O_3 
REMARK    2  A    between atoms: O_3  and  C_4 
REMARK    3  A    between atoms: C_4  and  C_5 
REMARK    4  A    between atoms: C_10  and  N_11 
REMARK       I    between atoms: N_11  and  C_12 
REMARK       I    between atoms: C_12  and  N_13 
REMARK    5  A    between atoms: N_13  and  N_14 
REMARK       I    between atoms: N_14  and  C_15 
REMARK    6  A    between atoms: C_15  and  C_16 
REMARK    7  A    between atoms: C_19  and  O_20 
ROOT
HETATM    1  N   UNL     1      42.256 -11.162   6.147  1.00  0.00    -0.293 N 
HETATM    2  C   UNL     1      42.536 -12.513   6.117  1.00  0.00     0.340 C 
HETATM    3  N   UNL     1      41.817 -13.160   5.127  1.00  0.00    -0.249 N 
HETATM    4  O   UNL     1      43.290 -13.113   6.883  1.00  0.00    -0.245 OA
HETATM    5  H   UNL     1      41.558 -10.804   5.512  1.00  0.00     0.172 HD
HETATM    6  H   UNL     1      41.565 -12.651   4.281  1.00  0.00     0.192 HD
ENDROOT
BRANCH   1   7
HETATM    7  C   UNL     1      42.787 -10.296   7.082  1.00  0.00     0.116 A 
HETATM    8  N   UNL     1      44.126 -10.238   7.358  1.00  0.00    -0.345 N 
HETATM    9  C   UNL     1      44.367  -9.322   8.349  1.00  0.00     0.024 A 
HETATM   10  H   UNL     1      44.817 -10.820   6.896  1.00  0.00     0.167 HD
HETATM   11  C   UNL     1      43.148  -8.768   8.732  1.00  0.00     0.071 A 
HETATM   12  C   UNL     1      45.748  -9.082   8.846  1.00  0.00     0.069 C 
HETATM   13  C   UNL     1      42.139  -9.378   7.891  1.00  0.00     0.000 A 
HETATM   14  C   UNL     1      40.677  -9.087   7.909  1.00  0.00     0.053 C 
BRANCH  11  15
HETATM   15  C   UNL     1      42.990  -7.769   9.798  1.00  0.00     0.295 C 
HETATM   16  O   UNL     1      43.316  -6.594   9.682  1.00  0.00    -0.259 OA
BRANCH  15  17
HETATM   17  O   UNL     1      42.455  -8.296  10.940  1.00  0.00    -0.318 OA
BRANCH  17  18
HETATM   18  C   UNL     1      43.393  -8.737  11.931  1.00  0.00     0.174 C 
HETATM   19  C   UNL     1      43.313  -7.854  13.162  1.00  0.00     0.034 C 
ENDBRANCH  17  18
ENDBRANCH  15  17
ENDBRANCH  11  15
ENDBRANCH   1   7
BRANCH   3  20
HETATM   20  N   UNL     1      42.075 -14.523   4.911  1.00  0.00    -0.262 N 
HETATM   21  C   UNL     1      42.816 -14.852   3.792  1.00  0.00     0.270 C 
HETATM   22  O   UNL     1      43.200 -13.998   2.995  1.00  0.00    -0.266 OA
HETATM   23  H   UNL     1      41.955 -15.135   5.716  1.00  0.00     0.190 HD
BRANCH  21  24
HETATM   24  C   UNL     1      43.154 -16.289   3.593  1.00  0.00     0.033 A 
HETATM   25  C   UNL     1      43.859 -17.039   4.540  1.00  0.00     0.020 A 
HETATM   26  C   UNL     1      44.112 -18.395   4.306  1.00  0.00     0.038 A 
HETATM   27  C   UNL     1      43.659 -19.019   3.140  1.00  0.00     0.068 A 
HETATM   28  C   UNL     1      42.955 -18.273   2.196  1.00  0.00     0.038 A 
HETATM   29  C   UNL     1      42.702 -16.915   2.424  1.00  0.00     0.020 A 
BRANCH  27  30
HETATM   30  O   UNL     1      43.965 -20.349   3.047  1.00  0.00    -0.356 OA
HETATM   31  C   UNL     1      43.964 -21.094   4.259  1.00  0.00     0.210 C 
ENDBRANCH  27  30
ENDBRANCH  21  24
ENDBRANCH   3  20
TORSDOF 7
ENDMDL
MODEL 3
REMARK VINA RESULT:      -7.2      6.702     10.511
REMARK  7 active torsions:
REMARK  status: ('A' for Active; 'I' for Inactive)
REMARK    1  A    between atoms: C_2  and  O_3 
REMARK    2  A    between atoms: O_3  and  C_4 
REMARK    3  A    between atoms: C_4  and  C_5 
REMARK    4  A    between atoms: C_10  and  N_11 
REMARK       I    between atoms: N_11  and  C_12 
REMARK       I    between atoms: C_12  and  N_13 
REMARK    5  A    between atoms: N_13  and  N_14 
REMARK       I    between atoms: N_14  and  C_15 
REMARK    6  A    between atoms: C_15  and  C_16 
REMARK    7  A    between atoms: C_19  and  O_20 
ROOT
HETATM    1  N   UNL     1      43.674 -13.115   5.963  1.00  0.00    -0.293 N 
HETATM    2  C   UNL     1      43.035 -12.117   6.672  1.00  0.00     0.340 C 
HETATM    3  N   UNL     1      43.713 -11.809   7.839  1.00  0.00    -0.249 N 
HETATM    4  O   UNL     1      41.975 -11.574   6.362  1.00  0.00    -0.245 OA
HETATM    5  H   UNL     1      44.500 -13.533   6.365  1.00  0.00     0.172 HD
HETATM    6  H   UNL     1      44.725 -11.918   7.871  1.00  0.00     0.192 HD
ENDROOT
BRANCH   1   7
HETATM    7  C   UNL     1      43.174 -13.658   4.797  1.00  0.00     0.116 A 
HETATM    8  N   UNL     1      42.730 -12.890   3.756  1.00  0.00    -0.345 N 
HETATM    9  C   UNL     1      42.255 -13.686   2.746  1.00  0.00     0.024 A 
HETATM   10  H   UNL     1      42.740 -11.875   3.767  1.00  0.00     0.167 HD
HETATM   11  C   UNL     1      42.392 -15.015   3.143  1.00  0.00     0.071 A 
HETATM   12  C   UNL     1      41.697 -13.089   1.503  1.00  0.00     0.069 C 
HETATM   13  C   UNL     1      43.011 -14.989   4.451  1.00  0.00     0.000 A 
HETATM   14  C   UNL     1      43.384 -16.173   5.278  1.00  0.00     0.053 C 
BRANCH  11  15
HETATM   15  C   UNL     1      41.958 -16.167   2.341  1.00  0.00     0.295 C 
HETATM   16  O   UNL     1      40.788 -16.400   2.064  1.00  0.00    -0.259 OA
BRANCH  15  17
HETATM   17  O   UNL     1      43.000 -16.961   1.951  1.00  0.00    -0.318 OA
BRANCH  17  18
HETATM   18  C   UNL     1      42.887 -18.353   2.271  1.00  0.00     0.174 C 
HETATM   19  C   UNL     1      44.162 -18.848   2.928  1.00  0.00     0.034 C 
ENDBRANCH  17  18
ENDBRANCH  15  17
ENDBRANCH  11  15
ENDBRANCH   1   7
BRANCH   3  20
HETATM   20  N   UNL     1      43.235 -10.738   8.613  1.00  0.00    -0.262 N 
HETATM   21  C   UNL     1      44.095 -10.216   9.560  1.00  0.00     0.270 C 
HETATM   22  O   UNL     1      45.214 -10.688   9.750  1.00  0.00    -0.266 OA
HETATM   23  H   UNL     1      42.424 -10.245   8.243  1.00  0.00     0.190 HD
BRANCH  21  24
HETATM   24  C   UNL     1      43.621  -9.036  10.337  1.00  0.00     0.033 A 
HETATM   25  C   UNL     1      43.194  -7.851   9.730  1.00  0.00     0.020 A 
HETATM   26  C   UNL     1      42.727  -6.794  10.518  1.00  0.00     0.038 A 
HETATM   27  C   UNL     1      42.670  -6.907  11.910  1.00  0.00     0.068 A 
HETATM   28  C   UNL     1      43.094  -8.089  12.517  1.00  0.00     0.038 A 
HETATM   29  C   UNL     1      43.565  -9.149  11.733  1.00  0.00     0.020 A 
BRANCH  27  30
HETATM   30  O   UNL     1      42.181  -5.804  12.554  1.00  0.00    -0.356 OA
HETATM   31  C   UNL     1      42.011  -5.906  13.963  1.00  0.00     0.210 C 
ENDBRANCH  27  30
ENDBRANCH  21  24
ENDBRANCH   3  20
TORSDOF 7
ENDMDL
MODEL 4
REMARK VINA RESULT:      -7.1      7.697     12.035
REMARK  7 active torsions:
REMARK  status: ('A' for Active; 'I' for Inactive)
REMARK    1  A    between atoms: C_2  and  O_3 
REMARK    2  A    between atoms: O_3  and  C_4 
REMARK    3  A    between atoms: C_4  and  C_5 
REMARK    4  A    between atoms: C_10  and  N_11 
REMARK       I    between atoms: N_11  and  C_12 
REMARK       I    between atoms: C_12  and  N_13 
REMARK    5  A    between atoms: N_13  and  N_14 
REMARK       I    between atoms: N_14  and  C_15 
REMARK    6  A    between atoms: C_15  and  C_16 
REMARK    7  A    between atoms: C_19  and  O_20 
ROOT
HETATM    1  N   UNL     1      44.400 -11.479   7.145  1.00  0.00    -0.293 N 
HETATM    2  C   UNL     1      43.716 -10.714   8.069  1.00  0.00     0.340 C 
HETATM    3  N   UNL     1      44.476 -10.485   9.202  1.00  0.00    -0.249 N 
HETATM    4  O   UNL     1      42.560 -10.305   7.956  1.00  0.00    -0.245 OA
HETATM    5  H   UNL     1      45.318 -11.817   7.391  1.00  0.00     0.172 HD
HETATM    6  H   UNL     1      45.490 -10.436   9.120  1.00  0.00     0.192 HD
ENDROOT
BRANCH   1   7
HETATM    7  C   UNL     1      43.848 -11.909   5.955  1.00  0.00     0.116 A 
HETATM    8  N   UNL     1      43.487 -11.048   4.955  1.00  0.00    -0.345 N 
HETATM    9  C   UNL     1      42.933 -11.740   3.910  1.00  0.00     0.024 A 
HETATM   10  H   UNL     1      43.603 -10.042   5.015  1.00  0.00     0.167 HD
HETATM   11  C   UNL     1      42.929 -13.094   4.241  1.00  0.00     0.071 A 
HETATM   12  C   UNL     1      42.441 -11.029   2.700  1.00  0.00     0.069 C 
HETATM   13  C   UNL     1      43.547 -13.197   5.546  1.00  0.00     0.000 A 
HETATM   14  C   UNL     1      43.793 -14.452   6.313  1.00  0.00     0.053 C 
BRANCH  11  15
HETATM   15  C   UNL     1      42.379 -14.154   3.385  1.00  0.00     0.295 C 
HETATM   16  O   UNL     1      41.181 -14.392   3.285  1.00  0.00    -0.259 OA
BRANCH  15  17
HETATM   17  O   UNL     1      43.348 -14.858   2.727  1.00  0.00    -0.318 OA
BRANCH  17  18
HETATM   18  C   UNL     1      42.893 -15.756   1.707  1.00  0.00     0.174 C 
HETATM   19  C   UNL     1      43.095 -17.195   2.144  1.00  0.00     0.034 C 
ENDBRANCH  17  18
ENDBRANCH  15  17
ENDBRANCH  11  15
ENDBRANCH   1   7
BRANCH   3  20
HETATM   20  N   UNL     1      43.947  -9.635  10.188  1.00  0.00    -0.262 N 
HETATM   21  C   UNL     1      43.601 -10.213  11.394  1.00  0.00     0.270 C 
HETATM   22  O   UNL     1      43.710 -11.422  11.589  1.00  0.00    -0.266 OA
HETATM   23  H   UNL     1      44.117  -8.639  10.060  1.00  0.00     0.190 HD
BRANCH  21  24
HETATM   24  C   UNL     1      43.104  -9.308  12.469  1.00  0.00     0.033 A 
HETATM   25  C   UNL     1      42.230  -9.736  13.473  1.00  0.00     0.020 A 
HETATM   26  C   UNL     1      41.830  -8.844  14.474  1.00  0.00     0.038 A 
HETATM   27  C   UNL     1      42.300  -7.528  14.493  1.00  0.00     0.068 A 
HETATM   28  C   UNL     1      43.172  -7.101  13.492  1.00  0.00     0.038 A 
HETATM   29  C   UNL     1      43.573  -7.988  12.487  1.00  0.00     0.020 A 
BRANCH  27  30
HETATM   30  O   UNL     1      41.838  -6.770  15.534  1.00  0.00    -0.356 OA
HETATM   31  C   UNL     1      40.717  -7.276  16.249  1.00  0.00     0.210 C 
ENDBRANCH  27  30
ENDBRANCH  21  24
ENDBRANCH   3  20
TORSDOF 7
ENDMDL
MODEL 5
REMARK VINA RESULT:      -7.0      1.559     10.592
REMARK  7 active torsions:
REMARK  status: ('A' for Active; 'I' for Inactive)
REMARK    1  A    between atoms: C_2  and  O_3 
REMARK    2  A    between atoms: O_3  and  C_4 
REMARK    3  A    between atoms: C_4  and  C_5 
REMARK    4  A    between atoms: C_10  and  N_11 
REMARK       I    between atoms: N_11  and  C_12 
REMARK       I    between atoms: C_12  and  N_13 
REMARK    5  A    between atoms: N_13  and  N_14 
REMARK       I    between atoms: N_14  and  C_15 
REMARK    6  A    between atoms: C_15  and  C_16 
REMARK    7  A    between atoms: C_19  and  O_20 
ROOT
HETATM    1  N   UNL     1      38.782 -13.029   0.055  1.00  0.00    -0.293 N 
HETATM    2  C   UNL     1      39.894 -13.758   0.426  1.00  0.00     0.340 C 
HETATM    3  N   UNL     1      39.560 -14.789   1.288  1.00  0.00    -0.249 N 
HETATM    4  O   UNL     1      41.056 -13.528   0.091  1.00  0.00    -0.245 OA
HETATM    5  H   UNL     1      37.892 -13.274   0.461  1.00  0.00     0.172 HD
HETATM    6  H   UNL     1      38.642 -15.222   1.214  1.00  0.00     0.192 HD
ENDROOT
BRANCH   1   7
HETATM    7  C   UNL     1      38.843 -11.905  -0.745  1.00  0.00     0.116 A 
HETATM    8  N   UNL     1      39.634 -10.830  -0.449  1.00  0.00    -0.345 N 
HETATM    9  C   UNL     1      39.470  -9.846  -1.389  1.00  0.00     0.024 A 
HETATM   10  H   UNL     1      40.230 -10.784   0.371  1.00  0.00     0.167 HD
HETATM   11  C   UNL     1      38.541 -10.293  -2.326  1.00  0.00     0.071 A 
HETATM   12  C   UNL     1      40.211  -8.560  -1.284  1.00  0.00     0.069 C 
HETATM   13  C   UNL     1      38.164 -11.632  -1.921  1.00  0.00     0.000 A 
HETATM   14  C   UNL     1      37.210 -12.534  -2.626  1.00  0.00     0.053 C 
BRANCH  11  15
HETATM   15  C   UNL     1      38.073  -9.502  -3.472  1.00  0.00     0.295 C 
HETATM   16  O   UNL     1      38.618  -9.508  -4.570  1.00  0.00    -0.259 OA
BRANCH  15  17
HETATM   17  O   UNL     1      36.975  -8.744  -3.178  1.00  0.00    -0.318 OA
BRANCH  17  18
HETATM   18  C   UNL     1      35.711  -9.274  -3.600  1.00  0.00     0.174 C 
HETATM   19  C   UNL     1      34.847  -9.598  -2.396  1.00  0.00     0.034 C 
ENDBRANCH  17  18
ENDBRANCH  15  17
ENDBRANCH  11  15
ENDBRANCH   1   7
BRANCH   3  20
HETATM   20  N   UNL     1      40.577 -15.680   1.671  1.00  0.00    -0.262 N 
HETATM   21  C   UNL     1      41.007 -15.615   2.982  1.00  0.00     0.270 C 
HETATM   22  O   UNL     1      40.553 -14.790   3.773  1.00  0.00    -0.266 OA
HETATM   23  H   UNL     1      40.723 -16.483   1.061  1.00  0.00     0.190 HD
BRANCH  21  24
HETATM   24  C   UNL     1      42.035 -16.602   3.415  1.00  0.00     0.033 A 
HETATM   25  C   UNL     1      42.437 -16.741   4.747  1.00  0.00     0.020 A 
HETATM   26  C   UNL     1      43.382 -17.713   5.092  1.00  0.00     0.038 A 
HETATM   27  C   UNL     1      43.927 -18.561   4.123  1.00  0.00     0.068 A 
HETATM   28  C   UNL     1      43.526 -18.424   2.794  1.00  0.00     0.038 A 
HETATM   29  C   UNL     1      42.582 -17.451   2.444  1.00  0.00     0.020 A 
BRANCH  27  30
HETATM   30  O   UNL     1      44.828 -19.471   4.600  1.00  0.00    -0.356 OA
HETATM   31  C   UNL     1      44.298 -20.670   5.154  1.00  0.00     0.210 C 
ENDBRANCH  27  30
ENDBRANCH  21  24
ENDBRANCH   3  20
TORSDOF 7
ENDMDL
MODEL 6
REMARK VINA RESULT:      -6.8     13.236     17.962
REMARK  7 active torsions:
REMARK  status: ('A' for Active; 'I' for Inactive)
REMARK    1  A    between atoms: C_2  and  O_3 
REMARK    2  A    between atoms: O_3  and  C_4 
REMARK    3  A    between atoms: C_4  and  C_5 
REMARK    4  A    between atoms: C_10  and  N_11 
REMARK       I    between atoms: N_11  and  C_12 
REMARK       I    between atoms: C_12  and  N_13 
REMARK    5  A    between atoms: N_13  and  N_14 
REMARK       I    between atoms: N_14  and  C_15 
REMARK    6  A    between atoms: C_15  and  C_16 
REMARK    7  A    between atoms: C_19  and  O_20 
ROOT
HETATM    1  N   UNL     1      42.958  -6.815  13.703  1.00  0.00    -0.293 N 
HETATM    2  C   UNL     1      42.490  -7.421  14.852  1.00  0.00     0.340 C 
HETATM    3  N   UNL     1      42.675  -6.615  15.962  1.00  0.00    -0.249 N 
HETATM    4  O   UNL     1      42.004  -8.549  14.929  1.00  0.00    -0.245 OA
HETATM    5  H   UNL     1      43.407  -5.915  13.785  1.00  0.00     0.172 HD
HETATM    6  H   UNL     1      42.659  -5.603  15.851  1.00  0.00     0.192 HD
ENDROOT
BRANCH   1   7
HETATM    7  C   UNL     1      42.956  -7.428  12.466  1.00  0.00     0.116 A 
HETATM    8  N   UNL     1      43.384  -8.714  12.278  1.00  0.00    -0.345 N 
HETATM    9  C   UNL     1      43.309  -9.052  10.952  1.00  0.00     0.024 A 
HETATM   10  H   UNL     1      43.726  -9.304  13.030  1.00  0.00     0.167 HD
HETATM   11  C   UNL     1      42.820  -7.950  10.253  1.00  0.00     0.071 A 
HETATM   12  C   UNL     1      43.735 -10.397  10.482  1.00  0.00     0.069 C 
HETATM   13  C   UNL     1      42.567  -6.920  11.239  1.00  0.00     0.000 A 
HETATM   14  C   UNL     1      42.012  -5.561  10.976  1.00  0.00     0.053 C 
BRANCH  11  15
HETATM   15  C   UNL     1      42.633  -7.910   8.796  1.00  0.00     0.295 C 
HETATM   16  O   UNL     1      43.387  -7.322   8.030  1.00  0.00    -0.259 OA
BRANCH  15  17
HETATM   17  O   UNL     1      41.517  -8.586   8.388  1.00  0.00    -0.318 OA
BRANCH  17  18
HETATM   18  C   UNL     1      40.270  -7.898   8.548  1.00  0.00     0.174 C 
HETATM   19  C   UNL     1      39.360  -8.667   9.488  1.00  0.00     0.034 C 
ENDBRANCH  17  18
ENDBRANCH  15  17
ENDBRANCH  11  15
ENDBRANCH   1   7
BRANCH   3  20
HETATM   20  N   UNL     1      42.155  -7.058  17.190  1.00  0.00    -0.262 N 
HETATM   21  C   UNL     1      40.995  -6.454  17.635  1.00  0.00     0.270 C 
HETATM   22  O   UNL     1      40.461  -5.539  17.010  1.00  0.00    -0.266 OA
HETATM   23  H   UNL     1      42.490  -7.963  17.518  1.00  0.00     0.190 HD
BRANCH  21  24
HETATM   24  C   UNL     1      40.399  -6.965  18.900  1.00  0.00     0.033 A 
HETATM   25  C   UNL     1      39.690  -8.168  18.970  1.00  0.00     0.020 A 
HETATM   26  C   UNL     1      39.186  -8.609  20.199  1.00  0.00     0.038 A 
HETATM   27  C   UNL     1      39.390  -7.867  21.366  1.00  0.00     0.068 A 
HETATM   28  C   UNL     1      40.098  -6.668  21.298  1.00  0.00     0.038 A 
HETATM   29  C   UNL     1      40.602  -6.221  20.070  1.00  0.00     0.020 A 
BRANCH  27  30
HETATM   30  O   UNL     1      38.856  -8.421  22.497  1.00  0.00    -0.356 OA
HETATM   31  C   UNL     1      39.711  -9.254  23.271  1.00  0.00     0.210 C 
ENDBRANCH  27  30
ENDBRANCH  21  24
ENDBRANCH   3  20
TORSDOF 7
ENDMDL
MODEL 7
REMARK VINA RESULT:      -6.8     16.003     18.541
REMARK  7 active torsions:
REMARK  status: ('A' for Active; 'I' for Inactive)
REMARK    1  A    between atoms: C_2  and  O_3 
REMARK    2  A    between atoms: O_3  and  C_4 
REMARK    3  A    between atoms: C_4  and  C_5 
REMARK    4  A    between atoms: C_10  and  N_11 
REMARK       I    between atoms: N_11  and  C_12 
REMARK       I    between atoms: C_12  and  N_13 
REMARK    5  A    between atoms: N_13  and  N_14 
REMARK       I    between atoms: N_14  and  C_15 
REMARK    6  A    between atoms: C_15  and  C_16 
REMARK    7  A    between atoms: C_19  and  O_20 
ROOT
HETATM    1  N   UNL     1      39.962 -31.224   4.801  1.00  0.00    -0.293 N 
HETATM    2  C   UNL     1      41.104 -31.272   4.025  1.00  0.00     0.340 C 
HETATM    3  N   UNL     1      41.751 -30.048   3.998  1.00  0.00    -0.249 N 
HETATM    4  O   UNL     1      41.506 -32.245   3.388  1.00  0.00    -0.245 OA
HETATM    5  H   UNL     1      39.700 -30.340   5.211  1.00  0.00     0.172 HD
HETATM    6  H   UNL     1      41.683 -29.431   4.806  1.00  0.00     0.192 HD
ENDROOT
BRANCH   1   7
HETATM    7  C   UNL     1      39.095 -32.289   4.943  1.00  0.00     0.116 A 
HETATM    8  N   UNL     1      38.464 -32.874   3.879  1.00  0.00    -0.345 N 
HETATM    9  C   UNL     1      37.636 -33.878   4.311  1.00  0.00     0.024 A 
HETATM   10  H   UNL     1      38.592 -32.572   2.919  1.00  0.00     0.167 HD
HETATM   11  C   UNL     1      37.729 -33.946   5.700  1.00  0.00     0.071 A 
HETATM   12  C   UNL     1      36.821 -34.662   3.346  1.00  0.00     0.069 C 
HETATM   13  C   UNL     1      38.692 -32.940   6.096  1.00  0.00     0.000 A 
HETATM   14  C   UNL     1      39.147 -32.648   7.485  1.00  0.00     0.053 C 
BRANCH  11  15
HETATM   15  C   UNL     1      36.959 -34.878   6.536  1.00  0.00     0.295 C 
HETATM   16  O   UNL     1      37.276 -36.048   6.718  1.00  0.00    -0.259 OA
BRANCH  15  17
HETATM   17  O   UNL     1      35.843 -34.304   7.076  1.00  0.00    -0.318 OA
BRANCH  17  18
HETATM   18  C   UNL     1      35.042 -35.148   7.914  1.00  0.00     0.174 C 
HETATM   19  C   UNL     1      35.187 -34.737   9.367  1.00  0.00     0.034 C 
ENDBRANCH  17  18
ENDBRANCH  15  17
ENDBRANCH  11  15
ENDBRANCH   1   7
BRANCH   3  20
HETATM   20  N   UNL     1      42.984 -29.972   3.330  1.00  0.00    -0.262 N 
HETATM   21  C   UNL     1      42.976 -29.436   2.057  1.00  0.00     0.270 C 
HETATM   22  O   UNL     1      41.935 -29.077   1.512  1.00  0.00    -0.266 OA
HETATM   23  H   UNL     1      43.816 -30.045   3.914  1.00  0.00     0.190 HD
BRANCH  21  24
HETATM   24  C   UNL     1      44.289 -29.288   1.368  1.00  0.00     0.033 A 
HETATM   25  C   UNL     1      44.410 -29.230  -0.024  1.00  0.00     0.020 A 
HETATM   26  C   UNL     1      45.670 -29.054  -0.606  1.00  0.00     0.038 A 
HETATM   27  C   UNL     1      46.815 -28.922   0.186  1.00  0.00     0.068 A 
HETATM   28  C   UNL     1      46.695 -28.978   1.574  1.00  0.00     0.038 A 
HETATM   29  C   UNL     1      45.437 -29.157   2.161  1.00  0.00     0.020 A 
BRANCH  27  30
HETATM   30  O   UNL     1      47.976 -28.742  -0.513  1.00  0.00    -0.356 OA
HETATM   31  C   UNL     1      47.875 -28.719  -1.932  1.00  0.00     0.210 C 
ENDBRANCH  27  30
ENDBRANCH  21  24
ENDBRANCH   3  20
TORSDOF 7
ENDMDL
MODEL 8
REMARK VINA RESULT:      -6.7      2.119     10.444
REMARK  7 active torsions:
REMARK  status: ('A' for Active; 'I' for Inactive)
REMARK    1  A    between atoms: C_2  and  O_3 
REMARK    2  A    between atoms: O_3  and  C_4 
REMARK    3  A    between atoms: C_4  and  C_5 
REMARK    4  A    between atoms: C_10  and  N_11 
REMARK       I    between atoms: N_11  and  C_12 
REMARK       I    between atoms: C_12  and  N_13 
REMARK    5  A    between atoms: N_13  and  N_14 
REMARK       I    between atoms: N_14  and  C_15 
REMARK    6  A    between atoms: C_15  and  C_16 
REMARK    7  A    between atoms: C_19  and  O_20 
ROOT
HETATM    1  N   UNL     1      39.045 -12.850  -0.040  1.00  0.00    -0.293 N 
HETATM    2  C   UNL     1      40.097 -13.626   0.406  1.00  0.00     0.340 C 
HETATM    3  N   UNL     1      39.649 -14.752   1.076  1.00  0.00    -0.249 N 
HETATM    4  O   UNL     1      41.293 -13.364   0.281  1.00  0.00    -0.245 OA
HETATM    5  H   UNL     1      38.107 -13.138   0.194  1.00  0.00     0.172 HD
HETATM    6  H   UNL     1      38.758 -15.168   0.811  1.00  0.00     0.192 HD
ENDROOT
BRANCH   1   7
HETATM    7  C   UNL     1      39.212 -11.638  -0.679  1.00  0.00     0.116 A 
HETATM    8  N   UNL     1      38.927 -10.442  -0.080  1.00  0.00    -0.345 N 
HETATM    9  C   UNL     1      39.148  -9.409  -0.953  1.00  0.00     0.024 A 
HETATM   10  H   UNL     1      38.580 -10.362   0.870  1.00  0.00     0.167 HD
HETATM   11  C   UNL     1      39.589  -9.949  -2.160  1.00  0.00     0.071 A 
HETATM   12  C   UNL     1      38.896  -8.000  -0.547  1.00  0.00     0.069 C 
HETATM   13  C   UNL     1      39.655 -11.383  -1.965  1.00  0.00     0.000 A 
HETATM   14  C   UNL     1      40.098 -12.392  -2.969  1.00  0.00     0.053 C 
BRANCH  11  15
HETATM   15  C   UNL     1      39.896  -9.157  -3.359  1.00  0.00     0.295 C 
HETATM   16  O   UNL     1      39.104  -8.978  -4.276  1.00  0.00    -0.259 OA
BRANCH  15  17
HETATM   17  O   UNL     1      41.168  -8.656  -3.349  1.00  0.00    -0.318 OA
BRANCH  17  18
HETATM   18  C   UNL     1      41.531  -7.835  -4.466  1.00  0.00     0.174 C 
HETATM   19  C   UNL     1      42.838  -7.116  -4.188  1.00  0.00     0.034 C 
ENDBRANCH  17  18
ENDBRANCH  15  17
ENDBRANCH  11  15
ENDBRANCH   1   7
BRANCH   3  20
HETATM   20  N   UNL     1      40.607 -15.689   1.498  1.00  0.00    -0.262 N 
HETATM   21  C   UNL     1      41.018 -15.616   2.815  1.00  0.00     0.270 C 
HETATM   22  O   UNL     1      40.598 -14.748   3.578  1.00  0.00    -0.266 OA
HETATM   23  H   UNL     1      40.718 -16.514   0.910  1.00  0.00     0.190 HD
BRANCH  21  24
HETATM   24  C   UNL     1      41.981 -16.649   3.290  1.00  0.00     0.033 A 
HETATM   25  C   UNL     1      42.614 -17.547   2.426  1.00  0.00     0.020 A 
HETATM   26  C   UNL     1      43.537 -18.468   2.933  1.00  0.00     0.038 A 
HETATM   27  C   UNL     1      43.847 -18.499   4.296  1.00  0.00     0.068 A 
HETATM   28  C   UNL     1      43.217 -17.602   5.158  1.00  0.00     0.038 A 
HETATM   29  C   UNL     1      42.291 -16.680   4.656  1.00  0.00     0.020 A 
BRANCH  27  30
HETATM   30  O   UNL     1      44.773 -19.439   4.651  1.00  0.00    -0.356 OA
HETATM   31  C   UNL     1      44.284 -20.616   5.284  1.00  0.00     0.210 C 
ENDBRANCH  27  30
ENDBRANCH  21  24
ENDBRANCH   3  20
TORSDOF 7
ENDMDL
MODEL 9
REMARK VINA RESULT:      -6.6      7.385     10.367
REMARK  7 active torsions:
REMARK  status: ('A' for Active; 'I' for Inactive)
REMARK    1  A    between atoms: C_2  and  O_3 
REMARK    2  A    between atoms: O_3  and  C_4 
REMARK    3  A    between atoms: C_4  and  C_5 
REMARK    4  A    between atoms: C_10  and  N_11 
REMARK       I    between atoms: N_11  and  C_12 
REMARK       I    between atoms: C_12  and  N_13 
REMARK    5  A    between atoms: N_13  and  N_14 
REMARK       I    between atoms: N_14  and  C_15 
REMARK    6  A    between atoms: C_15  and  C_16 
REMARK    7  A    between atoms: C_19  and  O_20 
ROOT
HETATM    1  N   UNL     1      43.775 -10.770   9.361  1.00  0.00    -0.293 N 
HETATM    2  C   UNL     1      43.406 -10.953   8.043  1.00  0.00     0.340 C 
HETATM    3  N   UNL     1      43.938 -12.121   7.524  1.00  0.00    -0.249 N 
HETATM    4  O   UNL     1      42.728 -10.179   7.367  1.00  0.00    -0.245 OA
HETATM    5  H   UNL     1      44.399 -11.442   9.780  1.00  0.00     0.172 HD
HETATM    6  H   UNL     1      44.102 -12.912   8.144  1.00  0.00     0.192 HD
ENDROOT
BRANCH   1   7
HETATM    7  C   UNL     1      43.435  -9.652  10.096  1.00  0.00     0.116 A 
HETATM    8  N   UNL     1      43.352  -8.403   9.546  1.00  0.00    -0.345 N 
HETATM    9  C   UNL     1      43.035  -7.479  10.508  1.00  0.00     0.024 A 
HETATM   10  H   UNL     1      43.528  -8.212   8.565  1.00  0.00     0.167 HD
HETATM   11  C   UNL     1      42.911  -8.148  11.724  1.00  0.00     0.071 A 
HETATM   12  C   UNL     1      42.901  -6.038  10.167  1.00  0.00     0.069 C 
HETATM   13  C   UNL     1      43.141  -9.550  11.445  1.00  0.00     0.000 A 
HETATM   14  C   UNL     1      43.090 -10.669  12.430  1.00  0.00     0.053 C 
BRANCH  11  15
HETATM   15  C   UNL     1      42.613  -7.490  13.005  1.00  0.00     0.295 C 
HETATM   16  O   UNL     1      43.453  -7.283  13.873  1.00  0.00    -0.259 OA
BRANCH  15  17
HETATM   17  O   UNL     1      41.296  -7.150  13.129  1.00  0.00    -0.318 OA
BRANCH  17  18
HETATM   18  C   UNL     1      40.421  -8.179  13.606  1.00  0.00     0.174 C 
HETATM   19  C   UNL     1      39.318  -8.443  12.598  1.00  0.00     0.034 C 
ENDBRANCH  17  18
ENDBRANCH  15  17
ENDBRANCH  11  15
ENDBRANCH   1   7
BRANCH   3  20
HETATM   20  N   UNL     1      43.565 -12.490   6.221  1.00  0.00    -0.262 N 
HETATM   21  C   UNL     1      43.194 -13.807   6.025  1.00  0.00     0.270 C 
HETATM   22  O   UNL     1      43.227 -14.632   6.935  1.00  0.00    -0.266 OA
HETATM   23  H   UNL     1      43.320 -11.728   5.591  1.00  0.00     0.190 HD
BRANCH  21  24
HETATM   24  C   UNL     1      42.730 -14.191   4.662  1.00  0.00     0.033 A 
HETATM   25  C   UNL     1      41.924 -15.310   4.425  1.00  0.00     0.020 A 
HETATM   26  C   UNL     1      41.493 -15.594   3.125  1.00  0.00     0.038 A 
HETATM   27  C   UNL     1      41.848 -14.768   2.054  1.00  0.00     0.068 A 
HETATM   28  C   UNL     1      42.650 -13.652   2.290  1.00  0.00     0.038 A 
HETATM   29  C   UNL     1      43.086 -13.364   3.588  1.00  0.00     0.020 A 
BRANCH  27  30
HETATM   30  O   UNL     1      41.348 -15.156   0.842  1.00  0.00    -0.356 OA
HETATM   31  C   UNL     1      39.950 -15.412   0.776  1.00  0.00     0.210 C 
ENDBRANCH  27  30
ENDBRANCH  21  24
ENDBRANCH   3  20
TORSDOF 7
ENDMDL
MODEL 10
REMARK VINA RESULT:      -6.5     16.369     18.504
REMARK  7 active torsions:
REMARK  status: ('A' for Active; 'I' for Inactive)
REMARK    1  A    between atoms: C_2  and  O_3 
REMARK    2  A    between atoms: O_3  and  C_4 
REMARK    3  A    between atoms: C_4  and  C_5 
REMARK    4  A    between atoms: C_10  and  N_11 
REMARK       I    between atoms: N_11  and  C_12 
REMARK       I    between atoms: C_12  and  N_13 
REMARK    5  A    between atoms: N_13  and  N_14 
REMARK       I    between atoms: N_14  and  C_15 
REMARK    6  A    between atoms: C_15  and  C_16 
REMARK    7  A    between atoms: C_19  and  O_20 
ROOT
HETATM    1  N   UNL     1      44.361 -28.965   2.996  1.00  0.00    -0.293 N 
HETATM    2  C   UNL     1      43.458 -30.008   2.941  1.00  0.00     0.340 C 
HETATM    3  N   UNL     1      42.315 -29.730   3.671  1.00  0.00    -0.249 N 
HETATM    4  O   UNL     1      43.627 -31.082   2.364  1.00  0.00    -0.245 OA
HETATM    5  H   UNL     1      44.134 -28.167   3.569  1.00  0.00     0.172 HD
HETATM    6  H   UNL     1      42.005 -28.765   3.763  1.00  0.00     0.192 HD
ENDROOT
BRANCH   1   7
HETATM    7  C   UNL     1      45.610 -29.010   2.411  1.00  0.00     0.116 A 
HETATM    8  N   UNL     1      45.893 -28.385   1.227  1.00  0.00    -0.345 N 
HETATM    9  C   UNL     1      47.192 -28.626   0.862  1.00  0.00     0.024 A 
HETATM   10  H   UNL     1      45.211 -27.847   0.703  1.00  0.00     0.167 HD
HETATM   11  C   UNL     1      47.773 -29.434   1.836  1.00  0.00     0.071 A 
HETATM   12  C   UNL     1      47.745 -28.069  -0.402  1.00  0.00     0.069 C 
HETATM   13  C   UNL     1      46.757 -29.652   2.845  1.00  0.00     0.000 A 
HETATM   14  C   UNL     1      46.912 -30.438   4.103  1.00  0.00     0.053 C 
BRANCH  11  15
HETATM   15  C   UNL     1      49.152 -29.939   1.781  1.00  0.00     0.295 C 
HETATM   16  O   UNL     1      49.560 -30.705   0.916  1.00  0.00    -0.259 OA
BRANCH  15  17
HETATM   17  O   UNL     1      49.926 -29.475   2.807  1.00  0.00    -0.318 OA
BRANCH  17  18
HETATM   18  C   UNL     1      50.982 -30.340   3.242  1.00  0.00     0.174 C 
HETATM   19  C   UNL     1      50.794 -30.710   4.701  1.00  0.00     0.034 C 
ENDBRANCH  17  18
ENDBRANCH  15  17
ENDBRANCH  11  15
ENDBRANCH   1   7
BRANCH   3  20
HETATM   20  N   UNL     1      41.263 -30.660   3.624  1.00  0.00    -0.262 N 
HETATM   21  C   UNL     1      40.931 -31.293   4.806  1.00  0.00     0.270 C 
HETATM   22  O   UNL     1      41.552 -31.088   5.848  1.00  0.00    -0.266 OA
HETATM   23  H   UNL     1      40.644 -30.596   2.817  1.00  0.00     0.190 HD
BRANCH  21  24
HETATM   24  C   UNL     1      39.772 -32.229   4.780  1.00  0.00     0.033 A 
HETATM   25  C   UNL     1      39.238 -32.738   3.593  1.00  0.00     0.020 A 
HETATM   26  C   UNL     1      38.172 -33.642   3.641  1.00  0.00     0.038 A 
HETATM   27  C   UNL     1      37.635 -34.056   4.864  1.00  0.00     0.068 A 
HETATM   28  C   UNL     1      38.168 -33.549   6.048  1.00  0.00     0.038 A 
HETATM   29  C   UNL     1      39.233 -32.642   6.006  1.00  0.00     0.020 A 
BRANCH  27  30
HETATM   30  O   UNL     1      36.606 -34.950   4.764  1.00  0.00    -0.356 OA
HETATM   31  C   UNL     1      36.128 -35.237   3.454  1.00  0.00     0.210 C 
ENDBRANCH  27  30
ENDBRANCH  21  24
ENDBRANCH   3  20
TORSDOF 7
ENDMDL
