MODEL 1
REMARK VINA RESULT:      -8.4      0.000      0.000
REMARK  9 active torsions:
REMARK  status: ('A' for Active; 'I' for Inactive)
REMARK    1  A    between atoms: C_2  and  N_3 
REMARK    2  A    between atoms: N_3  and  C_4 
REMARK    3  A    between atoms: C_4  and  N_5 
REMARK    4  A    between atoms: N_8  and  C_10 
REMARK    5  A    between atoms: C_10  and  C_11 
REMARK    6  A    between atoms: C_11  and  N_12 
REMARK    7  A    between atoms: C_13  and  C_14 
REMARK    8  A    between atoms: N_17  and  C_18 
REMARK    9  A    between atoms: C_28  and  C_29 
ROOT
HETATM    1  C   UNL     1      42.429 -12.358   5.817  1.00  0.00     0.085 C 
HETATM    2  C   UNL     1      42.183 -13.657   5.105  1.00  0.00     0.278 C 
HETATM    3  O   UNL     1      41.286 -13.804   4.293  1.00  0.00    -0.265 OA
HETATM    4  N   UNL     1      43.171 -14.531   5.536  1.00  0.00    -0.212 N 
HETATM    5  N   UNL     1      43.970 -13.882   6.475  1.00  0.00    -0.189 NA
HETATM    6  C   UNL     1      43.550 -12.555   6.542  1.00  0.00     0.130 C 
HETATM    7  H   UNL     1      44.974 -14.073   6.420  1.00  0.00     0.153 HD
ENDROOT
BRANCH   1   8
HETATM    8  C   UNL     1      41.582 -11.139   5.743  1.00  0.00     0.042 C 
HETATM    9  N   UNL     1      40.722 -10.906   6.689  1.00  0.00    -0.292 NA
HETATM   10  C   UNL     1      41.793 -10.233   4.542  1.00  0.00     0.071 C 
BRANCH   9  11
HETATM   11  C   UNL     1      39.857  -9.724   6.580  1.00  0.00     0.176 C 
BRANCH  11  12
HETATM   12  C   UNL     1      40.196  -8.746   7.712  1.00  0.00     0.256 C 
BRANCH  12  13
HETATM   13  N   UNL     1      40.477  -9.484   9.006  1.00  0.00    -0.066 N 
HETATM   14  C   UNL     1      41.676  -8.929   9.770  1.00  0.00     0.254 C 
HETATM   15  C   UNL     1      41.877  -9.689  11.097  1.00  0.00     0.153 C 
HETATM   16  N   UNL     1      40.650  -9.632  11.904  1.00  0.00    -0.355 N 
HETATM   17  C   UNL     1      39.492 -10.223  11.213  1.00  0.00     0.153 C 
HETATM   18  C   UNL     1      39.216  -9.542   9.864  1.00  0.00     0.254 C 
HETATM   19  H   UNL     1      40.727 -10.446   8.708  1.00  0.00     0.280 HD
BRANCH  16  20
HETATM   20  C   UNL     1      40.508  -8.587  12.834  1.00  0.00     0.169 C 
HETATM   21  S   UNL     1      39.711  -7.149  12.520  1.00  0.00    -0.041 SA
BRANCH  20  22
HETATM   22  N   UNL     1      41.137  -8.887  14.028  1.00  0.00    -0.367 N 
HETATM   23  H   UNL     1      40.564  -9.448  14.645  1.00  0.00     0.161 HD
BRANCH  22  24
HETATM   24  C   UNL     1      42.107  -8.031  14.708  1.00  0.00     0.117 C 
HETATM   25  C   UNL     1      43.166  -7.523  13.746  1.00  0.00     0.026 C 
ENDBRANCH  22  24
ENDBRANCH  20  22
ENDBRANCH  16  20
ENDBRANCH  12  13
ENDBRANCH  11  12
ENDBRANCH   9  11
ENDBRANCH   1   8
BRANCH   6  26
HETATM   26  C   UNL     1      44.284 -11.531   7.360  1.00  0.00     0.430 C 
HETATM   27  F   UNL     1      44.167 -10.288   6.823  1.00  0.00    -0.165 F 
HETATM   28  F   UNL     1      43.809 -11.425   8.638  1.00  0.00    -0.165 F 
HETATM   29  F   UNL     1      45.612 -11.792   7.463  1.00  0.00    -0.165 F 
ENDBRANCH   6  26
BRANCH   4  30
HETATM   30  C   UNL     1      43.314 -15.875   5.251  1.00  0.00     0.192 A 
HETATM   31  S   UNL     1      43.498 -17.013   6.507  1.00  0.00    -0.048 SA
HETATM   32  C   UNL     1      43.675 -18.273   5.353  1.00  0.00     0.037 A 
HETATM   33  C   UNL     1      43.551 -17.730   4.072  1.00  0.00     0.076 A 
HETATM   34  C   UNL     1      43.913 -19.641   5.565  1.00  0.00     0.021 A 
HETATM   35  N   UNL     1      43.321 -16.361   4.029  1.00  0.00    -0.222 NA
HETATM   36  C   UNL     1      43.674 -18.589   2.961  1.00  0.00     0.033 A 
HETATM   37  C   UNL     1      43.918 -19.953   3.159  1.00  0.00     0.002 A 
HETATM   38  C   UNL     1      44.035 -20.470   4.446  1.00  0.00     0.002 A 
ENDBRANCH   4  30
TORSDOF 9
ENDMDL
MODEL 2
REMARK VINA RESULT:      -8.3      1.982      2.584
REMARK  9 active torsions:
REMARK  status: ('A' for Active; 'I' for Inactive)
REMARK    1  A    between atoms: C_2  and  N_3 
REMARK    2  A    between atoms: N_3  and  C_4 
REMARK    3  A    between atoms: C_4  and  N_5 
REMARK    4  A    between atoms: N_8  and  C_10 
REMARK    5  A    between atoms: C_10  and  C_11 
REMARK    6  A    between atoms: C_11  and  N_12 
REMARK    7  A    between atoms: C_13  and  C_14 
REMARK    8  A    between atoms: N_17  and  C_18 
REMARK    9  A    between atoms: C_28  and  C_29 
ROOT
HETATM    1  C   UNL     1      43.259 -12.579   5.612  1.00  0.00     0.085 C 
HETATM    2  C   UNL     1      43.618 -14.029   5.755  1.00  0.00     0.278 C 
HETATM    3  O   UNL     1      44.181 -14.475   6.740  1.00  0.00    -0.265 OA
HETATM    4  N   UNL     1      43.143 -14.663   4.616  1.00  0.00    -0.212 N 
HETATM    5  N   UNL     1      42.562 -13.712   3.779  1.00  0.00    -0.189 NA
HETATM    6  C   UNL     1      42.568 -12.493   4.456  1.00  0.00     0.130 C 
HETATM    7  H   UNL     1      41.704 -13.998   3.300  1.00  0.00     0.153 HD
ENDROOT
BRANCH   1   8
HETATM    8  C   UNL     1      43.630 -11.483   6.546  1.00  0.00     0.042 C 
HETATM    9  N   UNL     1      42.699 -10.893   7.232  1.00  0.00    -0.292 NA
HETATM   10  C   UNL     1      45.106 -11.133   6.635  1.00  0.00     0.071 C 
BRANCH   9  11
HETATM   11  C   UNL     1      43.072  -9.780   8.115  1.00  0.00     0.176 C 
BRANCH  11  12
HETATM   12  C   UNL     1      41.803  -9.183   8.738  1.00  0.00     0.256 C 
BRANCH  12  13
HETATM   13  N   UNL     1      41.496  -9.828  10.075  1.00  0.00    -0.066 N 
HETATM   14  C   UNL     1      42.493  -9.453  11.169  1.00  0.00     0.254 C 
HETATM   15  C   UNL     1      42.097 -10.099  12.512  1.00  0.00     0.153 C 
HETATM   16  N   UNL     1      40.727  -9.711  12.877  1.00  0.00    -0.355 N 
HETATM   17  C   UNL     1      39.738 -10.122  11.867  1.00  0.00     0.153 C 
HETATM   18  C   UNL     1      40.052  -9.540  10.481  1.00  0.00     0.254 C 
HETATM   19  H   UNL     1      41.602 -10.845   9.905  1.00  0.00     0.280 HD
BRANCH  16  20
HETATM   20  C   UNL     1      40.544  -8.570  13.677  1.00  0.00     0.169 C 
HETATM   21  S   UNL     1      39.442  -7.354  13.347  1.00  0.00    -0.041 SA
BRANCH  20  22
HETATM   22  N   UNL     1      41.412  -8.567  14.754  1.00  0.00    -0.367 N 
HETATM   23  H   UNL     1      41.125  -9.196  15.493  1.00  0.00     0.161 HD
BRANCH  22  24
HETATM   24  C   UNL     1      42.194  -7.416  15.202  1.00  0.00     0.117 C 
HETATM   25  C   UNL     1      43.281  -7.063  14.203  1.00  0.00     0.026 C 
ENDBRANCH  22  24
ENDBRANCH  20  22
ENDBRANCH  16  20
ENDBRANCH  12  13
ENDBRANCH  11  12
ENDBRANCH   9  11
ENDBRANCH   1   8
BRANCH   6  26
HETATM   26  C   UNL     1      41.892 -11.273   3.900  1.00  0.00     0.430 C 
HETATM   27  F   UNL     1      40.824 -10.906   4.656  1.00  0.00    -0.165 F 
HETATM   28  F   UNL     1      42.709 -10.177   3.864  1.00  0.00    -0.165 F 
HETATM   29  F   UNL     1      41.435 -11.455   2.635  1.00  0.00    -0.165 F 
ENDBRANCH   6  26
BRANCH   4  30
HETATM   30  C   UNL     1      43.314 -15.977   4.227  1.00  0.00     0.192 A 
HETATM   31  S   UNL     1      42.961 -16.463   2.632  1.00  0.00    -0.048 SA
HETATM   32  C   UNL     1      43.341 -18.090   3.032  1.00  0.00     0.037 A 
HETATM   33  C   UNL     1      43.743 -18.141   4.368  1.00  0.00     0.076 A 
HETATM   34  C   UNL     1      43.282 -19.238   2.225  1.00  0.00     0.021 A 
HETATM   35  N   UNL     1      43.746 -16.922   5.033  1.00  0.00    -0.222 NA
HETATM   36  C   UNL     1      44.096 -19.391   4.919  1.00  0.00     0.033 A 
HETATM   37  C   UNL     1      44.033 -20.542   4.127  1.00  0.00     0.002 A 
HETATM   38  C   UNL     1      43.632 -20.465   2.797  1.00  0.00     0.002 A 
ENDBRANCH   4  30
TORSDOF 9
ENDMDL
MODEL 3
REMARK VINA RESULT:      -8.2      2.320      3.167
REMARK  9 active torsions:
REMARK  status: ('A' for Active; 'I' for Inactive)
REMARK    1  A    between atoms: C_2  and  N_3 
REMARK    2  A    between atoms: N_3  and  C_4 
REMARK    3  A    between atoms: C_4  and  N_5 
REMARK    4  A    between atoms: N_8  and  C_10 
REMARK    5  A    between atoms: C_10  and  C_11 
REMARK    6  A    between atoms: C_11  and  N_12 
REMARK    7  A    between atoms: C_13  and  C_14 
REMARK    8  A    between atoms: N_17  and  C_18 
REMARK    9  A    between atoms: C_28  and  C_29 
ROOT
HETATM    1  C   UNL     1      43.430 -10.256   7.363  1.00  0.00     0.085 C 
HETATM    2  C   UNL     1      42.643 -11.097   6.401  1.00  0.00     0.278 C 
HETATM    3  O   UNL     1      41.483 -10.861   6.114  1.00  0.00    -0.265 OA
HETATM    4  N   UNL     1      43.512 -12.076   5.938  1.00  0.00    -0.212 N 
HETATM    5  N   UNL     1      44.744 -11.920   6.568  1.00  0.00    -0.189 NA
HETATM    6  C   UNL     1      44.681 -10.761   7.341  1.00  0.00     0.130 C 
HETATM    7  H   UNL     1      45.571 -12.070   5.983  1.00  0.00     0.153 HD
ENDROOT
BRANCH   1   8
HETATM    8  C   UNL     1      42.907  -9.129   8.180  1.00  0.00     0.042 C 
HETATM    9  N   UNL     1      42.737  -7.968   7.625  1.00  0.00    -0.292 NA
HETATM   10  C   UNL     1      42.597  -9.430   9.637  1.00  0.00     0.071 C 
BRANCH   9  11
HETATM   11  C   UNL     1      42.265  -6.851   8.455  1.00  0.00     0.176 C 
BRANCH  11  12
HETATM   12  C   UNL     1      40.763  -6.647   8.218  1.00  0.00     0.256 C 
BRANCH  12  13
HETATM   13  N   UNL     1      40.014  -6.536   9.531  1.00  0.00    -0.066 N 
HETATM   14  C   UNL     1      39.226  -7.795   9.886  1.00  0.00     0.254 C 
HETATM   15  C   UNL     1      38.530  -7.636  11.252  1.00  0.00     0.153 C 
HETATM   16  N   UNL     1      39.519  -7.308  12.290  1.00  0.00    -0.355 N 
HETATM   17  C   UNL     1      40.245  -6.061  12.003  1.00  0.00     0.153 C 
HETATM   18  C   UNL     1      40.965  -6.111  10.647  1.00  0.00     0.254 C 
HETATM   19  H   UNL     1      39.321  -5.781   9.373  1.00  0.00     0.280 HD
BRANCH  16  20
HETATM   20  C   UNL     1      40.106  -8.363  13.012  1.00  0.00     0.169 C 
HETATM   21  S   UNL     1      39.840  -9.984  12.694  1.00  0.00    -0.041 SA
BRANCH  20  22
HETATM   22  N   UNL     1      40.905  -7.888  14.035  1.00  0.00    -0.367 N 
HETATM   23  H   UNL     1      40.710  -6.923  14.271  1.00  0.00     0.161 HD
BRANCH  22  24
HETATM   24  C   UNL     1      42.278  -8.315  14.300  1.00  0.00     0.117 C 
HETATM   25  C   UNL     1      43.189  -8.007  13.126  1.00  0.00     0.026 C 
ENDBRANCH  22  24
ENDBRANCH  20  22
ENDBRANCH  16  20
ENDBRANCH  12  13
ENDBRANCH  11  12
ENDBRANCH   9  11
ENDBRANCH   1   8
BRANCH   6  26
HETATM   26  C   UNL     1      45.885 -10.216   8.053  1.00  0.00     0.430 C 
HETATM   27  F   UNL     1      47.032 -10.791   7.604  1.00  0.00    -0.165 F 
HETATM   28  F   UNL     1      46.054  -8.871   7.869  1.00  0.00    -0.165 F 
HETATM   29  F   UNL     1      45.841 -10.418   9.394  1.00  0.00    -0.165 F 
ENDBRANCH   6  26
BRANCH   4  30
HETATM   30  C   UNL     1      43.237 -13.150   5.115  1.00  0.00     0.192 A 
HETATM   31  S   UNL     1      42.827 -14.667   5.776  1.00  0.00    -0.048 SA
HETATM   32  C   UNL     1      42.748 -15.344   4.199  1.00  0.00     0.037 A 
HETATM   33  C   UNL     1      43.018 -14.342   3.266  1.00  0.00     0.076 A 
HETATM   34  C   UNL     1      42.475 -16.668   3.816  1.00  0.00     0.021 A 
HETATM   35  N   UNL     1      43.272 -13.086   3.802  1.00  0.00    -0.222 NA
HETATM   36  C   UNL     1      43.017 -14.678   1.896  1.00  0.00     0.033 A 
HETATM   37  C   UNL     1      42.754 -15.994   1.503  1.00  0.00     0.002 A 
HETATM   38  C   UNL     1      42.486 -16.975   2.453  1.00  0.00     0.002 A 
ENDBRANCH   4  30
TORSDOF 9
ENDMDL
MODEL 4
REMARK VINA RESULT:      -8.2      2.242     10.074
REMARK  9 active torsions:
REMARK  status: ('A' for Active; 'I' for Inactive)
REMARK    1  A    between atoms: C_2  and  N_3 
REMARK    2  A    between atoms: N_3  and  C_4 
REMARK    3  A    between atoms: C_4  and  N_5 
REMARK    4  A    between atoms: N_8  and  C_10 
REMARK    5  A    between atoms: C_10  and  C_11 
REMARK    6  A    between atoms: C_11  and  N_12 
REMARK    7  A    between atoms: C_13  and  C_14 
REMARK    8  A    between atoms: N_17  and  C_18 
REMARK    9  A    between atoms: C_28  and  C_29 
ROOT
HETATM    1  C   UNL     1      42.633 -10.458   6.794  1.00  0.00     0.085 C 
HETATM    2  C   UNL     1      41.907  -9.836   7.952  1.00  0.00     0.278 C 
HETATM    3  O   UNL     1      40.718  -9.573   7.920  1.00  0.00    -0.265 OA
HETATM    4  N   UNL     1      42.840  -9.703   8.971  1.00  0.00    -0.212 N 
HETATM    5  N   UNL     1      44.075 -10.158   8.514  1.00  0.00    -0.189 NA
HETATM    6  C   UNL     1      43.886 -10.689   7.239  1.00  0.00     0.130 C 
HETATM    7  H   UNL     1      44.635 -10.691   9.185  1.00  0.00     0.153 HD
ENDROOT
BRANCH   1   8
HETATM    8  C   UNL     1      42.072 -10.723   5.443  1.00  0.00     0.042 C 
HETATM    9  N   UNL     1      41.743 -11.937   5.119  1.00  0.00    -0.292 NA
HETATM   10  C   UNL     1      41.918  -9.524   4.522  1.00  0.00     0.071 C 
BRANCH   9  11
HETATM   11  C   UNL     1      41.235 -12.192   3.765  1.00  0.00     0.176 C 
BRANCH  11  12
HETATM   12  C   UNL     1      42.380 -12.718   2.889  1.00  0.00     0.256 C 
BRANCH  12  13
HETATM   13  N   UNL     1      42.179 -14.182   2.549  1.00  0.00    -0.066 N 
HETATM   14  C   UNL     1      43.440 -14.857   2.015  1.00  0.00     0.254 C 
HETATM   15  C   UNL     1      43.182 -16.351   1.736  1.00  0.00     0.153 C 
HETATM   16  N   UNL     1      42.689 -17.016   2.951  1.00  0.00    -0.355 N 
HETATM   17  C   UNL     1      41.436 -16.424   3.448  1.00  0.00     0.153 C 
HETATM   18  C   UNL     1      41.583 -14.924   3.743  1.00  0.00     0.254 C 
HETATM   19  H   UNL     1      41.488 -14.177   1.775  1.00  0.00     0.280 HD
BRANCH  16  20
HETATM   20  C   UNL     1      43.625 -17.613   3.815  1.00  0.00     0.169 C 
HETATM   21  S   UNL     1      43.942 -17.082   5.370  1.00  0.00    -0.041 SA
BRANCH  20  22
HETATM   22  N   UNL     1      44.269 -18.672   3.204  1.00  0.00    -0.367 N 
HETATM   23  H   UNL     1      44.810 -18.391   2.396  1.00  0.00     0.161 HD
BRANCH  22  24
HETATM   24  C   UNL     1      43.772 -20.046   3.157  1.00  0.00     0.117 C 
HETATM   25  C   UNL     1      43.586 -20.519   1.727  1.00  0.00     0.026 C 
ENDBRANCH  22  24
ENDBRANCH  20  22
ENDBRANCH  16  20
ENDBRANCH  12  13
ENDBRANCH  11  12
ENDBRANCH   9  11
ENDBRANCH   1   8
BRANCH   6  26
HETATM   26  C   UNL     1      44.987 -11.394   6.501  1.00  0.00     0.430 C 
HETATM   27  F   UNL     1      46.212 -10.962   6.904  1.00  0.00    -0.165 F 
HETATM   28  F   UNL     1      44.990 -12.746   6.705  1.00  0.00    -0.165 F 
HETATM   29  F   UNL     1      44.926 -11.207   5.159  1.00  0.00    -0.165 F 
ENDBRANCH   6  26
BRANCH   4  30
HETATM   30  C   UNL     1      42.690  -9.093  10.201  1.00  0.00     0.192 A 
HETATM   31  S   UNL     1      42.871  -7.406  10.359  1.00  0.00    -0.048 SA
HETATM   32  C   UNL     1      42.624  -7.528  12.054  1.00  0.00     0.037 A 
HETATM   33  C   UNL     1      42.390  -8.866  12.379  1.00  0.00     0.076 A 
HETATM   34  C   UNL     1      42.643  -6.516  13.028  1.00  0.00     0.021 A 
HETATM   35  N   UNL     1      42.407  -9.747  11.305  1.00  0.00    -0.222 NA
HETATM   36  C   UNL     1      42.170  -9.204  13.730  1.00  0.00     0.033 A 
HETATM   37  C   UNL     1      42.195  -8.205  14.710  1.00  0.00     0.002 A 
HETATM   38  C   UNL     1      42.427  -6.878  14.361  1.00  0.00     0.002 A 
ENDBRANCH   4  30
TORSDOF 9
ENDMDL
MODEL 5
REMARK VINA RESULT:      -8.2      2.239      3.477
REMARK  9 active torsions:
REMARK  status: ('A' for Active; 'I' for Inactive)
REMARK    1  A    between atoms: C_2  and  N_3 
REMARK    2  A    between atoms: N_3  and  C_4 
REMARK    3  A    between atoms: C_4  and  N_5 
REMARK    4  A    between atoms: N_8  and  C_10 
REMARK    5  A    between atoms: C_10  and  C_11 
REMARK    6  A    between atoms: C_11  and  N_12 
REMARK    7  A    between atoms: C_13  and  C_14 
REMARK    8  A    between atoms: N_17  and  C_18 
REMARK    9  A    between atoms: C_28  and  C_29 
ROOT
HETATM    1  C   UNL     1      43.292 -10.397   7.362  1.00  0.00     0.085 C 
HETATM    2  C   UNL     1      42.573 -11.280   6.383  1.00  0.00     0.278 C 
HETATM    3  O   UNL     1      41.407 -11.111   6.074  1.00  0.00    -0.265 OA
HETATM    4  N   UNL     1      43.506 -12.206   5.937  1.00  0.00    -0.212 N 
HETATM    5  N   UNL     1      44.715 -11.981   6.590  1.00  0.00    -0.189 NA
HETATM    6  C   UNL     1      44.570 -10.830   7.363  1.00  0.00     0.130 C 
HETATM    7  H   UNL     1      45.560 -12.082   6.022  1.00  0.00     0.153 HD
ENDROOT
BRANCH   1   8
HETATM    8  C   UNL     1      42.688  -9.304   8.169  1.00  0.00     0.042 C 
HETATM    9  N   UNL     1      42.437  -9.509   9.427  1.00  0.00    -0.292 NA
HETATM   10  C   UNL     1      42.409  -7.997   7.447  1.00  0.00     0.071 C 
BRANCH   9  11
HETATM   11  C   UNL     1      41.797  -8.438  10.201  1.00  0.00     0.176 C 
BRANCH  11  12
HETATM   12  C   UNL     1      41.043  -9.055  11.387  1.00  0.00     0.256 C 
BRANCH  12  13
HETATM   13  N   UNL     1      41.755  -8.770  12.695  1.00  0.00    -0.066 N 
HETATM   14  C   UNL     1      42.533  -7.456  12.685  1.00  0.00     0.254 C 
HETATM   15  C   UNL     1      43.190  -7.201  14.056  1.00  0.00     0.153 C 
HETATM   16  N   UNL     1      42.172  -7.217  15.117  1.00  0.00    -0.355 N 
HETATM   17  C   UNL     1      41.454  -8.499  15.189  1.00  0.00     0.153 C 
HETATM   18  C   UNL     1      40.772  -8.855  13.860  1.00  0.00     0.254 C 
HETATM   19  H   UNL     1      42.452  -9.533  12.784  1.00  0.00     0.280 HD
BRANCH  16  20
HETATM   20  C   UNL     1      41.566  -6.001  15.481  1.00  0.00     0.169 C 
HETATM   21  S   UNL     1      40.375  -5.238  14.586  1.00  0.00    -0.041 SA
BRANCH  20  22
HETATM   22  N   UNL     1      42.101  -5.504  16.655  1.00  0.00    -0.367 N 
HETATM   23  H   UNL     1      43.071  -5.231  16.560  1.00  0.00     0.161 HD
BRANCH  22  24
HETATM   24  C   UNL     1      41.713  -5.922  18.001  1.00  0.00     0.117 C 
HETATM   25  C   UNL     1      40.265  -6.374  18.043  1.00  0.00     0.026 C 
ENDBRANCH  22  24
ENDBRANCH  20  22
ENDBRANCH  16  20
ENDBRANCH  12  13
ENDBRANCH  11  12
ENDBRANCH   9  11
ENDBRANCH   1   8
BRANCH   6  26
HETATM   26  C   UNL     1      45.727 -10.217   8.099  1.00  0.00     0.430 C 
HETATM   27  F   UNL     1      45.766  -8.868   7.931  1.00  0.00    -0.165 F 
HETATM   28  F   UNL     1      45.669 -10.416   9.450  1.00  0.00    -0.165 F 
HETATM   29  F   UNL     1      46.927 -10.700   7.689  1.00  0.00    -0.165 F 
ENDBRANCH   6  26
BRANCH   4  30
HETATM   30  C   UNL     1      43.309 -13.293   5.107  1.00  0.00     0.192 A 
HETATM   31  S   UNL     1      43.119 -14.857   5.758  1.00  0.00    -0.048 SA
HETATM   32  C   UNL     1      43.026 -15.516   4.174  1.00  0.00     0.037 A 
HETATM   33  C   UNL     1      43.120 -14.474   3.248  1.00  0.00     0.076 A 
HETATM   34  C   UNL     1      42.886 -16.856   3.778  1.00  0.00     0.021 A 
HETATM   35  N   UNL     1      43.257 -13.205   3.796  1.00  0.00    -0.222 NA
HETATM   36  C   UNL     1      43.076 -14.788   1.874  1.00  0.00     0.033 A 
HETATM   37  C   UNL     1      42.945 -16.120   1.468  1.00  0.00     0.002 A 
HETATM   38  C   UNL     1      42.851 -17.140   2.410  1.00  0.00     0.002 A 
ENDBRANCH   4  30
TORSDOF 9
ENDMDL
MODEL 6
REMARK VINA RESULT:      -8.1      4.485      5.763
REMARK  9 active torsions:
REMARK  status: ('A' for Active; 'I' for Inactive)
REMARK    1  A    between atoms: C_2  and  N_3 
REMARK    2  A    between atoms: N_3  and  C_4 
REMARK    3  A    between atoms: C_4  and  N_5 
REMARK    4  A    between atoms: N_8  and  C_10 
REMARK    5  A    between atoms: C_10  and  C_11 
REMARK    6  A    between atoms: C_11  and  N_12 
REMARK    7  A    between atoms: C_13  and  C_14 
REMARK    8  A    between atoms: N_17  and  C_18 
REMARK    9  A    between atoms: C_28  and  C_29 
ROOT
HETATM    1  C   UNL     1      41.885 -14.340   4.511  1.00  0.00     0.085 C 
HETATM    2  C   UNL     1      41.853 -13.781   3.119  1.00  0.00     0.278 C 
HETATM    3  O   UNL     1      42.694 -13.006   2.699  1.00  0.00    -0.265 OA
HETATM    4  N   UNL     1      40.758 -14.360   2.492  1.00  0.00    -0.212 N 
HETATM    5  N   UNL     1      40.105 -15.191   3.399  1.00  0.00    -0.189 NA
HETATM    6  C   UNL     1      40.867 -15.224   4.566  1.00  0.00     0.130 C 
HETATM    7  H   UNL     1      39.750 -16.075   3.025  1.00  0.00     0.153 HD
ENDROOT
BRANCH   1   8
HETATM    8  C   UNL     1      42.831 -13.956   5.592  1.00  0.00     0.042 C 
HETATM    9  N   UNL     1      42.757 -12.767   6.109  1.00  0.00    -0.292 NA
HETATM   10  C   UNL     1      43.835 -15.012   6.026  1.00  0.00     0.071 C 
BRANCH   9  11
HETATM   11  C   UNL     1      43.728 -12.385   7.142  1.00  0.00     0.176 C 
BRANCH  11  12
HETATM   12  C   UNL     1      44.336 -11.023   6.782  1.00  0.00     0.256 C 
BRANCH  12  13
HETATM   13  N   UNL     1      43.938  -9.963   7.790  1.00  0.00    -0.066 N 
HETATM   14  C   UNL     1      42.575  -9.338   7.503  1.00  0.00     0.254 C 
HETATM   15  C   UNL     1      42.208  -8.308   8.590  1.00  0.00     0.153 C 
HETATM   16  N   UNL     1      42.242  -8.938   9.917  1.00  0.00    -0.355 N 
HETATM   17  C   UNL     1      43.566  -9.491  10.245  1.00  0.00     0.153 C 
HETATM   18  C   UNL     1      44.034 -10.523   9.208  1.00  0.00     0.254 C 
HETATM   19  H   UNL     1      44.645  -9.214   7.675  1.00  0.00     0.280 HD
BRANCH  16  20
HETATM   20  C   UNL     1      41.055  -9.497  10.424  1.00  0.00     0.169 C 
HETATM   21  S   UNL     1      39.553  -9.326   9.706  1.00  0.00    -0.041 SA
BRANCH  20  22
HETATM   22  N   UNL     1      41.284 -10.179  11.604  1.00  0.00    -0.367 N 
HETATM   23  H   UNL     1      41.253 -11.185  11.491  1.00  0.00     0.161 HD
BRANCH  22  24
HETATM   24  C   UNL     1      40.917  -9.704  12.937  1.00  0.00     0.117 C 
HETATM   25  C   UNL     1      42.131  -9.203  13.699  1.00  0.00     0.026 C 
ENDBRANCH  22  24
ENDBRANCH  20  22
ENDBRANCH  16  20
ENDBRANCH  12  13
ENDBRANCH  11  12
ENDBRANCH   9  11
ENDBRANCH   1   8
BRANCH   6  26
HETATM   26  C   UNL     1      40.526 -16.134   5.712  1.00  0.00     0.430 C 
HETATM   27  F   UNL     1      39.398 -16.850   5.459  1.00  0.00    -0.165 F 
HETATM   28  F   UNL     1      41.498 -17.060   5.969  1.00  0.00    -0.165 F 
HETATM   29  F   UNL     1      40.315 -15.463   6.872  1.00  0.00    -0.165 F 
ENDBRANCH   6  26
BRANCH   4  30
HETATM   30  C   UNL     1      40.244 -14.093   1.238  1.00  0.00     0.192 A 
HETATM   31  S   UNL     1      39.652 -12.541   0.856  1.00  0.00    -0.048 SA
HETATM   32  C   UNL     1      39.188 -13.091  -0.704  1.00  0.00     0.037 A 
HETATM   33  C   UNL     1      39.550 -14.433  -0.833  1.00  0.00     0.076 A 
HETATM   34  C   UNL     1      38.545 -12.388  -1.736  1.00  0.00     0.021 A 
HETATM   35  N   UNL     1      40.175 -14.988   0.277  1.00  0.00    -0.222 NA
HETATM   36  C   UNL     1      39.253 -15.099  -2.040  1.00  0.00     0.033 A 
HETATM   37  C   UNL     1      38.605 -14.411  -3.073  1.00  0.00     0.002 A 
HETATM   38  C   UNL     1      38.258 -13.073  -2.921  1.00  0.00     0.002 A 
ENDBRANCH   4  30
TORSDOF 9
ENDMDL
MODEL 7
REMARK VINA RESULT:      -8.0      4.272      7.792
REMARK  9 active torsions:
REMARK  status: ('A' for Active; 'I' for Inactive)
REMARK    1  A    between atoms: C_2  and  N_3 
REMARK    2  A    between atoms: N_3  and  C_4 
REMARK    3  A    between atoms: C_4  and  N_5 
REMARK    4  A    between atoms: N_8  and  C_10 
REMARK    5  A    between atoms: C_10  and  C_11 
REMARK    6  A    between atoms: C_11  and  N_12 
REMARK    7  A    between atoms: C_13  and  C_14 
REMARK    8  A    between atoms: N_17  and  C_18 
REMARK    9  A    between atoms: C_28  and  C_29 
ROOT
HETATM    1  C   UNL     1      42.464 -12.699   5.472  1.00  0.00     0.085 C 
HETATM    2  C   UNL     1      42.220 -14.045   4.854  1.00  0.00     0.278 C 
HETATM    3  O   UNL     1      41.344 -14.245   4.031  1.00  0.00    -0.265 OA
HETATM    4  N   UNL     1      43.187 -14.894   5.374  1.00  0.00    -0.212 N 
HETATM    5  N   UNL     1      43.969 -14.184   6.283  1.00  0.00    -0.189 NA
HETATM    6  C   UNL     1      43.563 -12.851   6.239  1.00  0.00     0.130 C 
HETATM    7  H   UNL     1      44.972 -14.388   6.269  1.00  0.00     0.153 HD
ENDROOT
BRANCH   1   8
HETATM    8  C   UNL     1      41.632 -11.481   5.285  1.00  0.00     0.042 C 
HETATM    9  N   UNL     1      41.826 -10.736   4.239  1.00  0.00    -0.292 NA
HETATM   10  C   UNL     1      40.591 -11.195   6.353  1.00  0.00     0.071 C 
BRANCH   9  11
HETATM   11  C   UNL     1      41.031  -9.509   4.091  1.00  0.00     0.176 C 
BRANCH  11  12
HETATM   12  C   UNL     1      39.913  -9.753   3.069  1.00  0.00     0.256 C 
BRANCH  12  13
HETATM   13  N   UNL     1      40.372 -10.693   1.972  1.00  0.00    -0.066 N 
HETATM   14  C   UNL     1      39.434 -11.880   1.762  1.00  0.00     0.254 C 
HETATM   15  C   UNL     1      39.930 -12.768   0.603  1.00  0.00     0.153 C 
HETATM   16  N   UNL     1      40.070 -11.969  -0.623  1.00  0.00    -0.355 N 
HETATM   17  C   UNL     1      41.021 -10.857  -0.465  1.00  0.00     0.153 C 
HETATM   18  C   UNL     1      40.625  -9.916   0.682  1.00  0.00     0.254 C 
HETATM   19  H   UNL     1      41.272 -11.077   2.317  1.00  0.00     0.280 HD
BRANCH  16  20
HETATM   20  C   UNL     1      38.975 -11.893  -1.502  1.00  0.00     0.169 C 
HETATM   21  S   UNL     1      38.597 -10.547  -2.421  1.00  0.00    -0.041 SA
BRANCH  20  22
HETATM   22  N   UNL     1      38.236 -13.062  -1.487  1.00  0.00    -0.367 N 
HETATM   23  H   UNL     1      38.359 -13.594  -0.634  1.00  0.00     0.161 HD
BRANCH  22  24
HETATM   24  C   UNL     1      37.901 -13.862  -2.663  1.00  0.00     0.117 C 
HETATM   25  C   UNL     1      38.681 -15.164  -2.686  1.00  0.00     0.026 C 
ENDBRANCH  22  24
ENDBRANCH  20  22
ENDBRANCH  16  20
ENDBRANCH  12  13
ENDBRANCH  11  12
ENDBRANCH   9  11
ENDBRANCH   1   8
BRANCH   6  26
HETATM   26  C   UNL     1      44.287 -11.776   6.997  1.00  0.00     0.430 C 
HETATM   27  F   UNL     1      45.633 -11.964   6.964  1.00  0.00    -0.165 F 
HETATM   28  F   UNL     1      44.080 -10.526   6.484  1.00  0.00    -0.165 F 
HETATM   29  F   UNL     1      43.930 -11.720   8.305  1.00  0.00    -0.165 F 
ENDBRANCH   6  26
BRANCH   4  30
HETATM   30  C   UNL     1      43.322 -16.257   5.195  1.00  0.00     0.192 A 
HETATM   31  S   UNL     1      43.346 -17.310   6.536  1.00  0.00    -0.048 SA
HETATM   32  C   UNL     1      43.605 -18.649   5.492  1.00  0.00     0.037 A 
HETATM   33  C   UNL     1      43.628 -18.193   4.172  1.00  0.00     0.076 A 
HETATM   34  C   UNL     1      43.783 -20.004   5.817  1.00  0.00     0.021 A 
HETATM   35  N   UNL     1      43.440 -16.825   4.015  1.00  0.00    -0.222 NA
HETATM   36  C   UNL     1      43.840 -19.128   3.139  1.00  0.00     0.033 A 
HETATM   37  C   UNL     1      44.026 -20.479   3.451  1.00  0.00     0.002 A 
HETATM   38  C   UNL     1      43.996 -20.910   4.774  1.00  0.00     0.002 A 
ENDBRANCH   4  30
TORSDOF 9
ENDMDL
MODEL 8
REMARK VINA RESULT:      -7.9      2.546      3.345
REMARK  9 active torsions:
REMARK  status: ('A' for Active; 'I' for Inactive)
REMARK    1  A    between atoms: C_2  and  N_3 
REMARK    2  A    between atoms: N_3  and  C_4 
REMARK    3  A    between atoms: C_4  and  N_5 
REMARK    4  A    between atoms: N_8  and  C_10 
REMARK    5  A    between atoms: C_10  and  C_11 
REMARK    6  A    between atoms: C_11  and  N_12 
REMARK    7  A    between atoms: C_13  and  C_14 
REMARK    8  A    between atoms: N_17  and  C_18 
REMARK    9  A    between atoms: C_28  and  C_29 
ROOT
HETATM    1  C   UNL     1      42.129 -12.856   4.278  1.00  0.00     0.085 C 
HETATM    2  C   UNL     1      42.449 -14.220   4.816  1.00  0.00     0.278 C 
HETATM    3  O   UNL     1      42.521 -14.458   6.009  1.00  0.00    -0.265 OA
HETATM    4  N   UNL     1      42.577 -15.054   3.714  1.00  0.00    -0.212 N 
HETATM    5  N   UNL     1      42.399 -14.301   2.555  1.00  0.00    -0.189 NA
HETATM    6  C   UNL     1      42.038 -13.011   2.940  1.00  0.00     0.130 C 
HETATM    7  H   UNL     1      41.869 -14.750   1.804  1.00  0.00     0.153 HD
ENDROOT
BRANCH   1   8
HETATM    8  C   UNL     1      41.981 -11.608   5.072  1.00  0.00     0.042 C 
HETATM    9  N   UNL     1      40.791 -11.160   5.334  1.00  0.00    -0.292 NA
HETATM   10  C   UNL     1      43.264 -10.937   5.534  1.00  0.00     0.071 C 
BRANCH   9  11
HETATM   11  C   UNL     1      40.659  -9.900   6.078  1.00  0.00     0.176 C 
BRANCH  11  12
HETATM   12  C   UNL     1      39.557 -10.052   7.134  1.00  0.00     0.256 C 
BRANCH  12  13
HETATM   13  N   UNL     1      39.811  -9.146   8.323  1.00  0.00    -0.066 N 
HETATM   14  C   UNL     1      39.142  -9.632   9.607  1.00  0.00     0.254 C 
HETATM   15  C   UNL     1      39.481  -8.697  10.785  1.00  0.00     0.153 C 
HETATM   16  N   UNL     1      40.938  -8.589  10.944  1.00  0.00    -0.355 N 
HETATM   17  C   UNL     1      41.599  -8.059   9.741  1.00  0.00     0.153 C 
HETATM   18  C   UNL     1      41.310  -8.916   8.499  1.00  0.00     0.254 C 
HETATM   19  H   UNL     1      39.359  -8.248   8.068  1.00  0.00     0.280 HD
BRANCH  16  20
HETATM   20  C   UNL     1      41.584  -9.483  11.816  1.00  0.00     0.169 C 
HETATM   21  S   UNL     1      41.427  -9.453  13.482  1.00  0.00    -0.041 SA
BRANCH  20  22
HETATM   22  N   UNL     1      42.389 -10.369  11.123  1.00  0.00    -0.367 N 
HETATM   23  H   UNL     1      41.867 -11.126  10.700  1.00  0.00     0.161 HD
BRANCH  22  24
HETATM   24  C   UNL     1      43.771 -10.697  11.466  1.00  0.00     0.117 C 
HETATM   25  C   UNL     1      44.747 -10.066  10.490  1.00  0.00     0.026 C 
ENDBRANCH  22  24
ENDBRANCH  20  22
ENDBRANCH  16  20
ENDBRANCH  12  13
ENDBRANCH  11  12
ENDBRANCH   9  11
ENDBRANCH   1   8
BRANCH   6  26
HETATM   26  C   UNL     1      41.636 -11.967   1.938  1.00  0.00     0.430 C 
HETATM   27  F   UNL     1      42.500 -10.917   1.938  1.00  0.00    -0.165 F 
HETATM   28  F   UNL     1      41.626 -12.433   0.653  1.00  0.00    -0.165 F 
HETATM   29  F   UNL     1      40.400 -11.459   2.173  1.00  0.00    -0.165 F 
ENDBRANCH   6  26
BRANCH   4  30
HETATM   30  C   UNL     1      42.966 -16.378   3.678  1.00  0.00     0.192 A 
HETATM   31  S   UNL     1      42.961 -17.244   2.209  1.00  0.00    -0.048 SA
HETATM   32  C   UNL     1      43.452 -18.668   3.035  1.00  0.00     0.037 A 
HETATM   33  C   UNL     1      43.615 -18.368   4.389  1.00  0.00     0.076 A 
HETATM   34  C   UNL     1      43.672 -19.957   2.524  1.00  0.00     0.021 A 
HETATM   35  N   UNL     1      43.357 -17.049   4.739  1.00  0.00    -0.222 NA
HETATM   36  C   UNL     1      44.008 -19.401   5.265  1.00  0.00     0.033 A 
HETATM   37  C   UNL     1      44.222 -20.691   4.769  1.00  0.00     0.002 A 
HETATM   38  C   UNL     1      44.056 -20.964   3.415  1.00  0.00     0.002 A 
ENDBRANCH   4  30
TORSDOF 9
ENDMDL
MODEL 9
REMARK VINA RESULT:      -7.9      2.184      2.744
REMARK  9 active torsions:
REMARK  status: ('A' for Active; 'I' for Inactive)
REMARK    1  A    between atoms: C_2  and  N_3 
REMARK    2  A    between atoms: N_3  and  C_4 
REMARK    3  A    between atoms: C_4  and  N_5 
REMARK    4  A    between atoms: N_8  and  C_10 
REMARK    5  A    between atoms: C_10  and  C_11 
REMARK    6  A    between atoms: C_11  and  N_12 
REMARK    7  A    between atoms: C_13  and  C_14 
REMARK    8  A    between atoms: N_17  and  C_18 
REMARK    9  A    between atoms: C_28  and  C_29 
ROOT
HETATM    1  C   UNL     1      41.499 -13.043   4.459  1.00  0.00     0.085 C 
HETATM    2  C   UNL     1      41.332 -14.531   4.361  1.00  0.00     0.278 C 
HETATM    3  O   UNL     1      40.266 -15.089   4.552  1.00  0.00    -0.265 OA
HETATM    4  N   UNL     1      42.568 -15.038   3.986  1.00  0.00    -0.212 N 
HETATM    5  N   UNL     1      43.476 -13.986   3.886  1.00  0.00    -0.189 NA
HETATM    6  C   UNL     1      42.772 -12.800   4.084  1.00  0.00     0.130 C 
HETATM    7  H   UNL     1      44.138 -14.035   3.107  1.00  0.00     0.153 HD
ENDROOT
BRANCH   1   8
HETATM    8  C   UNL     1      40.470 -12.069   4.909  1.00  0.00     0.042 C 
HETATM    9  N   UNL     1      40.530 -11.594   6.116  1.00  0.00    -0.292 NA
HETATM   10  C   UNL     1      39.402 -11.688   3.896  1.00  0.00     0.071 C 
BRANCH   9  11
HETATM   11  C   UNL     1      39.479 -10.670   6.564  1.00  0.00     0.176 C 
BRANCH  11  12
HETATM   12  C   UNL     1      39.939  -9.227   6.318  1.00  0.00     0.256 C 
BRANCH  12  13
HETATM   13  N   UNL     1      40.437  -8.587   7.599  1.00  0.00    -0.066 N 
HETATM   14  C   UNL     1      39.924  -9.280   8.859  1.00  0.00     0.254 C 
HETATM   15  C   UNL     1      40.505  -8.614  10.123  1.00  0.00     0.153 C 
HETATM   16  N   UNL     1      41.974  -8.617  10.067  1.00  0.00    -0.355 N 
HETATM   17  C   UNL     1      42.494  -7.896   8.894  1.00  0.00     0.153 C 
HETATM   18  C   UNL     1      41.959  -8.476   7.576  1.00  0.00     0.254 C 
HETATM   19  H   UNL     1      40.028  -7.634   7.591  1.00  0.00     0.280 HD
BRANCH  16  20
HETATM   20  C   UNL     1      42.664  -9.698  10.644  1.00  0.00     0.169 C 
HETATM   21  S   UNL     1      44.087 -10.338  10.037  1.00  0.00    -0.041 SA
BRANCH  20  22
HETATM   22  N   UNL     1      42.001 -10.182  11.756  1.00  0.00    -0.367 N 
HETATM   23  H   UNL     1      41.018 -10.354  11.585  1.00  0.00     0.161 HD
BRANCH  22  24
HETATM   24  C   UNL     1      42.330  -9.853  13.142  1.00  0.00     0.117 C 
HETATM   25  C   UNL     1      41.174  -9.153  13.833  1.00  0.00     0.026 C 
ENDBRANCH  22  24
ENDBRANCH  20  22
ENDBRANCH  16  20
ENDBRANCH  12  13
ENDBRANCH  11  12
ENDBRANCH   9  11
ENDBRANCH   1   8
BRANCH   6  26
HETATM   26  C   UNL     1      43.419 -11.455   3.911  1.00  0.00     0.430 C 
HETATM   27  F   UNL     1      42.748 -10.693   3.007  1.00  0.00    -0.165 F 
HETATM   28  F   UNL     1      43.444 -10.720   5.063  1.00  0.00    -0.165 F 
HETATM   29  F   UNL     1      44.702 -11.539   3.479  1.00  0.00    -0.165 F 
ENDBRANCH   6  26
BRANCH   4  30
HETATM   30  C   UNL     1      42.956 -16.358   3.864  1.00  0.00     0.192 A 
HETATM   31  S   UNL     1      42.936 -17.131   2.345  1.00  0.00    -0.048 SA
HETATM   32  C   UNL     1      43.432 -18.604   3.076  1.00  0.00     0.037 A 
HETATM   33  C   UNL     1      43.608 -18.389   4.445  1.00  0.00     0.076 A 
HETATM   34  C   UNL     1      43.646 -19.860   2.484  1.00  0.00     0.021 A 
HETATM   35  N   UNL     1      43.355 -17.094   4.878  1.00  0.00    -0.222 NA
HETATM   36  C   UNL     1      44.007 -19.474   5.252  1.00  0.00     0.033 A 
HETATM   37  C   UNL     1      44.215 -20.731   4.674  1.00  0.00     0.002 A 
HETATM   38  C   UNL     1      44.037 -20.919   3.307  1.00  0.00     0.002 A 
ENDBRANCH   4  30
TORSDOF 9
ENDMDL
MODEL 10
REMARK VINA RESULT:      -7.8      5.690     10.302
REMARK  9 active torsions:
REMARK  status: ('A' for Active; 'I' for Inactive)
REMARK    1  A    between atoms: C_2  and  N_3 
REMARK    2  A    between atoms: N_3  and  C_4 
REMARK    3  A    between atoms: C_4  and  N_5 
REMARK    4  A    between atoms: N_8  and  C_10 
REMARK    5  A    between atoms: C_10  and  C_11 
REMARK    6  A    between atoms: C_11  and  N_12 
REMARK    7  A    between atoms: C_13  and  C_14 
REMARK    8  A    between atoms: N_17  and  C_18 
REMARK    9  A    between atoms: C_28  and  C_29 
ROOT
HETATM    1  C   UNL     1      42.570 -14.371   3.792  1.00  0.00     0.085 C 
HETATM    2  C   UNL     1      43.036 -12.998   4.183  1.00  0.00     0.278 C 
HETATM    3  O   UNL     1      43.110 -12.077   3.389  1.00  0.00    -0.265 OA
HETATM    4  N   UNL     1      43.282 -13.044   5.547  1.00  0.00    -0.212 N 
HETATM    5  N   UNL     1      43.041 -14.337   6.007  1.00  0.00    -0.189 NA
HETATM    6  C   UNL     1      42.525 -15.075   4.943  1.00  0.00     0.130 C 
HETATM    7  H   UNL     1      42.583 -14.413   6.919  1.00  0.00     0.153 HD
ENDROOT
BRANCH   1   8
HETATM    8  C   UNL     1      42.261 -14.838   2.415  1.00  0.00     0.042 C 
HETATM    9  N   UNL     1      41.073 -14.640   1.930  1.00  0.00    -0.292 NA
HETATM   10  C   UNL     1      43.387 -15.522   1.658  1.00  0.00     0.071 C 
BRANCH   9  11
HETATM   11  C   UNL     1      40.766 -15.149   0.586  1.00  0.00     0.176 C 
BRANCH  11  12
HETATM   12  C   UNL     1      39.857 -14.147  -0.137  1.00  0.00     0.256 C 
BRANCH  12  13
HETATM   13  N   UNL     1      40.672 -13.160  -0.951  1.00  0.00    -0.066 N 
HETATM   14  C   UNL     1      40.414 -13.258  -2.452  1.00  0.00     0.254 C 
HETATM   15  C   UNL     1      41.233 -12.197  -3.216  1.00  0.00     0.153 C 
HETATM   16  N   UNL     1      40.926 -10.854  -2.703  1.00  0.00    -0.355 N 
HETATM   17  C   UNL     1      41.229 -10.715  -1.270  1.00  0.00     0.153 C 
HETATM   18  C   UNL     1      40.470 -11.744  -0.417  1.00  0.00     0.254 C 
HETATM   19  H   UNL     1      41.657 -13.443  -0.794  1.00  0.00     0.280 HD
BRANCH  16  20
HETATM   20  C   UNL     1      39.898 -10.120  -3.322  1.00  0.00     0.169 C 
HETATM   21  S   UNL     1      38.268 -10.332  -3.006  1.00  0.00    -0.041 SA
BRANCH  20  22
HETATM   22  N   UNL     1      40.406  -9.225  -4.245  1.00  0.00    -0.367 N 
HETATM   23  H   UNL     1      40.357  -9.569  -5.196  1.00  0.00     0.161 HD
BRANCH  22  24
HETATM   24  C   UNL     1      41.493  -8.281  -3.993  1.00  0.00     0.117 C 
HETATM   25  C   UNL     1      41.010  -7.081  -3.198  1.00  0.00     0.026 C 
ENDBRANCH  22  24
ENDBRANCH  20  22
ENDBRANCH  16  20
ENDBRANCH  12  13
ENDBRANCH  11  12
ENDBRANCH   9  11
ENDBRANCH   1   8
BRANCH   6  26
HETATM   26  C   UNL     1      42.025 -16.479   5.120  1.00  0.00     0.430 C 
HETATM   27  F   UNL     1      42.052 -16.857   6.425  1.00  0.00    -0.165 F 
HETATM   28  F   UNL     1      40.727 -16.641   4.719  1.00  0.00    -0.165 F 
HETATM   29  F   UNL     1      42.757 -17.391   4.431  1.00  0.00    -0.165 F 
ENDBRANCH   6  26
BRANCH   4  30
HETATM   30  C   UNL     1      43.824 -12.065   6.357  1.00  0.00     0.192 A 
HETATM   31  S   UNL     1      45.412 -11.504   6.094  1.00  0.00    -0.048 SA
HETATM   32  C   UNL     1      45.287 -10.477   7.466  1.00  0.00     0.037 A 
HETATM   33  C   UNL     1      44.012 -10.617   8.017  1.00  0.00     0.076 A 
HETATM   34  C   UNL     1      46.248  -9.614   8.017  1.00  0.00     0.021 A 
HETATM   35  N   UNL     1      43.177 -11.511   7.358  1.00  0.00    -0.222 NA
HETATM   36  C   UNL     1      43.688  -9.868   9.167  1.00  0.00     0.033 A 
HETATM   37  C   UNL     1      44.640  -9.012   9.730  1.00  0.00     0.002 A 
HETATM   38  C   UNL     1      45.903  -8.887   9.160  1.00  0.00     0.002 A 
ENDBRANCH   4  30
TORSDOF 9
ENDMDL
