MODEL 1
REMARK VINA RESULT:      -9.3      0.000      0.000
REMARK  3 active torsions:
REMARK  status: ('A' for Active; 'I' for Inactive)
REMARK    1  A    between atoms: C_8  and  C_9 
REMARK    2  A    between atoms: C_12  and  C_13 
REMARK    3  A    between atoms: C_24  and  N_25 
ROOT
HETATM    1  C   UNL     1      40.086 -13.782   0.513  1.00  0.00     0.073 C 
HETATM    2  C   UNL     1      39.883 -12.852   1.651  1.00  0.00     0.062 A 
HETATM    3  N   UNL     1      38.648 -12.423   1.962  1.00  0.00    -0.177 NA
HETATM    4  N   UNL     1      38.834 -11.619   3.029  1.00  0.00    -0.256 N 
HETATM    5  H   UNL     1      38.029 -11.163   3.444  1.00  0.00     0.191 HD
HETATM    6  C   UNL     1      40.136 -11.530   3.398  1.00  0.00     0.175 A 
HETATM    7  C   UNL     1      40.851 -12.319   2.536  1.00  0.00     0.034 A 
HETATM    8  C   UNL     1      42.330 -12.419   2.671  1.00  0.00     0.105 A 
HETATM    9  C   UNL     1      42.824 -11.536   3.819  1.00  0.00     0.080 A 
HETATM   10  C   UNL     1      44.235 -11.477   4.014  1.00  0.00     0.100 C 
HETATM   11  N   UNL     1      45.383 -11.428   4.178  1.00  0.00    -0.191 NA
HETATM   12  C   UNL     1      41.986 -10.796   4.597  1.00  0.00     0.140 A 
HETATM   13  O   UNL     1      40.592 -10.799   4.407  1.00  0.00    -0.279 OA
ENDROOT
BRANCH   8  14
HETATM   14  C   UNL     1      42.633 -13.899   2.862  1.00  0.00    -0.044 A 
HETATM   15  C   UNL     1      43.237 -14.621   1.821  1.00  0.00     0.009 A 
HETATM   16  C   UNL     1      43.499 -15.988   1.956  1.00  0.00     0.013 A 
HETATM   17  C   UNL     1      43.175 -16.679   3.134  1.00  0.00    -0.026 A 
HETATM   18  C   UNL     1      42.594 -15.948   4.181  1.00  0.00     0.013 A 
HETATM   19  C   UNL     1      42.328 -14.581   4.052  1.00  0.00     0.009 A 
BRANCH  17  20
HETATM   20  C   UNL     1      43.424 -18.127   3.260  1.00  0.00    -0.026 A 
HETATM   21  C   UNL     1      43.931 -18.678   4.449  1.00  0.00     0.012 A 
HETATM   22  C   UNL     1      44.178 -20.050   4.560  1.00  0.00     0.001 A 
HETATM   23  C   UNL     1      43.923 -20.894   3.483  1.00  0.00     0.000 A 
HETATM   24  C   UNL     1      43.418 -20.369   2.297  1.00  0.00     0.001 A 
HETATM   25  C   UNL     1      43.172 -18.998   2.186  1.00  0.00     0.012 A 
ENDBRANCH  17  20
ENDBRANCH   8  14
BRANCH  12  26
HETATM   26  N   UNL     1      42.375  -9.974   5.632  1.00  0.00    -0.282 NA
HETATM   27  H   UNL     1      42.930  -9.165   5.367  1.00  0.00     0.126 HD
HETATM   28  H   UNL     1      42.775 -10.498   6.407  1.00  0.00     0.126 HD
ENDBRANCH  12  26
TORSDOF 3
ENDMDL
MODEL 2
REMARK VINA RESULT:      -9.2      2.361      4.253
REMARK  3 active torsions:
REMARK  status: ('A' for Active; 'I' for Inactive)
REMARK    1  A    between atoms: C_8  and  C_9 
REMARK    2  A    between atoms: C_12  and  C_13 
REMARK    3  A    between atoms: C_24  and  N_25 
ROOT
HETATM    1  C   UNL     1      40.531 -12.285   4.009  1.00  0.00     0.073 C 
HETATM    2  C   UNL     1      40.910 -11.587   2.756  1.00  0.00     0.062 A 
HETATM    3  N   UNL     1      41.519 -10.390   2.806  1.00  0.00    -0.177 NA
HETATM    4  N   UNL     1      41.721 -10.065   1.513  1.00  0.00    -0.256 N 
HETATM    5  H   UNL     1      42.168  -9.182   1.294  1.00  0.00     0.191 HD
HETATM    6  C   UNL     1      41.262 -11.011   0.656  1.00  0.00     0.175 A 
HETATM    7  C   UNL     1      40.735 -12.020   1.420  1.00  0.00     0.034 A 
HETATM    8  C   UNL     1      40.129 -13.211   0.764  1.00  0.00     0.105 A 
HETATM    9  C   UNL     1      40.186 -13.071  -0.759  1.00  0.00     0.080 A 
HETATM   10  C   UNL     1      39.571 -14.110  -1.517  1.00  0.00     0.100 C 
HETATM   11  N   UNL     1      39.073 -14.955  -2.137  1.00  0.00    -0.191 NA
HETATM   12  C   UNL     1      40.745 -11.997  -1.383  1.00  0.00     0.140 A 
HETATM   13  O   UNL     1      41.326 -10.935  -0.667  1.00  0.00    -0.279 OA
ENDROOT
BRANCH   8  14
HETATM   14  C   UNL     1      40.892 -14.415   1.298  1.00  0.00    -0.044 A 
HETATM   15  C   UNL     1      40.196 -15.432   1.969  1.00  0.00     0.009 A 
HETATM   16  C   UNL     1      40.874 -16.536   2.498  1.00  0.00     0.013 A 
HETATM   17  C   UNL     1      42.265 -16.665   2.368  1.00  0.00    -0.026 A 
HETATM   18  C   UNL     1      42.954 -15.659   1.676  1.00  0.00     0.013 A 
HETATM   19  C   UNL     1      42.282 -14.552   1.146  1.00  0.00     0.009 A 
BRANCH  17  20
HETATM   20  C   UNL     1      42.980 -17.814   2.955  1.00  0.00    -0.026 A 
HETATM   21  C   UNL     1      43.078 -19.037   2.271  1.00  0.00     0.012 A 
HETATM   22  C   UNL     1      43.744 -20.129   2.836  1.00  0.00     0.001 A 
HETATM   23  C   UNL     1      44.324 -20.016   4.097  1.00  0.00     0.000 A 
HETATM   24  C   UNL     1      44.241 -18.812   4.791  1.00  0.00     0.001 A 
HETATM   25  C   UNL     1      43.574 -17.722   4.226  1.00  0.00     0.012 A 
ENDBRANCH  17  20
ENDBRANCH   8  14
BRANCH  12  26
HETATM   26  N   UNL     1      40.812 -11.812  -2.747  1.00  0.00    -0.282 NA
HETATM   27  H   UNL     1      41.737 -11.610  -3.119  1.00  0.00     0.126 HD
HETATM   28  H   UNL     1      40.097 -11.171  -3.082  1.00  0.00     0.126 HD
ENDBRANCH  12  26
TORSDOF 3
ENDMDL
MODEL 3
REMARK VINA RESULT:      -9.0      3.717      6.880
REMARK  3 active torsions:
REMARK  status: ('A' for Active; 'I' for Inactive)
REMARK    1  A    between atoms: C_8  and  C_9 
REMARK    2  A    between atoms: C_12  and  C_13 
REMARK    3  A    between atoms: C_24  and  N_25 
ROOT
HETATM    1  C   UNL     1      43.813 -13.345   5.816  1.00  0.00     0.073 C 
HETATM    2  C   UNL     1      43.535 -14.618   6.526  1.00  0.00     0.062 A 
HETATM    3  N   UNL     1      43.188 -14.607   7.824  1.00  0.00    -0.177 NA
HETATM    4  N   UNL     1      43.007 -15.907   8.131  1.00  0.00    -0.256 N 
HETATM    5  H   UNL     1      42.743 -16.155   9.078  1.00  0.00     0.191 HD
HETATM    6  C   UNL     1      43.226 -16.731   7.076  1.00  0.00     0.175 A 
HETATM    7  C   UNL     1      43.565 -15.937   6.012  1.00  0.00     0.034 A 
HETATM    8  C   UNL     1      43.886 -16.553   4.696  1.00  0.00     0.105 A 
HETATM    9  C   UNL     1      43.798 -18.078   4.782  1.00  0.00     0.080 A 
HETATM   10  C   UNL     1      44.156 -18.803   3.609  1.00  0.00     0.100 C 
HETATM   11  N   UNL     1      44.444 -19.398   2.654  1.00  0.00    -0.191 NA
HETATM   12  C   UNL     1      43.448 -18.736   5.923  1.00  0.00     0.140 A 
HETATM   13  O   UNL     1      43.127 -18.054   7.111  1.00  0.00    -0.279 OA
ENDROOT
BRANCH   8  14
HETATM   14  C   UNL     1      42.913 -15.938   3.699  1.00  0.00    -0.044 A 
HETATM   15  C   UNL     1      43.410 -15.193   2.618  1.00  0.00     0.009 A 
HETATM   16  C   UNL     1      42.540 -14.591   1.703  1.00  0.00     0.013 A 
HETATM   17  C   UNL     1      41.147 -14.718   1.831  1.00  0.00    -0.026 A 
HETATM   18  C   UNL     1      40.656 -15.484   2.898  1.00  0.00     0.013 A 
HETATM   19  C   UNL     1      41.522 -16.088   3.818  1.00  0.00     0.009 A 
BRANCH  17  20
HETATM   20  C   UNL     1      40.233 -14.055   0.883  1.00  0.00    -0.026 A 
HETATM   21  C   UNL     1      39.952 -14.619  -0.373  1.00  0.00     0.012 A 
HETATM   22  C   UNL     1      39.095 -13.980  -1.275  1.00  0.00     0.001 A 
HETATM   23  C   UNL     1      38.505 -12.766  -0.937  1.00  0.00     0.000 A 
HETATM   24  C   UNL     1      38.769 -12.190   0.303  1.00  0.00     0.001 A 
HETATM   25  C   UNL     1      39.626 -12.829   1.204  1.00  0.00     0.012 A 
ENDBRANCH  17  20
ENDBRANCH   8  14
BRANCH  12  26
HETATM   26  N   UNL     1      43.366 -20.104   6.062  1.00  0.00    -0.282 NA
HETATM   27  H   UNL     1      42.553 -20.448   6.567  1.00  0.00     0.126 HD
HETATM   28  H   UNL     1      44.241 -20.508   6.388  1.00  0.00     0.126 HD
ENDBRANCH  12  26
TORSDOF 3
ENDMDL
MODEL 4
REMARK VINA RESULT:      -8.9      0.895      1.371
REMARK  3 active torsions:
REMARK  status: ('A' for Active; 'I' for Inactive)
REMARK    1  A    between atoms: C_8  and  C_9 
REMARK    2  A    between atoms: C_12  and  C_13 
REMARK    3  A    between atoms: C_24  and  N_25 
ROOT
HETATM    1  C   UNL     1      40.527 -13.950  -0.715  1.00  0.00     0.073 C 
HETATM    2  C   UNL     1      39.939 -13.083   0.335  1.00  0.00     0.062 A 
HETATM    3  N   UNL     1      38.638 -12.751   0.287  1.00  0.00    -0.177 NA
HETATM    4  N   UNL     1      38.451 -11.980   1.378  1.00  0.00    -0.256 N 
HETATM    5  H   UNL     1      37.529 -11.597   1.555  1.00  0.00     0.191 HD
HETATM    6  C   UNL     1      39.584 -11.818   2.106  1.00  0.00     0.175 A 
HETATM    7  C   UNL     1      40.572 -12.522   1.470  1.00  0.00     0.034 A 
HETATM    8  C   UNL     1      41.955 -12.527   2.021  1.00  0.00     0.105 A 
HETATM    9  C   UNL     1      42.034 -11.659   3.279  1.00  0.00     0.080 A 
HETATM   10  C   UNL     1      43.322 -11.513   3.871  1.00  0.00     0.100 C 
HETATM   11  N   UNL     1      44.369 -11.393   4.358  1.00  0.00    -0.191 NA
HETATM   12  C   UNL     1      40.955 -11.010   3.799  1.00  0.00     0.140 A 
HETATM   13  O   UNL     1      39.676 -11.100   3.218  1.00  0.00    -0.279 OA
ENDROOT
BRANCH   8  14
HETATM   14  C   UNL     1      42.303 -13.989   2.262  1.00  0.00    -0.044 A 
HETATM   15  C   UNL     1      41.552 -14.735   3.184  1.00  0.00     0.009 A 
HETATM   16  C   UNL     1      41.867 -16.072   3.449  1.00  0.00     0.013 A 
HETATM   17  C   UNL     1      42.935 -16.711   2.800  1.00  0.00    -0.026 A 
HETATM   18  C   UNL     1      43.668 -15.969   1.862  1.00  0.00     0.013 A 
HETATM   19  C   UNL     1      43.358 -14.631   1.593  1.00  0.00     0.009 A 
BRANCH  17  20
HETATM   20  C   UNL     1      43.284 -18.110   3.107  1.00  0.00    -0.026 A 
HETATM   21  C   UNL     1      43.832 -18.468   4.351  1.00  0.00     0.012 A 
HETATM   22  C   UNL     1      44.175 -19.793   4.633  1.00  0.00     0.001 A 
HETATM   23  C   UNL     1      43.976 -20.785   3.677  1.00  0.00     0.000 A 
HETATM   24  C   UNL     1      43.432 -20.453   2.439  1.00  0.00     0.001 A 
HETATM   25  C   UNL     1      43.090 -19.128   2.157  1.00  0.00     0.012 A 
ENDBRANCH  17  20
ENDBRANCH   8  14
BRANCH  12  26
HETATM   26  N   UNL     1      40.970 -10.206   4.917  1.00  0.00    -0.282 NA
HETATM   27  H   UNL     1      41.890  -9.989   5.291  1.00  0.00     0.126 HD
HETATM   28  H   UNL     1      40.315 -10.526   5.627  1.00  0.00     0.126 HD
ENDBRANCH  12  26
TORSDOF 3
ENDMDL
MODEL 5
REMARK VINA RESULT:      -8.9      3.237      6.579
REMARK  3 active torsions:
REMARK  status: ('A' for Active; 'I' for Inactive)
REMARK    1  A    between atoms: C_8  and  C_9 
REMARK    2  A    between atoms: C_12  and  C_13 
REMARK    3  A    between atoms: C_24  and  N_25 
ROOT
HETATM    1  C   UNL     1      42.623 -18.677   2.362  1.00  0.00     0.073 C 
HETATM    2  C   UNL     1      43.360 -18.053   3.488  1.00  0.00     0.062 A 
HETATM    3  N   UNL     1      44.630 -18.410   3.746  1.00  0.00    -0.177 NA
HETATM    4  N   UNL     1      44.980 -17.654   4.806  1.00  0.00    -0.256 N 
HETATM    5  H   UNL     1      45.911 -17.755   5.194  1.00  0.00     0.191 HD
HETATM    6  C   UNL     1      43.980 -16.836   5.220  1.00  0.00     0.175 A 
HETATM    7  C   UNL     1      42.913 -17.057   4.389  1.00  0.00     0.034 A 
HETATM    8  C   UNL     1      41.640 -16.313   4.599  1.00  0.00     0.105 A 
HETATM    9  C   UNL     1      41.755 -15.386   5.811  1.00  0.00     0.080 A 
HETATM   10  C   UNL     1      40.579 -14.666   6.174  1.00  0.00     0.100 C 
HETATM   11  N   UNL     1      39.625 -14.076   6.471  1.00  0.00    -0.191 NA
HETATM   12  C   UNL     1      42.893 -15.273   6.551  1.00  0.00     0.140 A 
HETATM   13  O   UNL     1      44.059 -15.998   6.246  1.00  0.00    -0.279 OA
ENDROOT
BRANCH   8  14
HETATM   14  C   UNL     1      41.364 -15.583   3.292  1.00  0.00    -0.044 A 
HETATM   15  C   UNL     1      40.196 -15.876   2.570  1.00  0.00     0.009 A 
HETATM   16  C   UNL     1      39.929 -15.244   1.351  1.00  0.00     0.013 A 
HETATM   17  C   UNL     1      40.813 -14.294   0.816  1.00  0.00    -0.026 A 
HETATM   18  C   UNL     1      41.967 -13.986   1.552  1.00  0.00     0.013 A 
HETATM   19  C   UNL     1      42.240 -14.616   2.771  1.00  0.00     0.009 A 
BRANCH  17  20
HETATM   20  C   UNL     1      40.545 -13.654  -0.485  1.00  0.00    -0.026 A 
HETATM   21  C   UNL     1      39.837 -14.328  -1.496  1.00  0.00     0.012 A 
HETATM   22  C   UNL     1      39.596 -13.723  -2.733  1.00  0.00     0.001 A 
HETATM   23  C   UNL     1      40.059 -12.434  -2.982  1.00  0.00     0.000 A 
HETATM   24  C   UNL     1      40.760 -11.748  -1.994  1.00  0.00     0.001 A 
HETATM   25  C   UNL     1      41.001 -12.353  -0.758  1.00  0.00     0.012 A 
ENDBRANCH  17  20
ENDBRANCH   8  14
BRANCH  12  26
HETATM   26  N   UNL     1      43.048 -14.467   7.657  1.00  0.00    -0.282 NA
HETATM   27  H   UNL     1      42.298 -14.510   8.343  1.00  0.00     0.126 HD
HETATM   28  H   UNL     1      43.305 -13.515   7.405  1.00  0.00     0.126 HD
ENDBRANCH  12  26
TORSDOF 3
ENDMDL
MODEL 6
REMARK VINA RESULT:      -7.9      2.397      3.766
REMARK  3 active torsions:
REMARK  status: ('A' for Active; 'I' for Inactive)
REMARK    1  A    between atoms: C_8  and  C_9 
REMARK    2  A    between atoms: C_12  and  C_13 
REMARK    3  A    between atoms: C_24  and  N_25 
ROOT
HETATM    1  C   UNL     1      40.907 -13.886  -2.464  1.00  0.00     0.073 C 
HETATM    2  C   UNL     1      39.613 -13.318  -2.012  1.00  0.00     0.062 A 
HETATM    3  N   UNL     1      38.499 -13.510  -2.738  1.00  0.00    -0.177 NA
HETATM    4  N   UNL     1      37.534 -12.878  -2.040  1.00  0.00    -0.256 N 
HETATM    5  H   UNL     1      36.587 -12.878  -2.403  1.00  0.00     0.191 HD
HETATM    6  C   UNL     1      38.000 -12.299  -0.905  1.00  0.00     0.175 A 
HETATM    7  C   UNL     1      39.342 -12.566  -0.843  1.00  0.00     0.034 A 
HETATM    8  C   UNL     1      40.153 -12.044   0.291  1.00  0.00     0.105 A 
HETATM    9  C   UNL     1      39.278 -11.222   1.241  1.00  0.00     0.080 A 
HETATM   10  C   UNL     1      39.943 -10.597   2.336  1.00  0.00     0.100 C 
HETATM   11  N   UNL     1      40.479 -10.089   3.231  1.00  0.00    -0.191 NA
HETATM   12  C   UNL     1      37.943 -11.040   1.046  1.00  0.00     0.140 A 
HETATM   13  O   UNL     1      37.262 -11.609  -0.046  1.00  0.00    -0.279 OA
ENDROOT
BRANCH   8  14
HETATM   14  C   UNL     1      40.789 -13.264   0.945  1.00  0.00    -0.044 A 
HETATM   15  C   UNL     1      42.142 -13.221   1.316  1.00  0.00     0.009 A 
HETATM   16  C   UNL     1      42.763 -14.336   1.889  1.00  0.00     0.013 A 
HETATM   17  C   UNL     1      42.054 -15.525   2.119  1.00  0.00    -0.026 A 
HETATM   18  C   UNL     1      40.696 -15.555   1.769  1.00  0.00     0.013 A 
HETATM   19  C   UNL     1      40.070 -14.444   1.193  1.00  0.00     0.009 A 
BRANCH  17  20
HETATM   20  C   UNL     1      42.720 -16.708   2.694  1.00  0.00    -0.026 A 
HETATM   21  C   UNL     1      43.337 -16.655   3.956  1.00  0.00     0.012 A 
HETATM   22  C   UNL     1      43.980 -17.774   4.492  1.00  0.00     0.001 A 
HETATM   23  C   UNL     1      44.017 -18.968   3.776  1.00  0.00     0.000 A 
HETATM   24  C   UNL     1      43.410 -19.043   2.526  1.00  0.00     0.001 A 
HETATM   25  C   UNL     1      42.768 -17.923   1.990  1.00  0.00     0.012 A 
ENDBRANCH  17  20
ENDBRANCH   8  14
BRANCH  12  26
HETATM   26  N   UNL     1      37.111 -10.300   1.858  1.00  0.00    -0.282 NA
HETATM   27  H   UNL     1      37.181  -9.291   1.757  1.00  0.00     0.126 HD
HETATM   28  H   UNL     1      37.148 -10.609   2.827  1.00  0.00     0.126 HD
ENDBRANCH  12  26
TORSDOF 3
ENDMDL
MODEL 7
REMARK VINA RESULT:      -7.8      3.159      4.935
REMARK  3 active torsions:
REMARK  status: ('A' for Active; 'I' for Inactive)
REMARK    1  A    between atoms: C_8  and  C_9 
REMARK    2  A    between atoms: C_12  and  C_13 
REMARK    3  A    between atoms: C_24  and  N_25 
ROOT
HETATM    1  C   UNL     1      40.487  -9.465   5.580  1.00  0.00     0.073 C 
HETATM    2  C   UNL     1      40.874  -9.560   7.009  1.00  0.00     0.062 A 
HETATM    3  N   UNL     1      39.955  -9.382   7.973  1.00  0.00    -0.177 NA
HETATM    4  N   UNL     1      40.642  -9.544   9.122  1.00  0.00    -0.256 N 
HETATM    5  H   UNL     1      40.151  -9.447  10.004  1.00  0.00     0.191 HD
HETATM    6  C   UNL     1      41.954  -9.817   8.915  1.00  0.00     0.175 A 
HETATM    7  C   UNL     1      42.148  -9.843   7.559  1.00  0.00     0.034 A 
HETATM    8  C   UNL     1      43.505 -10.104   7.006  1.00  0.00     0.105 A 
HETATM    9  C   UNL     1      44.520 -10.284   8.138  1.00  0.00     0.080 A 
HETATM   10  C   UNL     1      45.879 -10.466   7.750  1.00  0.00     0.100 C 
HETATM   11  N   UNL     1      46.987 -10.617   7.439  1.00  0.00    -0.191 NA
HETATM   12  C   UNL     1      44.177 -10.228   9.455  1.00  0.00     0.140 A 
HETATM   13  O   UNL     1      42.851 -10.010   9.874  1.00  0.00    -0.279 OA
ENDROOT
BRANCH   8  14
HETATM   14  C   UNL     1      43.363 -11.327   6.110  1.00  0.00    -0.044 A 
HETATM   15  C   UNL     1      43.138 -12.585   6.689  1.00  0.00     0.009 A 
HETATM   16  C   UNL     1      43.034 -13.731   5.894  1.00  0.00     0.013 A 
HETATM   17  C   UNL     1      43.143 -13.660   4.496  1.00  0.00    -0.026 A 
HETATM   18  C   UNL     1      43.344 -12.397   3.920  1.00  0.00     0.013 A 
HETATM   19  C   UNL     1      43.450 -11.247   4.710  1.00  0.00     0.009 A 
BRANCH  17  20
HETATM   20  C   UNL     1      43.065 -14.875   3.665  1.00  0.00    -0.026 A 
HETATM   21  C   UNL     1      42.941 -16.148   4.246  1.00  0.00     0.012 A 
HETATM   22  C   UNL     1      42.881 -17.300   3.455  1.00  0.00     0.001 A 
HETATM   23  C   UNL     1      42.945 -17.197   2.068  1.00  0.00     0.000 A 
HETATM   24  C   UNL     1      43.066 -15.946   1.471  1.00  0.00     0.001 A 
HETATM   25  C   UNL     1      43.126 -14.795   2.263  1.00  0.00     0.012 A 
ENDBRANCH  17  20
ENDBRANCH   8  14
BRANCH  12  26
HETATM   26  N   UNL     1      45.047 -10.368  10.513  1.00  0.00    -0.282 NA
HETATM   27  H   UNL     1      44.974 -11.240  11.031  1.00  0.00     0.126 HD
HETATM   28  H   UNL     1      45.058  -9.546  11.112  1.00  0.00     0.126 HD
ENDBRANCH  12  26
TORSDOF 3
ENDMDL
MODEL 8
REMARK VINA RESULT:      -7.7      1.655      2.384
REMARK  3 active torsions:
REMARK  status: ('A' for Active; 'I' for Inactive)
REMARK    1  A    between atoms: C_8  and  C_9 
REMARK    2  A    between atoms: C_12  and  C_13 
REMARK    3  A    between atoms: C_24  and  N_25 
ROOT
HETATM    1  C   UNL     1      40.614 -11.550   0.610  1.00  0.00     0.073 C 
HETATM    2  C   UNL     1      39.633 -11.084   1.619  1.00  0.00     0.062 A 
HETATM    3  N   UNL     1      38.359 -10.845   1.264  1.00  0.00    -0.177 NA
HETATM    4  N   UNL     1      37.762 -10.454   2.409  1.00  0.00    -0.256 N 
HETATM    5  H   UNL     1      36.779 -10.207   2.389  1.00  0.00     0.191 HD
HETATM    6  C   UNL     1      38.612 -10.441   3.466  1.00  0.00     0.175 A 
HETATM    7  C   UNL     1      39.834 -10.849   3.001  1.00  0.00     0.034 A 
HETATM    8  C   UNL     1      40.996 -10.924   3.928  1.00  0.00     0.105 A 
HETATM    9  C   UNL     1      40.590 -10.474   5.333  1.00  0.00     0.080 A 
HETATM   10  C   UNL     1      41.627 -10.424   6.310  1.00  0.00     0.100 C 
HETATM   11  N   UNL     1      42.468 -10.384   7.108  1.00  0.00    -0.191 NA
HETATM   12  C   UNL     1      39.322 -10.088   5.650  1.00  0.00     0.140 A 
HETATM   13  O   UNL     1      38.282 -10.088   4.701  1.00  0.00    -0.279 OA
ENDROOT
BRANCH   8  14
HETATM   14  C   UNL     1      41.489 -12.363   3.864  1.00  0.00    -0.044 A 
HETATM   15  C   UNL     1      42.726 -12.644   3.262  1.00  0.00     0.009 A 
HETATM   16  C   UNL     1      43.191 -13.959   3.161  1.00  0.00     0.013 A 
HETATM   17  C   UNL     1      42.444 -15.036   3.663  1.00  0.00    -0.026 A 
HETATM   18  C   UNL     1      41.220 -14.749   4.285  1.00  0.00     0.013 A 
HETATM   19  C   UNL     1      40.749 -13.435   4.388  1.00  0.00     0.009 A 
BRANCH  17  20
HETATM   20  C   UNL     1      42.923 -16.423   3.525  1.00  0.00    -0.026 A 
HETATM   21  C   UNL     1      43.722 -17.019   4.516  1.00  0.00     0.012 A 
HETATM   22  C   UNL     1      44.187 -18.331   4.375  1.00  0.00     0.001 A 
HETATM   23  C   UNL     1      43.859 -19.069   3.241  1.00  0.00     0.000 A 
HETATM   24  C   UNL     1      43.067 -18.499   2.249  1.00  0.00     0.001 A 
HETATM   25  C   UNL     1      42.604 -17.188   2.390  1.00  0.00     0.012 A 
ENDBRANCH  17  20
ENDBRANCH   8  14
BRANCH  12  26
HETATM   26  N   UNL     1      38.904  -9.662   6.890  1.00  0.00    -0.282 NA
HETATM   27  H   UNL     1      38.039 -10.076   7.231  1.00  0.00     0.126 HD
HETATM   28  H   UNL     1      38.922  -8.648   6.973  1.00  0.00     0.126 HD
ENDBRANCH  12  26
TORSDOF 3
ENDMDL
MODEL 9
REMARK VINA RESULT:      -7.6      3.368      5.799
REMARK  3 active torsions:
REMARK  status: ('A' for Active; 'I' for Inactive)
REMARK    1  A    between atoms: C_8  and  C_9 
REMARK    2  A    between atoms: C_12  and  C_13 
REMARK    3  A    between atoms: C_24  and  N_25 
ROOT
HETATM    1  C   UNL     1      40.436 -16.407   5.338  1.00  0.00     0.073 C 
HETATM    2  C   UNL     1      41.746 -15.970   5.878  1.00  0.00     0.062 A 
HETATM    3  N   UNL     1      42.621 -16.877   6.347  1.00  0.00    -0.177 NA
HETATM    4  N   UNL     1      43.682 -16.143   6.740  1.00  0.00    -0.256 N 
HETATM    5  H   UNL     1      44.483 -16.617   7.143  1.00  0.00     0.191 HD
HETATM    6  C   UNL     1      43.506 -14.814   6.535  1.00  0.00     0.175 A 
HETATM    7  C   UNL     1      42.267 -14.657   5.971  1.00  0.00     0.034 A 
HETATM    8  C   UNL     1      41.767 -13.295   5.639  1.00  0.00     0.105 A 
HETATM    9  C   UNL     1      42.795 -12.234   6.041  1.00  0.00     0.080 A 
HETATM   10  C   UNL     1      42.414 -10.874   5.848  1.00  0.00     0.100 C 
HETATM   11  N   UNL     1      42.109  -9.766   5.691  1.00  0.00    -0.191 NA
HETATM   12  C   UNL     1      43.998 -12.544   6.601  1.00  0.00     0.140 A 
HETATM   13  O   UNL     1      44.390 -13.873   6.841  1.00  0.00    -0.279 OA
ENDROOT
BRANCH   8  14
HETATM   14  C   UNL     1      41.458 -13.315   4.148  1.00  0.00    -0.044 A 
HETATM   15  C   UNL     1      40.143 -13.092   3.712  1.00  0.00     0.009 A 
HETATM   16  C   UNL     1      39.822 -13.135   2.351  1.00  0.00     0.013 A 
HETATM   17  C   UNL     1      40.802 -13.395   1.381  1.00  0.00    -0.026 A 
HETATM   18  C   UNL     1      42.120 -13.594   1.819  1.00  0.00     0.013 A 
HETATM   19  C   UNL     1      42.446 -13.553   3.179  1.00  0.00     0.009 A 
BRANCH  17  20
HETATM   20  C   UNL     1      40.454 -13.472  -0.050  1.00  0.00    -0.026 A 
HETATM   21  C   UNL     1      40.862 -12.475  -0.953  1.00  0.00     0.012 A 
HETATM   22  C   UNL     1      40.518 -12.544  -2.306  1.00  0.00     0.001 A 
HETATM   23  C   UNL     1      39.760 -13.611  -2.781  1.00  0.00     0.000 A 
HETATM   24  C   UNL     1      39.348 -14.610  -1.904  1.00  0.00     0.001 A 
HETATM   25  C   UNL     1      39.691 -14.540  -0.551  1.00  0.00     0.012 A 
ENDBRANCH  17  20
ENDBRANCH   8  14
BRANCH  12  26
HETATM   26  N   UNL     1      44.953 -11.633   6.993  1.00  0.00    -0.282 NA
HETATM   27  H   UNL     1      45.255 -10.975   6.279  1.00  0.00     0.126 HD
HETATM   28  H   UNL     1      45.727 -12.076   7.483  1.00  0.00     0.126 HD
ENDBRANCH  12  26
TORSDOF 3
ENDMDL
MODEL 10
REMARK VINA RESULT:      -7.5      3.251      6.837
REMARK  3 active torsions:
REMARK  status: ('A' for Active; 'I' for Inactive)
REMARK    1  A    between atoms: C_8  and  C_9 
REMARK    2  A    between atoms: C_12  and  C_13 
REMARK    3  A    between atoms: C_24  and  N_25 
ROOT
HETATM    1  C   UNL     1      43.375 -15.686   4.873  1.00  0.00     0.073 C 
HETATM    2  C   UNL     1      42.054 -15.538   4.215  1.00  0.00     0.062 A 
HETATM    3  N   UNL     1      41.127 -16.503   4.334  1.00  0.00    -0.177 NA
HETATM    4  N   UNL     1      40.072 -16.040   3.632  1.00  0.00    -0.256 N 
HETATM    5  H   UNL     1      39.237 -16.611   3.570  1.00  0.00     0.191 HD
HETATM    6  C   UNL     1      40.303 -14.823   3.080  1.00  0.00     0.175 A 
HETATM    7  C   UNL     1      41.574 -14.457   3.438  1.00  0.00     0.034 A 
HETATM    8  C   UNL     1      42.136 -13.161   2.966  1.00  0.00     0.105 A 
HETATM    9  C   UNL     1      41.125 -12.430   2.079  1.00  0.00     0.080 A 
HETATM   10  C   UNL     1      41.561 -11.205   1.495  1.00  0.00     0.100 C 
HETATM   11  N   UNL     1      41.911 -10.207   1.019  1.00  0.00    -0.191 NA
HETATM   12  C   UNL     1      39.885 -12.925   1.806  1.00  0.00     0.140 A 
HETATM   13  O   UNL     1      39.437 -14.150   2.334  1.00  0.00    -0.279 OA
ENDROOT
BRANCH   8  14
HETATM   14  C   UNL     1      42.520 -12.390   4.222  1.00  0.00    -0.044 A 
HETATM   15  C   UNL     1      43.865 -12.062   4.446  1.00  0.00     0.009 A 
HETATM   16  C   UNL     1      44.253 -11.382   5.606  1.00  0.00     0.013 A 
HETATM   17  C   UNL     1      43.311 -11.000   6.574  1.00  0.00    -0.026 A 
HETATM   18  C   UNL     1      41.964 -11.309   6.334  1.00  0.00     0.013 A 
HETATM   19  C   UNL     1      41.571 -11.991   5.177  1.00  0.00     0.009 A 
BRANCH  17  20
HETATM   20  C   UNL     1      43.728 -10.312   7.810  1.00  0.00    -0.026 A 
HETATM   21  C   UNL     1      45.046 -10.409   8.288  1.00  0.00     0.012 A 
HETATM   22  C   UNL     1      45.435  -9.766   9.468  1.00  0.00     0.001 A 
HETATM   23  C   UNL     1      44.511  -9.016  10.190  1.00  0.00     0.000 A 
HETATM   24  C   UNL     1      43.201  -8.905   9.734  1.00  0.00     0.001 A 
HETATM   25  C   UNL     1      42.813  -9.548   8.555  1.00  0.00     0.012 A 
ENDBRANCH  17  20
ENDBRANCH   8  14
BRANCH  12  26
HETATM   26  N   UNL     1      38.943 -12.319   1.006  1.00  0.00    -0.282 NA
HETATM   27  H   UNL     1      38.338 -11.645   1.470  1.00  0.00     0.126 HD
HETATM   28  H   UNL     1      38.431 -12.992   0.440  1.00  0.00     0.126 HD
ENDBRANCH  12  26
TORSDOF 3
ENDMDL
