MODEL 1
REMARK VINA RESULT:      -8.0      0.000      0.000
REMARK  5 active torsions:
REMARK  status: ('A' for Active; 'I' for Inactive)
REMARK    1  A    between atoms: C_2  and  C_3 
REMARK    2  A    between atoms: C_11  and  N_12 
REMARK       I    between atoms: N_12  and  C_13 
REMARK    3  A    between atoms: C_13  and  C_14 
REMARK    4  A    between atoms: C_16  and  O_17 
REMARK    5  A    between atoms: O_17  and  C_18 
ROOT
HETATM    1  N   UNL     1      43.106 -12.830   6.784  1.00  0.00    -0.323 N 
HETATM    2  C   UNL     1      44.068 -11.886   7.098  1.00  0.00     0.256 C 
HETATM    3  O   UNL     1      45.271 -11.968   6.875  1.00  0.00    -0.267 OA
HETATM    4  H   UNL     1      42.159 -12.658   7.088  1.00  0.00     0.169 HD
ENDROOT
BRANCH   1   5
HETATM    5  C   UNL     1      43.319 -14.084   6.169  1.00  0.00     0.035 A 
HETATM    6  C   UNL     1      43.933 -15.168   6.795  1.00  0.00     0.030 A 
HETATM    7  C   UNL     1      44.069 -16.397   6.133  1.00  0.00     0.016 A 
HETATM    8  C   UNL     1      43.598 -16.567   4.826  1.00  0.00    -0.005 A 
HETATM    9  C   UNL     1      43.008 -15.467   4.191  1.00  0.00     0.016 A 
HETATM   10  C   UNL     1      42.866 -14.241   4.855  1.00  0.00     0.030 A 
BRANCH   8  11
HETATM   11  C   UNL     1      43.706 -17.860   4.140  1.00  0.00     0.088 A 
HETATM   12  N   UNL     1      44.039 -18.985   4.798  1.00  0.00    -0.175 NA
HETATM   13  N   UNL     1      44.049 -19.942   3.860  1.00  0.00    -0.289 N 
HETATM   14  H   UNL     1      44.277 -20.889   4.143  1.00  0.00     0.188 HD
HETATM   15  C   UNL     1      43.744 -19.488   2.615  1.00  0.00     0.111 A 
HETATM   16  C   UNL     1      43.514 -18.143   2.757  1.00  0.00     0.053 A 
ENDBRANCH   8  11
ENDBRANCH   1   5
BRANCH   2  17
HETATM   17  C   UNL     1      43.582 -10.667   7.805  1.00  0.00     0.037 A 
HETATM   18  C   UNL     1      43.912 -10.528   9.153  1.00  0.00     0.075 A 
HETATM   19  C   UNL     1      43.492  -9.392   9.812  1.00  0.00     0.165 A 
HETATM   20  N   UNL     1      42.771  -8.410   9.234  1.00  0.00    -0.237 NA
HETATM   21  C   UNL     1      42.473  -8.564   7.927  1.00  0.00     0.120 A 
HETATM   22  C   UNL     1      42.855  -9.660   7.170  1.00  0.00     0.036 A 
BRANCH  19  23
HETATM   23  O   UNL     1      43.845  -9.285  11.143  1.00  0.00    -0.329 OA
BRANCH  23  24
HETATM   24  C   UNL     1      42.826  -8.801  12.041  1.00  0.00     0.130 C 
HETATM   25  C   UNL     1      42.349  -9.764  13.160  1.00  0.00     0.032 C 
HETATM   26  C   UNL     1      42.316  -8.549  14.105  1.00  0.00     0.005 C 
HETATM   27  C   UNL     1      43.355  -7.890  13.181  1.00  0.00     0.032 C 
ENDBRANCH  23  24
ENDBRANCH  19  23
ENDBRANCH   2  17
TORSDOF 5
ENDMDL
MODEL 2
REMARK VINA RESULT:      -7.9      0.959      1.577
REMARK  5 active torsions:
REMARK  status: ('A' for Active; 'I' for Inactive)
REMARK    1  A    between atoms: C_2  and  C_3 
REMARK    2  A    between atoms: C_11  and  N_12 
REMARK       I    between atoms: N_12  and  C_13 
REMARK    3  A    between atoms: C_13  and  C_14 
REMARK    4  A    between atoms: C_16  and  O_17 
REMARK    5  A    between atoms: O_17  and  C_18 
ROOT
HETATM    1  N   UNL     1      43.747 -12.774   6.956  1.00  0.00    -0.323 N 
HETATM    2  C   UNL     1      44.772 -11.847   6.891  1.00  0.00     0.256 C 
HETATM    3  O   UNL     1      45.746 -11.887   6.149  1.00  0.00    -0.267 OA
HETATM    4  H   UNL     1      43.039 -12.647   7.664  1.00  0.00     0.169 HD
ENDROOT
BRANCH   1   5
HETATM    5  C   UNL     1      43.632 -13.963   6.200  1.00  0.00     0.035 A 
HETATM    6  C   UNL     1      42.967 -14.051   4.977  1.00  0.00     0.030 A 
HETATM    7  C   UNL     1      42.934 -15.259   4.264  1.00  0.00     0.016 A 
HETATM    8  C   UNL     1      43.561 -16.406   4.761  1.00  0.00    -0.005 A 
HETATM    9  C   UNL     1      44.204 -16.320   6.003  1.00  0.00     0.016 A 
HETATM   10  C   UNL     1      44.242 -15.113   6.713  1.00  0.00     0.030 A 
BRANCH   8  11
HETATM   11  C   UNL     1      43.561 -17.663   4.003  1.00  0.00     0.088 A 
HETATM   12  N   UNL     1      44.046 -18.804   4.525  1.00  0.00    -0.175 NA
HETATM   13  N   UNL     1      43.892 -19.718   3.556  1.00  0.00    -0.289 N 
HETATM   14  H   UNL     1      44.196 -20.668   3.740  1.00  0.00     0.188 HD
HETATM   15  C   UNL     1      43.334 -19.220   2.420  1.00  0.00     0.111 A 
HETATM   16  C   UNL     1      43.104 -17.891   2.673  1.00  0.00     0.053 A 
ENDBRANCH   8  11
ENDBRANCH   1   5
BRANCH   2  17
HETATM   17  C   UNL     1      44.682 -10.706   7.847  1.00  0.00     0.037 A 
HETATM   18  C   UNL     1      43.618 -10.703   8.749  1.00  0.00     0.075 A 
HETATM   19  C   UNL     1      43.537  -9.668   9.656  1.00  0.00     0.165 A 
HETATM   20  N   UNL     1      44.420  -8.651   9.719  1.00  0.00    -0.237 NA
HETATM   21  C   UNL     1      45.446  -8.684   8.841  1.00  0.00     0.120 A 
HETATM   22  C   UNL     1      45.626  -9.681   7.897  1.00  0.00     0.036 A 
BRANCH  19  23
HETATM   23  O   UNL     1      42.475  -9.704  10.539  1.00  0.00    -0.329 OA
BRANCH  23  24
HETATM   24  C   UNL     1      42.808  -9.766  11.940  1.00  0.00     0.130 C 
HETATM   25  C   UNL     1      42.998  -8.418  12.686  1.00  0.00     0.032 C 
HETATM   26  C   UNL     1      42.261  -9.048  13.883  1.00  0.00     0.005 C 
HETATM   27  C   UNL     1      41.595 -10.006  12.878  1.00  0.00     0.032 C 
ENDBRANCH  23  24
ENDBRANCH  19  23
ENDBRANCH   2  17
TORSDOF 5
ENDMDL
MODEL 3
REMARK VINA RESULT:      -7.8      6.497      8.770
REMARK  5 active torsions:
REMARK  status: ('A' for Active; 'I' for Inactive)
REMARK    1  A    between atoms: C_2  and  C_3 
REMARK    2  A    between atoms: C_11  and  N_12 
REMARK       I    between atoms: N_12  and  C_13 
REMARK    3  A    between atoms: C_13  and  C_14 
REMARK    4  A    between atoms: C_16  and  O_17 
REMARK    5  A    between atoms: O_17  and  C_18 
ROOT
HETATM    1  N   UNL     1      42.026 -14.253   1.757  1.00  0.00    -0.323 N 
HETATM    2  C   UNL     1      42.260 -12.962   2.196  1.00  0.00     0.256 C 
HETATM    3  O   UNL     1      42.902 -12.633   3.186  1.00  0.00    -0.267 OA
HETATM    4  H   UNL     1      41.421 -14.378   0.959  1.00  0.00     0.169 HD
ENDROOT
BRANCH   1   5
HETATM    5  C   UNL     1      42.457 -15.449   2.376  1.00  0.00     0.035 A 
HETATM    6  C   UNL     1      42.286 -15.733   3.731  1.00  0.00     0.030 A 
HETATM    7  C   UNL     1      42.701 -16.963   4.264  1.00  0.00     0.016 A 
HETATM    8  C   UNL     1      43.301 -17.933   3.454  1.00  0.00    -0.005 A 
HETATM    9  C   UNL     1      43.495 -17.632   2.099  1.00  0.00     0.016 A 
HETATM   10  C   UNL     1      43.075 -16.406   1.566  1.00  0.00     0.030 A 
BRANCH   8  11
HETATM   11  C   UNL     1      43.705 -19.235   3.997  1.00  0.00     0.088 A 
HETATM   12  N   UNL     1      43.809 -20.326   3.217  1.00  0.00    -0.175 NA
HETATM   13  N   UNL     1      44.181 -21.309   4.050  1.00  0.00    -0.289 N 
HETATM   14  H   UNL     1      44.322 -22.237   3.663  1.00  0.00     0.188 HD
HETATM   15  C   UNL     1      44.316 -20.908   5.341  1.00  0.00     0.111 A 
HETATM   16  C   UNL     1      44.017 -19.569   5.347  1.00  0.00     0.053 A 
ENDBRANCH   8  11
ENDBRANCH   1   5
BRANCH   2  17
HETATM   17  C   UNL     1      41.638 -11.875   1.388  1.00  0.00     0.037 A 
HETATM   18  C   UNL     1      40.915 -12.247   0.254  1.00  0.00     0.075 A 
HETATM   19  C   UNL     1      40.311 -11.254  -0.488  1.00  0.00     0.165 A 
HETATM   20  N   UNL     1      40.385  -9.941  -0.189  1.00  0.00    -0.237 NA
HETATM   21  C   UNL     1      41.082  -9.609   0.918  1.00  0.00     0.120 A 
HETATM   22  C   UNL     1      41.717 -10.527   1.738  1.00  0.00     0.036 A 
BRANCH  19  23
HETATM   23  O   UNL     1      39.597 -11.662  -1.598  1.00  0.00    -0.329 OA
BRANCH  23  24
HETATM   24  C   UNL     1      39.165 -13.037  -1.613  1.00  0.00     0.130 C 
HETATM   25  C   UNL     1      37.867 -13.366  -2.396  1.00  0.00     0.032 C 
HETATM   26  C   UNL     1      38.563 -14.648  -2.889  1.00  0.00     0.005 C 
HETATM   27  C   UNL     1      39.903 -13.930  -2.647  1.00  0.00     0.032 C 
ENDBRANCH  23  24
ENDBRANCH  19  23
ENDBRANCH   2  17
TORSDOF 5
ENDMDL
MODEL 4
REMARK VINA RESULT:      -7.6      1.946      2.743
REMARK  5 active torsions:
REMARK  status: ('A' for Active; 'I' for Inactive)
REMARK    1  A    between atoms: C_2  and  C_3 
REMARK    2  A    between atoms: C_11  and  N_12 
REMARK       I    between atoms: N_12  and  C_13 
REMARK    3  A    between atoms: C_13  and  C_14 
REMARK    4  A    between atoms: C_16  and  O_17 
REMARK    5  A    between atoms: O_17  and  C_18 
ROOT
HETATM    1  N   UNL     1      42.882 -13.681   5.398  1.00  0.00    -0.323 N 
HETATM    2  C   UNL     1      41.640 -13.132   5.668  1.00  0.00     0.256 C 
HETATM    3  O   UNL     1      40.567 -13.723   5.674  1.00  0.00    -0.267 OA
HETATM    4  H   UNL     1      43.675 -13.059   5.363  1.00  0.00     0.169 HD
ENDROOT
BRANCH   1   5
HETATM    5  C   UNL     1      43.156 -15.024   5.051  1.00  0.00     0.035 A 
HETATM    6  C   UNL     1      43.586 -15.993   5.956  1.00  0.00     0.030 A 
HETATM    7  C   UNL     1      43.795 -17.318   5.544  1.00  0.00     0.016 A 
HETATM    8  C   UNL     1      43.583 -17.700   4.215  1.00  0.00    -0.005 A 
HETATM    9  C   UNL     1      43.178 -16.717   3.303  1.00  0.00     0.016 A 
HETATM   10  C   UNL     1      42.963 -15.395   3.716  1.00  0.00     0.030 A 
BRANCH   8  11
HETATM   11  C   UNL     1      43.766 -19.091   3.785  1.00  0.00     0.088 A 
HETATM   12  N   UNL     1      44.132 -20.057   4.648  1.00  0.00    -0.175 NA
HETATM   13  N   UNL     1      44.209 -21.170   3.905  1.00  0.00    -0.289 N 
HETATM   14  H   UNL     1      44.473 -22.036   4.364  1.00  0.00     0.188 HD
HETATM   15  C   UNL     1      43.916 -20.972   2.592  1.00  0.00     0.111 A 
HETATM   16  C   UNL     1      43.622 -19.636   2.476  1.00  0.00     0.053 A 
ENDBRANCH   8  11
ENDBRANCH   1   5
BRANCH   2  17
HETATM   17  C   UNL     1      41.621 -11.668   5.948  1.00  0.00     0.037 A 
HETATM   18  C   UNL     1      42.657 -11.146   6.723  1.00  0.00     0.075 A 
HETATM   19  C   UNL     1      42.666  -9.789   6.968  1.00  0.00     0.165 A 
HETATM   20  N   UNL     1      41.728  -8.936   6.511  1.00  0.00    -0.237 NA
HETATM   21  C   UNL     1      40.742  -9.465   5.756  1.00  0.00     0.120 A 
HETATM   22  C   UNL     1      40.645 -10.811   5.442  1.00  0.00     0.036 A 
BRANCH  19  23
HETATM   23  O   UNL     1      43.713  -9.308   7.731  1.00  0.00    -0.329 OA
BRANCH  23  24
HETATM   24  C   UNL     1      44.105 -10.112   8.861  1.00  0.00     0.130 C 
HETATM   25  C   UNL     1      45.378  -9.678   9.635  1.00  0.00     0.032 C 
HETATM   26  C   UNL     1      44.635 -10.040  10.935  1.00  0.00     0.005 C 
HETATM   27  C   UNL     1      43.322  -9.808  10.167  1.00  0.00     0.032 C 
ENDBRANCH  23  24
ENDBRANCH  19  23
ENDBRANCH   2  17
TORSDOF 5
ENDMDL
MODEL 5
REMARK VINA RESULT:      -7.5      5.639      9.502
REMARK  5 active torsions:
REMARK  status: ('A' for Active; 'I' for Inactive)
REMARK    1  A    between atoms: C_2  and  C_3 
REMARK    2  A    between atoms: C_11  and  N_12 
REMARK       I    between atoms: N_12  and  C_13 
REMARK    3  A    between atoms: C_13  and  C_14 
REMARK    4  A    between atoms: C_16  and  O_17 
REMARK    5  A    between atoms: O_17  and  C_18 
ROOT
HETATM    1  N   UNL     1      41.124 -14.435   2.834  1.00  0.00    -0.323 N 
HETATM    2  C   UNL     1      42.421 -14.146   3.221  1.00  0.00     0.256 C 
HETATM    3  O   UNL     1      43.190 -13.366   2.672  1.00  0.00    -0.267 OA
HETATM    4  H   UNL     1      40.628 -15.150   3.344  1.00  0.00     0.169 HD
ENDROOT
BRANCH   1   5
HETATM    5  C   UNL     1      40.439 -13.911   1.714  1.00  0.00     0.035 A 
HETATM    6  C   UNL     1      40.411 -14.519   0.459  1.00  0.00     0.030 A 
HETATM    7  C   UNL     1      39.670 -13.960  -0.593  1.00  0.00     0.016 A 
HETATM    8  C   UNL     1      38.944 -12.778  -0.413  1.00  0.00    -0.005 A 
HETATM    9  C   UNL     1      38.997 -12.156   0.841  1.00  0.00     0.016 A 
HETATM   10  C   UNL     1      39.733 -12.717   1.893  1.00  0.00     0.030 A 
BRANCH   8  11
HETATM   11  C   UNL     1      38.138 -12.207  -1.499  1.00  0.00     0.088 A 
HETATM   12  N   UNL     1      37.364 -12.976  -2.285  1.00  0.00    -0.175 NA
HETATM   13  N   UNL     1      36.800 -12.123  -3.153  1.00  0.00    -0.289 N 
HETATM   14  H   UNL     1      36.164 -12.498  -3.849  1.00  0.00     0.188 HD
HETATM   15  C   UNL     1      37.180 -10.831  -2.971  1.00  0.00     0.111 A 
HETATM   16  C   UNL     1      38.046 -10.845  -1.907  1.00  0.00     0.053 A 
ENDBRANCH   8  11
ENDBRANCH   1   5
BRANCH   2  17
HETATM   17  C   UNL     1      42.927 -14.886   4.412  1.00  0.00     0.037 A 
HETATM   18  C   UNL     1      43.559 -16.110   4.189  1.00  0.00     0.075 A 
HETATM   19  C   UNL     1      44.057 -16.793   5.278  1.00  0.00     0.165 A 
HETATM   20  N   UNL     1      43.961 -16.354   6.550  1.00  0.00    -0.237 NA
HETATM   21  C   UNL     1      43.354 -15.163   6.737  1.00  0.00     0.120 A 
HETATM   22  C   UNL     1      42.830 -14.392   5.712  1.00  0.00     0.036 A 
BRANCH  19  23
HETATM   23  O   UNL     1      44.683 -17.997   5.018  1.00  0.00    -0.329 OA
BRANCH  23  24
HETATM   24  C   UNL     1      43.833 -19.087   4.610  1.00  0.00     0.130 C 
HETATM   25  C   UNL     1      43.960 -19.576   3.142  1.00  0.00     0.032 C 
HETATM   26  C   UNL     1      43.819 -21.014   3.675  1.00  0.00     0.005 C 
HETATM   27  C   UNL     1      44.349 -20.492   5.023  1.00  0.00     0.032 C 
ENDBRANCH  23  24
ENDBRANCH  19  23
ENDBRANCH   2  17
TORSDOF 5
ENDMDL
MODEL 6
REMARK VINA RESULT:      -7.5      7.957      9.757
REMARK  5 active torsions:
REMARK  status: ('A' for Active; 'I' for Inactive)
REMARK    1  A    between atoms: C_2  and  C_3 
REMARK    2  A    between atoms: C_11  and  N_12 
REMARK       I    between atoms: N_12  and  C_13 
REMARK    3  A    between atoms: C_13  and  C_14 
REMARK    4  A    between atoms: C_16  and  O_17 
REMARK    5  A    between atoms: O_17  and  C_18 
ROOT
HETATM    1  N   UNL     1      40.600 -13.809   0.410  1.00  0.00    -0.323 N 
HETATM    2  C   UNL     1      39.744 -14.091  -0.640  1.00  0.00     0.256 C 
HETATM    3  O   UNL     1      39.326 -15.196  -0.964  1.00  0.00    -0.267 OA
HETATM    4  H   UNL     1      40.914 -12.856   0.521  1.00  0.00     0.169 HD
ENDROOT
BRANCH   1   5
HETATM    5  C   UNL     1      41.184 -14.740   1.300  1.00  0.00     0.035 A 
HETATM    6  C   UNL     1      40.462 -15.503   2.218  1.00  0.00     0.030 A 
HETATM    7  C   UNL     1      41.109 -16.440   3.037  1.00  0.00     0.016 A 
HETATM    8  C   UNL     1      42.493 -16.630   2.960  1.00  0.00    -0.005 A 
HETATM    9  C   UNL     1      43.217 -15.842   2.057  1.00  0.00     0.016 A 
HETATM   10  C   UNL     1      42.570 -14.910   1.234  1.00  0.00     0.030 A 
BRANCH   8  11
HETATM   11  C   UNL     1      43.170 -17.634   3.789  1.00  0.00     0.088 A 
HETATM   12  N   UNL     1      43.199 -17.540   5.131  1.00  0.00    -0.175 NA
HETATM   13  N   UNL     1      43.904 -18.607   5.535  1.00  0.00    -0.289 N 
HETATM   14  H   UNL     1      44.049 -18.737   6.531  1.00  0.00     0.188 HD
HETATM   15  C   UNL     1      44.343 -19.389   4.513  1.00  0.00     0.111 A 
HETATM   16  C   UNL     1      43.885 -18.791   3.366  1.00  0.00     0.053 A 
ENDBRANCH   8  11
ENDBRANCH   1   5
BRANCH   2  17
HETATM   17  C   UNL     1      39.319 -12.925  -1.466  1.00  0.00     0.037 A 
HETATM   18  C   UNL     1      40.319 -12.084  -1.957  1.00  0.00     0.075 A 
HETATM   19  C   UNL     1      39.942 -11.018  -2.746  1.00  0.00     0.165 A 
HETATM   20  N   UNL     1      38.664 -10.732  -3.065  1.00  0.00    -0.237 NA
HETATM   21  C   UNL     1      37.717 -11.567  -2.587  1.00  0.00     0.120 A 
HETATM   22  C   UNL     1      37.988 -12.672  -1.795  1.00  0.00     0.036 A 
BRANCH  19  23
HETATM   23  O   UNL     1      40.960 -10.213  -3.220  1.00  0.00    -0.329 OA
BRANCH  23  24
HETATM   24  C   UNL     1      41.176  -8.972  -2.518  1.00  0.00     0.130 C 
HETATM   25  C   UNL     1      42.289  -8.952  -1.437  1.00  0.00     0.032 C 
HETATM   26  C   UNL     1      42.667  -7.547  -1.942  1.00  0.00     0.005 C 
HETATM   27  C   UNL     1      42.040  -7.940  -3.291  1.00  0.00     0.032 C 
ENDBRANCH  23  24
ENDBRANCH  19  23
ENDBRANCH   2  17
TORSDOF 5
ENDMDL
MODEL 7
REMARK VINA RESULT:      -7.4      3.707     10.828
REMARK  5 active torsions:
REMARK  status: ('A' for Active; 'I' for Inactive)
REMARK    1  A    between atoms: C_2  and  C_3 
REMARK    2  A    between atoms: C_11  and  N_12 
REMARK       I    between atoms: N_12  and  C_13 
REMARK    3  A    between atoms: C_13  and  C_14 
REMARK    4  A    between atoms: C_16  and  O_17 
REMARK    5  A    between atoms: O_17  and  C_18 
ROOT
HETATM    1  N   UNL     1      43.961  -9.002  11.575  1.00  0.00    -0.323 N 
HETATM    2  C   UNL     1      43.576  -8.839  10.255  1.00  0.00     0.256 C 
HETATM    3  O   UNL     1      42.570  -8.265   9.854  1.00  0.00    -0.267 OA
HETATM    4  H   UNL     1      44.783  -9.556  11.761  1.00  0.00     0.169 HD
ENDROOT
BRANCH   1   5
HETATM    5  C   UNL     1      43.260  -8.564  12.721  1.00  0.00     0.035 A 
HETATM    6  C   UNL     1      43.536  -7.378  13.401  1.00  0.00     0.030 A 
HETATM    7  C   UNL     1      42.765  -6.989  14.507  1.00  0.00     0.016 A 
HETATM    8  C   UNL     1      41.704  -7.781  14.960  1.00  0.00    -0.005 A 
HETATM    9  C   UNL     1      41.449  -8.985  14.291  1.00  0.00     0.016 A 
HETATM   10  C   UNL     1      42.214  -9.370  13.182  1.00  0.00     0.030 A 
BRANCH   8  11
HETATM   11  C   UNL     1      40.872  -7.363  16.094  1.00  0.00     0.088 A 
HETATM   12  N   UNL     1      39.908  -6.434  15.960  1.00  0.00    -0.175 NA
HETATM   13  N   UNL     1      39.380  -6.306  17.186  1.00  0.00    -0.289 N 
HETATM   14  H   UNL     1      38.621  -5.646  17.314  1.00  0.00     0.188 HD
HETATM   15  C   UNL     1      39.964  -7.107  18.116  1.00  0.00     0.111 A 
HETATM   16  C   UNL     1      40.934  -7.808  17.446  1.00  0.00     0.053 A 
ENDBRANCH   8  11
ENDBRANCH   1   5
BRANCH   2  17
HETATM   17  C   UNL     1      44.470  -9.453   9.233  1.00  0.00     0.037 A 
HETATM   18  C   UNL     1      44.105 -10.698   8.721  1.00  0.00     0.075 A 
HETATM   19  C   UNL     1      44.909 -11.266   7.755  1.00  0.00     0.165 A 
HETATM   20  N   UNL     1      46.034 -10.694   7.281  1.00  0.00    -0.237 NA
HETATM   21  C   UNL     1      46.360  -9.485   7.786  1.00  0.00     0.120 A 
HETATM   22  C   UNL     1      45.617  -8.823   8.750  1.00  0.00     0.036 A 
BRANCH  19  23
HETATM   23  O   UNL     1      44.510 -12.495   7.266  1.00  0.00    -0.329 OA
BRANCH  23  24
HETATM   24  C   UNL     1      43.273 -12.519   6.525  1.00  0.00     0.130 C 
HETATM   25  C   UNL     1      43.367 -12.407   4.980  1.00  0.00     0.032 C 
HETATM   26  C   UNL     1      42.249 -13.462   4.898  1.00  0.00     0.005 C 
HETATM   27  C   UNL     1      42.693 -13.940   6.293  1.00  0.00     0.032 C 
ENDBRANCH  23  24
ENDBRANCH  19  23
ENDBRANCH   2  17
TORSDOF 5
ENDMDL
MODEL 8
REMARK VINA RESULT:      -7.3      6.173     10.519
REMARK  5 active torsions:
REMARK  status: ('A' for Active; 'I' for Inactive)
REMARK    1  A    between atoms: C_2  and  C_3 
REMARK    2  A    between atoms: C_11  and  N_12 
REMARK       I    between atoms: N_12  and  C_13 
REMARK    3  A    between atoms: C_13  and  C_14 
REMARK    4  A    between atoms: C_16  and  O_17 
REMARK    5  A    between atoms: O_17  and  C_18 
ROOT
HETATM    1  N   UNL     1      41.492  -8.214  15.914  1.00  0.00    -0.323 N 
HETATM    2  C   UNL     1      40.742  -7.132  16.340  1.00  0.00     0.256 C 
HETATM    3  O   UNL     1      40.257  -6.256  15.633  1.00  0.00    -0.267 OA
HETATM    4  H   UNL     1      41.886  -8.821  16.617  1.00  0.00     0.169 HD
ENDROOT
BRANCH   1   5
HETATM    5  C   UNL     1      41.870  -8.511  14.585  1.00  0.00     0.035 A 
HETATM    6  C   UNL     1      42.923  -7.889  13.913  1.00  0.00     0.030 A 
HETATM    7  C   UNL     1      43.266  -8.271  12.608  1.00  0.00     0.016 A 
HETATM    8  C   UNL     1      42.560  -9.281  11.944  1.00  0.00    -0.005 A 
HETATM    9  C   UNL     1      41.486  -9.883  12.612  1.00  0.00     0.016 A 
HETATM   10  C   UNL     1      41.147  -9.506  13.918  1.00  0.00     0.030 A 
BRANCH   8  11
HETATM   11  C   UNL     1      42.937  -9.709  10.592  1.00  0.00     0.088 A 
HETATM   12  N   UNL     1      43.699 -10.798  10.381  1.00  0.00    -0.175 NA
HETATM   13  N   UNL     1      43.841 -10.865   9.049  1.00  0.00    -0.289 N 
HETATM   14  H   UNL     1      44.389 -11.627   8.664  1.00  0.00     0.188 HD
HETATM   15  C   UNL     1      43.210  -9.863   8.382  1.00  0.00     0.111 A 
HETATM   16  C   UNL     1      42.611  -9.094   9.349  1.00  0.00     0.053 A 
ENDBRANCH   8  11
ENDBRANCH   1   5
BRANCH   2  17
HETATM   17  C   UNL     1      40.538  -7.018  17.812  1.00  0.00     0.037 A 
HETATM   18  C   UNL     1      40.029  -8.132  18.481  1.00  0.00     0.075 A 
HETATM   19  C   UNL     1      39.860  -8.050  19.847  1.00  0.00     0.165 A 
HETATM   20  N   UNL     1      40.148  -6.953  20.576  1.00  0.00    -0.237 NA
HETATM   21  C   UNL     1      40.648  -5.893  19.907  1.00  0.00     0.120 A 
HETATM   22  C   UNL     1      40.866  -5.874  18.539  1.00  0.00     0.036 A 
BRANCH  19  23
HETATM   23  O   UNL     1      39.363  -9.175  20.475  1.00  0.00    -0.329 OA
BRANCH  23  24
HETATM   24  C   UNL     1      40.333 -10.151  20.905  1.00  0.00     0.130 C 
HETATM   25  C   UNL     1      41.832  -9.786  20.734  1.00  0.00     0.032 C 
HETATM   26  C   UNL     1      42.083 -10.438  22.106  1.00  0.00     0.005 C 
HETATM   27  C   UNL     1      40.606 -10.154  22.433  1.00  0.00     0.032 C 
ENDBRANCH  23  24
ENDBRANCH  19  23
ENDBRANCH   2  17
TORSDOF 5
ENDMDL
MODEL 9
REMARK VINA RESULT:      -7.1      5.061      6.156
REMARK  5 active torsions:
REMARK  status: ('A' for Active; 'I' for Inactive)
REMARK    1  A    between atoms: C_2  and  C_3 
REMARK    2  A    between atoms: C_11  and  N_12 
REMARK       I    between atoms: N_12  and  C_13 
REMARK    3  A    between atoms: C_13  and  C_14 
REMARK    4  A    between atoms: C_16  and  O_17 
REMARK    5  A    between atoms: O_17  and  C_18 
ROOT
HETATM    1  N   UNL     1      41.610 -13.278   3.286  1.00  0.00    -0.323 N 
HETATM    2  C   UNL     1      42.674 -12.440   3.569  1.00  0.00     0.256 C 
HETATM    3  O   UNL     1      43.243 -11.692   2.782  1.00  0.00    -0.267 OA
HETATM    4  H   UNL     1      41.283 -13.890   4.019  1.00  0.00     0.169 HD
ENDROOT
BRANCH   1   5
HETATM    5  C   UNL     1      40.985 -13.458   2.031  1.00  0.00     0.035 A 
HETATM    6  C   UNL     1      41.141 -14.593   1.235  1.00  0.00     0.030 A 
HETATM    7  C   UNL     1      40.451 -14.718   0.020  1.00  0.00     0.016 A 
HETATM    8  C   UNL     1      39.593 -13.707  -0.428  1.00  0.00    -0.005 A 
HETATM    9  C   UNL     1      39.461 -12.557   0.361  1.00  0.00     0.016 A 
HETATM   10  C   UNL     1      40.146 -12.435   1.578  1.00  0.00     0.030 A 
BRANCH   8  11
HETATM   11  C   UNL     1      38.841 -13.847  -1.680  1.00  0.00     0.088 A 
HETATM   12  N   UNL     1      37.792 -13.056  -1.968  1.00  0.00    -0.175 NA
HETATM   13  N   UNL     1      37.360 -13.479  -3.165  1.00  0.00    -0.289 N 
HETATM   14  H   UNL     1      36.562 -13.010  -3.580  1.00  0.00     0.188 HD
HETATM   15  C   UNL     1      38.079 -14.518  -3.668  1.00  0.00     0.111 A 
HETATM   16  C   UNL     1      39.048 -14.783  -2.734  1.00  0.00     0.053 A 
ENDBRANCH   8  11
ENDBRANCH   1   5
BRANCH   2  17
HETATM   17  C   UNL     1      43.187 -12.485   4.968  1.00  0.00     0.037 A 
HETATM   18  C   UNL     1      43.623 -11.287   5.534  1.00  0.00     0.075 A 
HETATM   19  C   UNL     1      44.074 -11.308   6.836  1.00  0.00     0.165 A 
HETATM   20  N   UNL     1      44.129 -12.421   7.595  1.00  0.00    -0.237 NA
HETATM   21  C   UNL     1      43.692 -13.566   7.028  1.00  0.00     0.120 A 
HETATM   22  C   UNL     1      43.210 -13.652   5.732  1.00  0.00     0.036 A 
BRANCH  19  23
HETATM   23  O   UNL     1      44.489 -10.101   7.365  1.00  0.00    -0.329 OA
BRANCH  23  24
HETATM   24  C   UNL     1      43.775  -9.630   8.525  1.00  0.00     0.130 C 
HETATM   25  C   UNL     1      44.473  -9.788   9.902  1.00  0.00     0.032 C 
HETATM   26  C   UNL     1      43.927  -8.395  10.268  1.00  0.00     0.005 C 
HETATM   27  C   UNL     1      43.869  -8.098   8.758  1.00  0.00     0.032 C 
ENDBRANCH  23  24
ENDBRANCH  19  23
ENDBRANCH   2  17
TORSDOF 5
ENDMDL
MODEL 10
REMARK VINA RESULT:      -7.1      5.242      8.376
REMARK  5 active torsions:
REMARK  status: ('A' for Active; 'I' for Inactive)
REMARK    1  A    between atoms: C_2  and  C_3 
REMARK    2  A    between atoms: C_11  and  N_12 
REMARK       I    between atoms: N_12  and  C_13 
REMARK    3  A    between atoms: C_13  and  C_14 
REMARK    4  A    between atoms: C_16  and  O_17 
REMARK    5  A    between atoms: O_17  and  C_18 
ROOT
HETATM    1  N   UNL     1      41.806  -7.814  12.864  1.00  0.00    -0.323 N 
HETATM    2  C   UNL     1      40.957  -8.353  13.814  1.00  0.00     0.256 C 
HETATM    3  O   UNL     1      40.608  -9.524  13.902  1.00  0.00    -0.267 OA
HETATM    4  H   UNL     1      41.953  -6.816  12.874  1.00  0.00     0.169 HD
ENDROOT
BRANCH   1   5
HETATM    5  C   UNL     1      42.418  -8.500  11.790  1.00  0.00     0.035 A 
HETATM    6  C   UNL     1      41.748  -8.904  10.636  1.00  0.00     0.030 A 
HETATM    7  C   UNL     1      42.436  -9.542   9.593  1.00  0.00     0.016 A 
HETATM    8  C   UNL     1      43.809  -9.795   9.684  1.00  0.00    -0.005 A 
HETATM    9  C   UNL     1      44.472  -9.412  10.857  1.00  0.00     0.016 A 
HETATM   10  C   UNL     1      43.787  -8.770  11.897  1.00  0.00     0.030 A 
BRANCH   8  11
HETATM   11  C   UNL     1      44.541 -10.429   8.582  1.00  0.00     0.088 A 
HETATM   12  N   UNL     1      44.155 -11.609   8.062  1.00  0.00    -0.175 NA
HETATM   13  N   UNL     1      45.054 -11.872   7.103  1.00  0.00    -0.289 N 
HETATM   14  H   UNL     1      44.949 -12.730   6.571  1.00  0.00     0.188 HD
HETATM   15  C   UNL     1      46.015 -10.919   6.980  1.00  0.00     0.111 A 
HETATM   16  C   UNL     1      45.715  -9.967   7.921  1.00  0.00     0.053 A 
ENDBRANCH   8  11
ENDBRANCH   1   5
BRANCH   2  17
HETATM   17  C   UNL     1      40.396  -7.393  14.807  1.00  0.00     0.037 A 
HETATM   18  C   UNL     1      40.822  -7.511  16.131  1.00  0.00     0.075 A 
HETATM   19  C   UNL     1      40.331  -6.613  17.055  1.00  0.00     0.165 A 
HETATM   20  N   UNL     1      39.456  -5.631  16.759  1.00  0.00    -0.237 NA
HETATM   21  C   UNL     1      39.068  -5.531  15.470  1.00  0.00     0.120 A 
HETATM   22  C   UNL     1      39.507  -6.375  14.462  1.00  0.00     0.036 A 
BRANCH  19  23
HETATM   23  O   UNL     1      40.783  -6.756  18.353  1.00  0.00    -0.329 OA
BRANCH  23  24
HETATM   24  C   UNL     1      40.710  -8.081  18.914  1.00  0.00     0.130 C 
HETATM   25  C   UNL     1      41.224  -8.267  20.367  1.00  0.00     0.032 C 
HETATM   26  C   UNL     1      40.029  -9.210  20.602  1.00  0.00     0.005 C 
HETATM   27  C   UNL     1      39.309  -8.470  19.461  1.00  0.00     0.032 C 
ENDBRANCH  23  24
ENDBRANCH  19  23
ENDBRANCH   2  17
TORSDOF 5
ENDMDL
