MODEL 1
REMARK VINA RESULT:      -9.3      0.000      0.000
REMARK  5 active torsions:
REMARK  status: ('A' for Active; 'I' for Inactive)
REMARK    1  A    between atoms: C_3  and  C_4 
REMARK    2  A    between atoms: C_7  and  C_8 
REMARK    3  A    between atoms: C_8  and  N_9 
REMARK    4  A    between atoms: C_16  and  O_17 
REMARK    5  A    between atoms: C_18  and  O_19 
ROOT
HETATM    1  N   UNL     1      41.205 -13.110  -0.534  1.00  0.00    -0.067 N 
HETATM    2  H   UNL     1      42.125 -13.496  -0.778  1.00  0.00     0.280 HD
HETATM    3  C   UNL     1      41.161 -11.687  -1.062  1.00  0.00     0.240 C 
HETATM    4  C   UNL     1      39.989 -11.661  -2.040  1.00  0.00     0.020 C 
HETATM    5  C   UNL     1      39.950 -13.099  -2.562  1.00  0.00     0.020 C 
HETATM    6  C   UNL     1      40.184 -13.926  -1.305  1.00  0.00     0.240 C 
HETATM    7  C   UNL     1      38.678 -11.219  -1.359  1.00  0.00     0.041 C 
HETATM    8  C   UNL     1      37.460 -11.498  -2.236  1.00  0.00     0.147 C 
HETATM    9  C   UNL     1      37.398 -12.987  -2.613  1.00  0.00     0.147 C 
HETATM   10  C   UNL     1      38.674 -13.455  -3.317  1.00  0.00     0.041 C 
ENDROOT
BRANCH   1  11
HETATM   11  C   UNL     1      41.096 -13.212   0.964  1.00  0.00     0.273 C 
BRANCH  11  12
HETATM   12  C   UNL     1      41.642 -14.504   1.506  1.00  0.00    -0.033 A 
HETATM   13  C   UNL     1      43.020 -14.756   1.511  1.00  0.00     0.010 A 
HETATM   14  C   UNL     1      43.516 -15.975   1.989  1.00  0.00     0.013 A 
HETATM   15  C   UNL     1      42.654 -16.974   2.468  1.00  0.00    -0.023 A 
HETATM   16  C   UNL     1      41.276 -16.709   2.459  1.00  0.00     0.013 A 
HETATM   17  C   UNL     1      40.775 -15.493   1.988  1.00  0.00     0.010 A 
BRANCH  15  18
HETATM   18  C   UNL     1      43.175 -18.255   2.973  1.00  0.00     0.013 A 
HETATM   19  C   UNL     1      43.141 -19.415   2.179  1.00  0.00     0.015 A 
HETATM   20  C   UNL     1      43.648 -20.630   2.653  1.00  0.00     0.001 A 
HETATM   21  C   UNL     1      44.197 -20.710   3.930  1.00  0.00     0.003 A 
HETATM   22  C   UNL     1      44.240 -19.575   4.735  1.00  0.00     0.043 A 
HETATM   23  C   UNL     1      43.735 -18.367   4.257  1.00  0.00     0.127 A 
HETATM   24  F   UNL     1      43.786 -17.295   5.064  1.00  0.00    -0.205 F 
ENDBRANCH  15  18
ENDBRANCH  11  12
ENDBRANCH   1  11
BRANCH   8  25
HETATM   25  O   UNL     1      37.564 -10.727  -3.434  1.00  0.00    -0.393 OA
HETATM   26  H   UNL     1      37.962 -11.297  -4.119  1.00  0.00     0.210 HD
ENDBRANCH   8  25
BRANCH   9  27
HETATM   27  O   UNL     1      36.293 -13.217  -3.479  1.00  0.00    -0.393 OA
HETATM   28  H   UNL     1      35.823 -14.000  -3.129  1.00  0.00     0.210 HD
ENDBRANCH   9  27
TORSDOF 5
ENDMDL
MODEL 2
REMARK VINA RESULT:      -9.2      1.694      2.646
REMARK  5 active torsions:
REMARK  status: ('A' for Active; 'I' for Inactive)
REMARK    1  A    between atoms: C_3  and  C_4 
REMARK    2  A    between atoms: C_7  and  C_8 
REMARK    3  A    between atoms: C_8  and  N_9 
REMARK    4  A    between atoms: C_16  and  O_17 
REMARK    5  A    between atoms: C_18  and  O_19 
ROOT
HETATM    1  N   UNL     1      41.157 -11.933   2.223  1.00  0.00    -0.067 N 
HETATM    2  H   UNL     1      40.857 -11.166   2.838  1.00  0.00     0.280 HD
HETATM    3  C   UNL     1      40.136 -13.048   2.365  1.00  0.00     0.240 C 
HETATM    4  C   UNL     1      39.571 -13.252   0.962  1.00  0.00     0.020 C 
HETATM    5  C   UNL     1      39.697 -11.859   0.340  1.00  0.00     0.020 C 
HETATM    6  C   UNL     1      41.071 -11.399   0.806  1.00  0.00     0.240 C 
HETATM    7  C   UNL     1      40.334 -14.343   0.185  1.00  0.00     0.041 C 
HETATM    8  C   UNL     1      39.992 -14.326  -1.303  1.00  0.00     0.147 C 
HETATM    9  C   UNL     1      40.271 -12.939  -1.904  1.00  0.00     0.147 C 
HETATM   10  C   UNL     1      39.507 -11.833  -1.173  1.00  0.00     0.041 C 
ENDROOT
BRANCH   1  11
HETATM   11  C   UNL     1      42.543 -12.309   2.675  1.00  0.00     0.273 C 
BRANCH  11  12
HETATM   12  C   UNL     1      42.737 -13.794   2.799  1.00  0.00    -0.033 A 
HETATM   13  C   UNL     1      42.338 -14.477   3.957  1.00  0.00     0.010 A 
HETATM   14  C   UNL     1      42.552 -15.855   4.075  1.00  0.00     0.013 A 
HETATM   15  C   UNL     1      43.171 -16.587   3.050  1.00  0.00    -0.023 A 
HETATM   16  C   UNL     1      43.564 -15.893   1.896  1.00  0.00     0.013 A 
HETATM   17  C   UNL     1      43.351 -14.518   1.769  1.00  0.00     0.010 A 
BRANCH  15  18
HETATM   18  C   UNL     1      43.394 -18.038   3.174  1.00  0.00     0.013 A 
HETATM   19  C   UNL     1      43.007 -18.920   2.150  1.00  0.00     0.015 A 
HETATM   20  C   UNL     1      43.230 -20.297   2.261  1.00  0.00     0.001 A 
HETATM   21  C   UNL     1      43.843 -20.819   3.398  1.00  0.00     0.003 A 
HETATM   22  C   UNL     1      44.233 -19.964   4.426  1.00  0.00     0.043 A 
HETATM   23  C   UNL     1      44.009 -18.593   4.309  1.00  0.00     0.127 A 
HETATM   24  F   UNL     1      44.391 -17.800   5.323  1.00  0.00    -0.205 F 
ENDBRANCH  15  18
ENDBRANCH  11  12
ENDBRANCH   1  11
BRANCH   8  25
HETATM   25  O   UNL     1      38.604 -14.623  -1.463  1.00  0.00    -0.393 OA
HETATM   26  H   UNL     1      38.535 -15.456  -1.966  1.00  0.00     0.210 HD
ENDBRANCH   8  25
BRANCH   9  27
HETATM   27  O   UNL     1      39.889 -12.924  -3.274  1.00  0.00    -0.393 OA
HETATM   28  H   UNL     1      40.359 -12.172  -3.686  1.00  0.00     0.210 HD
ENDBRANCH   9  27
TORSDOF 5
ENDMDL
MODEL 3
REMARK VINA RESULT:      -9.1      3.916      5.289
REMARK  5 active torsions:
REMARK  status: ('A' for Active; 'I' for Inactive)
REMARK    1  A    between atoms: C_3  and  C_4 
REMARK    2  A    between atoms: C_7  and  C_8 
REMARK    3  A    between atoms: C_8  and  N_9 
REMARK    4  A    between atoms: C_16  and  O_17 
REMARK    5  A    between atoms: C_18  and  O_19 
ROOT
HETATM    1  N   UNL     1      40.841 -12.322   1.767  1.00  0.00    -0.067 N 
HETATM    2  H   UNL     1      40.400 -11.535   1.276  1.00  0.00     0.280 HD
HETATM    3  C   UNL     1      42.045 -11.770   2.509  1.00  0.00     0.240 C 
HETATM    4  C   UNL     1      41.782 -12.078   3.981  1.00  0.00     0.020 C 
HETATM    5  C   UNL     1      40.254 -12.061   4.063  1.00  0.00     0.020 C 
HETATM    6  C   UNL     1      39.834 -12.797   2.798  1.00  0.00     0.240 C 
HETATM    7  C   UNL     1      42.405 -13.422   4.410  1.00  0.00     0.041 C 
HETATM    8  C   UNL     1      41.880 -13.885   5.767  1.00  0.00     0.147 C 
HETATM    9  C   UNL     1      40.346 -13.983   5.746  1.00  0.00     0.147 C 
HETATM   10  C   UNL     1      39.691 -12.657   5.349  1.00  0.00     0.041 C 
ENDROOT
BRANCH   1  11
HETATM   11  C   UNL     1      41.185 -13.333   0.706  1.00  0.00     0.273 C 
BRANCH  11  12
HETATM   12  C   UNL     1      41.695 -14.628   1.273  1.00  0.00    -0.033 A 
HETATM   13  C   UNL     1      40.809 -15.604   1.748  1.00  0.00     0.010 A 
HETATM   14  C   UNL     1      41.296 -16.794   2.302  1.00  0.00     0.013 A 
HETATM   15  C   UNL     1      42.674 -17.040   2.403  1.00  0.00    -0.023 A 
HETATM   16  C   UNL     1      43.551 -16.056   1.923  1.00  0.00     0.013 A 
HETATM   17  C   UNL     1      43.073 -14.868   1.364  1.00  0.00     0.010 A 
BRANCH  15  18
HETATM   18  C   UNL     1      43.186 -18.293   2.984  1.00  0.00     0.013 A 
HETATM   19  C   UNL     1      43.194 -19.486   2.242  1.00  0.00     0.015 A 
HETATM   20  C   UNL     1      43.693 -20.674   2.789  1.00  0.00     0.001 A 
HETATM   21  C   UNL     1      44.192 -20.691   4.089  1.00  0.00     0.003 A 
HETATM   22  C   UNL     1      44.192 -19.521   4.844  1.00  0.00     0.043 A 
HETATM   23  C   UNL     1      43.696 -18.342   4.293  1.00  0.00     0.127 A 
HETATM   24  F   UNL     1      43.705 -17.234   5.053  1.00  0.00    -0.205 F 
ENDBRANCH  15  18
ENDBRANCH  11  12
ENDBRANCH   1  11
BRANCH   8  25
HETATM   25  O   UNL     1      42.263 -12.934   6.762  1.00  0.00    -0.393 OA
HETATM   26  H   UNL     1      42.953 -13.347   7.315  1.00  0.00     0.210 HD
ENDBRANCH   8  25
BRANCH   9  27
HETATM   27  O   UNL     1      39.870 -14.355   7.034  1.00  0.00    -0.393 OA
HETATM   28  H   UNL     1      39.877 -13.542   7.578  1.00  0.00     0.210 HD
ENDBRANCH   9  27
TORSDOF 5
ENDMDL
MODEL 4
REMARK VINA RESULT:      -8.9      1.485      2.393
REMARK  5 active torsions:
REMARK  status: ('A' for Active; 'I' for Inactive)
REMARK    1  A    between atoms: C_3  and  C_4 
REMARK    2  A    between atoms: C_7  and  C_8 
REMARK    3  A    between atoms: C_8  and  N_9 
REMARK    4  A    between atoms: C_16  and  O_17 
REMARK    5  A    between atoms: C_18  and  O_19 
ROOT
HETATM    1  N   UNL     1      40.301 -13.406   1.205  1.00  0.00    -0.067 N 
HETATM    2  H   UNL     1      39.787 -13.467   2.092  1.00  0.00     0.280 HD
HETATM    3  C   UNL     1      39.866 -14.583   0.350  1.00  0.00     0.240 C 
HETATM    4  C   UNL     1      39.269 -13.963  -0.910  1.00  0.00     0.020 C 
HETATM    5  C   UNL     1      38.723 -12.626  -0.403  1.00  0.00     0.020 C 
HETATM    6  C   UNL     1      39.825 -12.135   0.526  1.00  0.00     0.240 C 
HETATM    7  C   UNL     1      40.315 -13.813  -2.032  1.00  0.00     0.041 C 
HETATM    8  C   UNL     1      39.816 -12.912  -3.159  1.00  0.00     0.147 C 
HETATM    9  C   UNL     1      39.414 -11.535  -2.609  1.00  0.00     0.147 C 
HETATM   10  C   UNL     1      38.354 -11.643  -1.510  1.00  0.00     0.041 C 
ENDROOT
BRANCH   1  11
HETATM   11  C   UNL     1      41.762 -13.419   1.569  1.00  0.00     0.273 C 
BRANCH  11  12
HETATM   12  C   UNL     1      42.214 -14.737   2.134  1.00  0.00    -0.033 A 
HETATM   13  C   UNL     1      43.193 -15.500   1.484  1.00  0.00     0.010 A 
HETATM   14  C   UNL     1      43.584 -16.740   2.002  1.00  0.00     0.013 A 
HETATM   15  C   UNL     1      43.010 -17.254   3.175  1.00  0.00    -0.023 A 
HETATM   16  C   UNL     1      42.032 -16.480   3.818  1.00  0.00     0.013 A 
HETATM   17  C   UNL     1      41.639 -15.239   3.309  1.00  0.00     0.010 A 
BRANCH  15  18
HETATM   18  C   UNL     1      43.423 -18.558   3.721  1.00  0.00     0.013 A 
HETATM   19  C   UNL     1      43.734 -18.706   5.084  1.00  0.00     0.015 A 
HETATM   20  C   UNL     1      44.114 -19.948   5.606  1.00  0.00     0.001 A 
HETATM   21  C   UNL     1      44.191 -21.064   4.777  1.00  0.00     0.003 A 
HETATM   22  C   UNL     1      43.888 -20.940   3.423  1.00  0.00     0.043 A 
HETATM   23  C   UNL     1      43.509 -19.702   2.909  1.00  0.00     0.127 A 
HETATM   24  F   UNL     1      43.232 -19.618   1.597  1.00  0.00    -0.205 F 
ENDBRANCH  15  18
ENDBRANCH  11  12
ENDBRANCH   1  11
BRANCH   8  25
HETATM   25  O   UNL     1      38.671 -13.516  -3.763  1.00  0.00    -0.393 OA
HETATM   26  H   UNL     1      38.989 -14.176  -4.407  1.00  0.00     0.210 HD
ENDBRANCH   8  25
BRANCH   9  27
HETATM   27  O   UNL     1      38.893 -10.731  -3.661  1.00  0.00    -0.393 OA
HETATM   28  H   UNL     1      38.267 -11.295  -4.159  1.00  0.00     0.210 HD
ENDBRANCH   9  27
TORSDOF 5
ENDMDL
MODEL 5
REMARK VINA RESULT:      -8.8      3.923      5.247
REMARK  5 active torsions:
REMARK  status: ('A' for Active; 'I' for Inactive)
REMARK    1  A    between atoms: C_3  and  C_4 
REMARK    2  A    between atoms: C_7  and  C_8 
REMARK    3  A    between atoms: C_8  and  N_9 
REMARK    4  A    between atoms: C_16  and  O_17 
REMARK    5  A    between atoms: C_18  and  O_19 
ROOT
HETATM    1  N   UNL     1      40.617 -12.607   1.387  1.00  0.00    -0.067 N 
HETATM    2  H   UNL     1      40.107 -11.943   0.791  1.00  0.00     0.280 HD
HETATM    3  C   UNL     1      41.763 -11.846   2.030  1.00  0.00     0.240 C 
HETATM    4  C   UNL     1      41.523 -11.958   3.533  1.00  0.00     0.020 C 
HETATM    5  C   UNL     1      40.000 -12.067   3.627  1.00  0.00     0.020 C 
HETATM    6  C   UNL     1      39.653 -13.015   2.486  1.00  0.00     0.240 C 
HETATM    7  C   UNL     1      42.264 -13.162   4.148  1.00  0.00     0.041 C 
HETATM    8  C   UNL     1      41.778 -13.467   5.563  1.00  0.00     0.147 C 
HETATM    9  C   UNL     1      40.260 -13.706   5.570  1.00  0.00     0.147 C 
HETATM   10  C   UNL     1      39.489 -12.517   4.991  1.00  0.00     0.041 C 
ENDROOT
BRANCH   1  11
HETATM   11  C   UNL     1      41.055 -13.727   0.482  1.00  0.00     0.273 C 
BRANCH  11  12
HETATM   12  C   UNL     1      41.607 -14.907   1.233  1.00  0.00    -0.033 A 
HETATM   13  C   UNL     1      40.761 -15.759   1.954  1.00  0.00     0.010 A 
HETATM   14  C   UNL     1      41.288 -16.837   2.675  1.00  0.00     0.013 A 
HETATM   15  C   UNL     1      42.668 -17.091   2.701  1.00  0.00    -0.023 A 
HETATM   16  C   UNL     1      43.505 -16.231   1.974  1.00  0.00     0.013 A 
HETATM   17  C   UNL     1      42.986 -15.155   1.249  1.00  0.00     0.010 A 
BRANCH  15  18
HETATM   18  C   UNL     1      43.223 -18.226   3.458  1.00  0.00     0.013 A 
HETATM   19  C   UNL     1      43.467 -18.125   4.839  1.00  0.00     0.015 A 
HETATM   20  C   UNL     1      43.982 -19.208   5.562  1.00  0.00     0.001 A 
HETATM   21  C   UNL     1      44.263 -20.410   4.918  1.00  0.00     0.003 A 
HETATM   22  C   UNL     1      44.031 -20.532   3.550  1.00  0.00     0.043 A 
HETATM   23  C   UNL     1      43.517 -19.451   2.836  1.00  0.00     0.127 A 
HETATM   24  F   UNL     1      43.313 -19.602   1.517  1.00  0.00    -0.205 F 
ENDBRANCH  15  18
ENDBRANCH  11  12
ENDBRANCH   1  11
BRANCH   8  25
HETATM   25  O   UNL     1      42.070 -12.350   6.404  1.00  0.00    -0.393 OA
HETATM   26  H   UNL     1      41.225 -11.912   6.618  1.00  0.00     0.210 HD
ENDBRANCH   8  25
BRANCH   9  27
HETATM   27  O   UNL     1      39.815 -13.927   6.904  1.00  0.00    -0.393 OA
HETATM   28  H   UNL     1      40.153 -13.179   7.437  1.00  0.00     0.210 HD
ENDBRANCH   9  27
TORSDOF 5
ENDMDL
MODEL 6
REMARK VINA RESULT:      -8.4      3.868      5.163
REMARK  5 active torsions:
REMARK  status: ('A' for Active; 'I' for Inactive)
REMARK    1  A    between atoms: C_3  and  C_4 
REMARK    2  A    between atoms: C_7  and  C_8 
REMARK    3  A    between atoms: C_8  and  N_9 
REMARK    4  A    between atoms: C_16  and  O_17 
REMARK    5  A    between atoms: C_18  and  O_19 
ROOT
HETATM    1  N   UNL     1      41.782 -11.928   2.335  1.00  0.00    -0.067 N 
HETATM    2  H   UNL     1      42.580 -11.481   1.867  1.00  0.00     0.280 HD
HETATM    3  C   UNL     1      42.279 -12.450   3.672  1.00  0.00     0.240 C 
HETATM    4  C   UNL     1      41.429 -11.736   4.720  1.00  0.00     0.020 C 
HETATM    5  C   UNL     1      41.097 -10.407   4.038  1.00  0.00     0.020 C 
HETATM    6  C   UNL     1      40.778 -10.824   2.609  1.00  0.00     0.240 C 
HETATM    7  C   UNL     1      40.183 -12.556   5.108  1.00  0.00     0.041 C 
HETATM    8  C   UNL     1      39.176 -11.722   5.897  1.00  0.00     0.147 C 
HETATM    9  C   UNL     1      38.773 -10.470   5.101  1.00  0.00     0.147 C 
HETATM   10  C   UNL     1      39.986  -9.616   4.721  1.00  0.00     0.041 C 
ENDROOT
BRANCH   1  11
HETATM   11  C   UNL     1      41.301 -13.003   1.398  1.00  0.00     0.273 C 
BRANCH  11  12
HETATM   12  C   UNL     1      41.776 -14.376   1.785  1.00  0.00    -0.033 A 
HETATM   13  C   UNL     1      40.915 -15.284   2.414  1.00  0.00     0.010 A 
HETATM   14  C   UNL     1      41.376 -16.548   2.798  1.00  0.00     0.013 A 
HETATM   15  C   UNL     1      42.705 -16.939   2.572  1.00  0.00    -0.023 A 
HETATM   16  C   UNL     1      43.558 -16.021   1.940  1.00  0.00     0.013 A 
HETATM   17  C   UNL     1      43.103 -14.759   1.549  1.00  0.00     0.010 A 
BRANCH  15  18
HETATM   18  C   UNL     1      43.190 -18.270   2.974  1.00  0.00     0.013 A 
HETATM   19  C   UNL     1      43.071 -19.375   2.113  1.00  0.00     0.015 A 
HETATM   20  C   UNL     1      43.544 -20.637   2.490  1.00  0.00     0.001 A 
HETATM   21  C   UNL     1      44.143 -20.819   3.734  1.00  0.00     0.003 A 
HETATM   22  C   UNL     1      44.270 -19.739   4.604  1.00  0.00     0.043 A 
HETATM   23  C   UNL     1      43.799 -18.484   4.222  1.00  0.00     0.127 A 
HETATM   24  F   UNL     1      43.931 -17.468   5.090  1.00  0.00    -0.205 F 
ENDBRANCH  15  18
ENDBRANCH  11  12
ENDBRANCH   1  11
BRANCH   8  25
HETATM   25  O   UNL     1      39.778 -11.309   7.125  1.00  0.00    -0.393 OA
HETATM   26  H   UNL     1      39.107 -11.398   7.828  1.00  0.00     0.210 HD
ENDBRANCH   8  25
BRANCH   9  27
HETATM   27  O   UNL     1      37.884  -9.674   5.876  1.00  0.00    -0.393 OA
HETATM   28  H   UNL     1      37.849 -10.081   6.765  1.00  0.00     0.210 HD
ENDBRANCH   9  27
TORSDOF 5
ENDMDL
MODEL 7
REMARK VINA RESULT:      -8.3      1.961      2.822
REMARK  5 active torsions:
REMARK  status: ('A' for Active; 'I' for Inactive)
REMARK    1  A    between atoms: C_3  and  C_4 
REMARK    2  A    between atoms: C_7  and  C_8 
REMARK    3  A    between atoms: C_8  and  N_9 
REMARK    4  A    between atoms: C_16  and  O_17 
REMARK    5  A    between atoms: C_18  and  O_19 
ROOT
HETATM    1  N   UNL     1      39.629 -11.537   1.757  1.00  0.00    -0.067 N 
HETATM    2  H   UNL     1      40.057 -10.811   2.345  1.00  0.00     0.280 HD
HETATM    3  C   UNL     1      38.586 -10.856   0.889  1.00  0.00     0.240 C 
HETATM    4  C   UNL     1      39.027 -11.122  -0.548  1.00  0.00     0.020 C 
HETATM    5  C   UNL     1      40.549 -11.229  -0.421  1.00  0.00     0.020 C 
HETATM    6  C   UNL     1      40.730 -12.050   0.848  1.00  0.00     0.240 C 
HETATM    7  C   UNL     1      38.370 -12.390  -1.129  1.00  0.00     0.041 C 
HETATM    8  C   UNL     1      39.042 -12.837  -2.425  1.00  0.00     0.147 C 
HETATM    9  C   UNL     1      40.545 -13.063  -2.201  1.00  0.00     0.147 C 
HETATM   10  C   UNL     1      41.238 -11.814  -1.649  1.00  0.00     0.041 C 
ENDROOT
BRANCH   1  11
HETATM   11  C   UNL     1      39.064 -12.560   2.706  1.00  0.00     0.273 C 
BRANCH  11  12
HETATM   12  C   UNL     1      40.015 -13.690   2.985  1.00  0.00    -0.033 A 
HETATM   13  C   UNL     1      39.760 -14.980   2.501  1.00  0.00     0.010 A 
HETATM   14  C   UNL     1      40.636 -16.032   2.793  1.00  0.00     0.013 A 
HETATM   15  C   UNL     1      41.783 -15.830   3.576  1.00  0.00    -0.023 A 
HETATM   16  C   UNL     1      42.028 -14.534   4.054  1.00  0.00     0.013 A 
HETATM   17  C   UNL     1      41.160 -13.477   3.764  1.00  0.00     0.010 A 
BRANCH  15  18
HETATM   18  C   UNL     1      42.706 -16.936   3.882  1.00  0.00     0.013 A 
HETATM   19  C   UNL     1      42.921 -17.355   5.206  1.00  0.00     0.015 A 
HETATM   20  C   UNL     1      43.788 -18.414   5.497  1.00  0.00     0.001 A 
HETATM   21  C   UNL     1      44.456 -19.075   4.469  1.00  0.00     0.003 A 
HETATM   22  C   UNL     1      44.259 -18.677   3.149  1.00  0.00     0.043 A 
HETATM   23  C   UNL     1      43.394 -17.622   2.866  1.00  0.00     0.127 A 
HETATM   24  F   UNL     1      43.235 -17.259   1.583  1.00  0.00    -0.205 F 
ENDBRANCH  15  18
ENDBRANCH  11  12
ENDBRANCH   1  11
BRANCH   8  25
HETATM   25  O   UNL     1      38.875 -11.817  -3.410  1.00  0.00    -0.393 OA
HETATM   26  H   UNL     1      39.646 -11.222  -3.355  1.00  0.00     0.210 HD
ENDBRANCH   8  25
BRANCH   9  27
HETATM   27  O   UNL     1      41.166 -13.419  -3.431  1.00  0.00    -0.393 OA
HETATM   28  H   UNL     1      42.076 -13.701  -3.212  1.00  0.00     0.210 HD
ENDBRANCH   9  27
TORSDOF 5
ENDMDL
MODEL 8
REMARK VINA RESULT:      -8.3      2.716      3.891
REMARK  5 active torsions:
REMARK  status: ('A' for Active; 'I' for Inactive)
REMARK    1  A    between atoms: C_3  and  C_4 
REMARK    2  A    between atoms: C_7  and  C_8 
REMARK    3  A    between atoms: C_8  and  N_9 
REMARK    4  A    between atoms: C_16  and  O_17 
REMARK    5  A    between atoms: C_18  and  O_19 
ROOT
HETATM    1  N   UNL     1      40.341 -11.530   4.129  1.00  0.00    -0.067 N 
HETATM    2  H   UNL     1      39.964 -10.686   4.579  1.00  0.00     0.280 HD
HETATM    3  C   UNL     1      39.163 -12.433   3.807  1.00  0.00     0.240 C 
HETATM    4  C   UNL     1      39.202 -12.614   2.292  1.00  0.00     0.020 C 
HETATM    5  C   UNL     1      39.834 -11.306   1.810  1.00  0.00     0.020 C 
HETATM    6  C   UNL     1      40.952 -11.074   2.817  1.00  0.00     0.240 C 
HETATM    7  C   UNL     1      39.998 -13.868   1.881  1.00  0.00     0.041 C 
HETATM    8  C   UNL     1      40.312 -13.879   0.387  1.00  0.00     0.147 C 
HETATM    9  C   UNL     1      41.071 -12.603  -0.012  1.00  0.00     0.147 C 
HETATM   10  C   UNL     1      40.296 -11.335   0.357  1.00  0.00     0.041 C 
ENDROOT
BRANCH   1  11
HETATM   11  C   UNL     1      41.318 -12.122   5.110  1.00  0.00     0.273 C 
BRANCH  11  12
HETATM   12  C   UNL     1      41.749 -13.514   4.741  1.00  0.00    -0.033 A 
HETATM   13  C   UNL     1      41.107 -14.634   5.285  1.00  0.00     0.010 A 
HETATM   14  C   UNL     1      41.537 -15.925   4.959  1.00  0.00     0.013 A 
HETATM   15  C   UNL     1      42.618 -16.135   4.088  1.00  0.00    -0.023 A 
HETATM   16  C   UNL     1      43.252 -15.006   3.548  1.00  0.00     0.013 A 
HETATM   17  C   UNL     1      42.826 -13.714   3.866  1.00  0.00     0.010 A 
BRANCH  15  18
HETATM   18  C   UNL     1      43.069 -17.494   3.743  1.00  0.00     0.013 A 
HETATM   19  C   UNL     1      43.818 -18.261   4.652  1.00  0.00     0.015 A 
HETATM   20  C   UNL     1      44.236 -19.557   4.330  1.00  0.00     0.001 A 
HETATM   21  C   UNL     1      43.915 -20.111   3.093  1.00  0.00     0.003 A 
HETATM   22  C   UNL     1      43.175 -19.368   2.176  1.00  0.00     0.043 A 
HETATM   23  C   UNL     1      42.760 -18.079   2.503  1.00  0.00     0.127 A 
HETATM   24  F   UNL     1      42.056 -17.389   1.591  1.00  0.00    -0.205 F 
ENDBRANCH  15  18
ENDBRANCH  11  12
ENDBRANCH   1  11
BRANCH   8  25
HETATM   25  O   UNL     1      39.087 -13.929  -0.345  1.00  0.00    -0.393 OA
HETATM   26  H   UNL     1      39.158 -14.656  -0.992  1.00  0.00     0.210 HD
ENDBRANCH   8  25
BRANCH   9  27
HETATM   27  O   UNL     1      41.301 -12.600  -1.416  1.00  0.00    -0.393 OA
HETATM   28  H   UNL     1      41.746 -11.754  -1.623  1.00  0.00     0.210 HD
ENDBRANCH   9  27
TORSDOF 5
ENDMDL
MODEL 9
REMARK VINA RESULT:      -8.1      3.460      4.566
REMARK  5 active torsions:
REMARK  status: ('A' for Active; 'I' for Inactive)
REMARK    1  A    between atoms: C_3  and  C_4 
REMARK    2  A    between atoms: C_7  and  C_8 
REMARK    3  A    between atoms: C_8  and  N_9 
REMARK    4  A    between atoms: C_16  and  O_17 
REMARK    5  A    between atoms: C_18  and  O_19 
ROOT
HETATM    1  N   UNL     1      42.369 -12.160   5.234  1.00  0.00    -0.067 N 
HETATM    2  H   UNL     1      42.963 -11.352   5.459  1.00  0.00     0.280 HD
HETATM    3  C   UNL     1      40.957 -11.638   5.033  1.00  0.00     0.240 C 
HETATM    4  C   UNL     1      40.591 -12.022   3.602  1.00  0.00     0.020 C 
HETATM    5  C   UNL     1      41.947 -12.020   2.892  1.00  0.00     0.020 C 
HETATM    6  C   UNL     1      42.864 -12.693   3.903  1.00  0.00     0.240 C 
HETATM    7  C   UNL     1      39.866 -13.382   3.536  1.00  0.00     0.041 C 
HETATM    8  C   UNL     1      39.788 -13.917   2.108  1.00  0.00     0.147 C 
HETATM    9  C   UNL     1      41.193 -14.024   1.496  1.00  0.00     0.147 C 
HETATM   10  C   UNL     1      41.934 -12.684   1.519  1.00  0.00     0.041 C 
ENDROOT
BRANCH   1  11
HETATM   11  C   UNL     1      42.511 -13.113   6.391  1.00  0.00     0.273 C 
BRANCH  11  12
HETATM   12  C   UNL     1      42.786 -14.526   5.957  1.00  0.00    -0.033 A 
HETATM   13  C   UNL     1      44.047 -15.106   6.152  1.00  0.00     0.010 A 
HETATM   14  C   UNL     1      44.301 -16.411   5.717  1.00  0.00     0.013 A 
HETATM   15  C   UNL     1      43.312 -17.170   5.071  1.00  0.00    -0.023 A 
HETATM   16  C   UNL     1      42.054 -16.579   4.882  1.00  0.00     0.013 A 
HETATM   17  C   UNL     1      41.791 -15.278   5.319  1.00  0.00     0.010 A 
BRANCH  15  18
HETATM   18  C   UNL     1      43.579 -18.544   4.614  1.00  0.00     0.013 A 
HETATM   19  C   UNL     1      43.798 -19.584   5.534  1.00  0.00     0.015 A 
HETATM   20  C   UNL     1      44.039 -20.893   5.101  1.00  0.00     0.001 A 
HETATM   21  C   UNL     1      44.066 -21.187   3.740  1.00  0.00     0.003 A 
HETATM   22  C   UNL     1      43.854 -20.172   2.810  1.00  0.00     0.043 A 
HETATM   23  C   UNL     1      43.613 -18.871   3.248  1.00  0.00     0.127 A 
HETATM   24  F   UNL     1      43.421 -17.917   2.323  1.00  0.00    -0.205 F 
ENDBRANCH  15  18
ENDBRANCH  11  12
ENDBRANCH   1  11
BRANCH   8  25
HETATM   25  O   UNL     1      39.012 -13.015   1.317  1.00  0.00    -0.393 OA
HETATM   26  H   UNL     1      38.111 -12.994   1.691  1.00  0.00     0.210 HD
ENDBRANCH   8  25
BRANCH   9  27
HETATM   27  O   UNL     1      41.097 -14.464   0.147  1.00  0.00    -0.393 OA
HETATM   28  H   UNL     1      40.462 -15.208   0.142  1.00  0.00     0.210 HD
ENDBRANCH   9  27
TORSDOF 5
ENDMDL
MODEL 10
REMARK VINA RESULT:      -8.0      4.488      9.042
REMARK  5 active torsions:
REMARK  status: ('A' for Active; 'I' for Inactive)
REMARK    1  A    between atoms: C_3  and  C_4 
REMARK    2  A    between atoms: C_7  and  C_8 
REMARK    3  A    between atoms: C_8  and  N_9 
REMARK    4  A    between atoms: C_16  and  O_17 
REMARK    5  A    between atoms: C_18  and  O_19 
ROOT
HETATM    1  N   UNL     1      42.573 -16.303   3.645  1.00  0.00    -0.067 N 
HETATM    2  H   UNL     1      43.026 -15.427   3.933  1.00  0.00     0.280 HD
HETATM    3  C   UNL     1      43.203 -16.723   2.328  1.00  0.00     0.240 C 
HETATM    4  C   UNL     1      43.812 -18.097   2.598  1.00  0.00     0.020 C 
HETATM    5  C   UNL     1      44.160 -18.027   4.086  1.00  0.00     0.020 C 
HETATM    6  C   UNL     1      42.945 -17.337   4.691  1.00  0.00     0.240 C 
HETATM    7  C   UNL     1      42.838 -19.240   2.248  1.00  0.00     0.041 C 
HETATM    8  C   UNL     1      43.308 -20.579   2.810  1.00  0.00     0.147 C 
HETATM    9  C   UNL     1      43.507 -20.485   4.331  1.00  0.00     0.147 C 
HETATM   10  C   UNL     1      44.491 -19.377   4.714  1.00  0.00     0.041 C 
ENDROOT
BRANCH   1  11
HETATM   11  C   UNL     1      41.102 -15.998   3.551  1.00  0.00     0.273 C 
BRANCH  11  12
HETATM   12  C   UNL     1      40.759 -15.106   2.392  1.00  0.00    -0.033 A 
HETATM   13  C   UNL     1      40.188 -15.630   1.225  1.00  0.00     0.010 A 
HETATM   14  C   UNL     1      39.902 -14.795   0.139  1.00  0.00     0.013 A 
HETATM   15  C   UNL     1      40.181 -13.420   0.183  1.00  0.00    -0.023 A 
HETATM   16  C   UNL     1      40.752 -12.906   1.358  1.00  0.00     0.013 A 
HETATM   17  C   UNL     1      41.037 -13.733   2.448  1.00  0.00     0.010 A 
BRANCH  15  18
HETATM   18  C   UNL     1      39.878 -12.540  -0.958  1.00  0.00     0.013 A 
HETATM   19  C   UNL     1      40.787 -12.393  -2.020  1.00  0.00     0.015 A 
HETATM   20  C   UNL     1      40.494 -11.568  -3.112  1.00  0.00     0.001 A 
HETATM   21  C   UNL     1      39.288 -10.873  -3.162  1.00  0.00     0.003 A 
HETATM   22  C   UNL     1      38.373 -11.002  -2.120  1.00  0.00     0.043 A 
HETATM   23  C   UNL     1      38.670 -11.827  -1.037  1.00  0.00     0.127 A 
HETATM   24  F   UNL     1      37.767 -11.921  -0.047  1.00  0.00    -0.205 F 
ENDBRANCH  15  18
ENDBRANCH  11  12
ENDBRANCH   1  11
BRANCH   8  25
HETATM   25  O   UNL     1      44.556 -20.923   2.206  1.00  0.00    -0.393 OA
HETATM   26  H   UNL     1      45.074 -21.427   2.862  1.00  0.00     0.210 HD
ENDBRANCH   8  25
BRANCH   9  27
HETATM   27  O   UNL     1      44.004 -21.723   4.828  1.00  0.00    -0.393 OA
HETATM   28  H   UNL     1      44.964 -21.601   4.966  1.00  0.00     0.210 HD
ENDBRANCH   9  27
TORSDOF 5
ENDMDL
