MODEL 1
REMARK VINA RESULT:      -7.8      0.000      0.000
REMARK  6 active torsions:
REMARK  status: ('A' for Active; 'I' for Inactive)
REMARK    1  A    between atoms: O_2  and  C_3 
REMARK    2  A    between atoms: C_3  and  C_4 
REMARK    3  A    between atoms: C_4  and  N_5 
REMARK       I    between atoms: N_5  and  C_6 
REMARK    4  A    between atoms: C_6  and  C_7 
REMARK    5  A    between atoms: C_12  and  C_13 
REMARK    6  A    between atoms: C_22  and  C_23 
ROOT
HETATM    1  C   UNL     1      39.974 -13.149   2.365  1.00  0.00     0.148 A 
HETATM    2  N   UNL     1      40.055 -13.171   3.716  1.00  0.00    -0.165 NA
HETATM    3  N   UNL     1      41.113 -13.968   3.953  1.00  0.00    -0.240 N 
HETATM    4  C   UNL     1      41.774 -14.364   2.826  1.00  0.00     0.123 A 
HETATM    5  N   UNL     1      42.905 -15.091   2.883  1.00  0.00    -0.366 N 
HETATM    6  C   UNL     1      43.591 -15.407   4.128  1.00  0.00     0.118 C 
HETATM    7  C   UNL     1      43.042 -14.607   5.325  1.00  0.00     0.066 C 
HETATM    8  C   UNL     1      41.530 -14.315   5.295  1.00  0.00     0.221 C 
HETATM    9  C   UNL     1      41.040 -13.883   1.775  1.00  0.00     0.088 A 
HETATM   10  H   UNL     1      43.383 -15.383   2.032  1.00  0.00     0.161 HD
ENDROOT
BRANCH   1  11
HETATM   11  C   UNL     1      38.916 -12.430   1.639  1.00  0.00     0.272 C 
HETATM   12  N   UNL     1      38.976 -12.575   0.272  1.00  0.00    -0.354 N 
HETATM   13  H   UNL     1      39.608 -13.298  -0.063  1.00  0.00     0.162 HD
HETATM   14  O   UNL     1      38.049 -11.775   2.212  1.00  0.00    -0.266 OA
BRANCH  12  15
HETATM   15  C   UNL     1      37.890 -12.134  -0.577  1.00  0.00     0.149 C 
BRANCH  15  16
HETATM   16  C   UNL     1      37.882 -12.852  -1.922  1.00  0.00     0.186 C 
BRANCH  16  17
HETATM   17  O   UNL     1      39.039 -13.690  -2.011  1.00  0.00    -0.394 OA
HETATM   18  C   UNL     1      38.735 -14.936  -2.622  1.00  0.00     0.201 C 
ENDBRANCH  16  17
ENDBRANCH  15  16
ENDBRANCH  12  15
ENDBRANCH   1  11
BRANCH   8  19
HETATM   19  C   UNL     1      40.679 -15.444   5.827  1.00  0.00     0.409 C 
HETATM   20  F   UNL     1      41.289 -16.194   6.764  1.00  0.00    -0.169 F 
HETATM   21  F   UNL     1      39.549 -14.945   6.394  1.00  0.00    -0.169 F 
HETATM   22  F   UNL     1      40.269 -16.278   4.844  1.00  0.00    -0.169 F 
ENDBRANCH   8  19
BRANCH   6  23
HETATM   23  C   UNL     1      43.691 -16.908   4.344  1.00  0.00    -0.034 A 
HETATM   24  C   UNL     1      43.622 -17.768   3.232  1.00  0.00     0.034 A 
HETATM   25  C   UNL     1      43.659 -19.160   3.388  1.00  0.00     0.056 A 
HETATM   26 CL   UNL     1      43.538 -20.129   1.962  1.00  0.00    -0.083 Cl
HETATM   27  C   UNL     1      43.778 -19.716   4.664  1.00  0.00     0.055 A 
HETATM   28 CL   UNL     1      43.825 -21.421   4.935  1.00  0.00    -0.083 Cl
HETATM   29  C   UNL     1      43.856 -18.876   5.775  1.00  0.00     0.026 A 
HETATM   30  C   UNL     1      43.805 -17.488   5.616  1.00  0.00     0.011 A 
ENDBRANCH   6  23
TORSDOF 6
ENDMDL
MODEL 2
REMARK VINA RESULT:      -7.7      4.283      6.462
REMARK  6 active torsions:
REMARK  status: ('A' for Active; 'I' for Inactive)
REMARK    1  A    between atoms: O_2  and  C_3 
REMARK    2  A    between atoms: C_3  and  C_4 
REMARK    3  A    between atoms: C_4  and  N_5 
REMARK       I    between atoms: N_5  and  C_6 
REMARK    4  A    between atoms: C_6  and  C_7 
REMARK    5  A    between atoms: C_12  and  C_13 
REMARK    6  A    between atoms: C_22  and  C_23 
ROOT
HETATM    1  C   UNL     1      39.948 -11.058   5.975  1.00  0.00     0.148 A 
HETATM    2  N   UNL     1      40.776 -10.794   4.939  1.00  0.00    -0.165 NA
HETATM    3  N   UNL     1      40.864 -11.975   4.300  1.00  0.00    -0.240 N 
HETATM    4  C   UNL     1      40.052 -12.946   4.812  1.00  0.00     0.123 A 
HETATM    5  N   UNL     1      39.948 -14.160   4.242  1.00  0.00    -0.366 N 
HETATM    6  C   UNL     1      40.578 -14.506   2.976  1.00  0.00     0.118 C 
HETATM    7  C   UNL     1      41.142 -13.276   2.240  1.00  0.00     0.066 C 
HETATM    8  C   UNL     1      41.710 -12.162   3.140  1.00  0.00     0.221 C 
HETATM    9  C   UNL     1      39.472 -12.397   5.924  1.00  0.00     0.088 A 
HETATM   10  H   UNL     1      39.341 -14.875   4.641  1.00  0.00     0.161 HD
ENDROOT
BRANCH   1  11
HETATM   11  C   UNL     1      39.596 -10.055   6.993  1.00  0.00     0.272 C 
HETATM   12  N   UNL     1      40.321 -10.160   8.158  1.00  0.00    -0.354 N 
HETATM   13  H   UNL     1      41.129 -10.777   8.116  1.00  0.00     0.162 HD
HETATM   14  O   UNL     1      38.743  -9.193   6.804  1.00  0.00    -0.266 OA
BRANCH  12  15
HETATM   15  C   UNL     1      40.272  -9.124   9.167  1.00  0.00     0.149 C 
BRANCH  15  16
HETATM   16  C   UNL     1      39.472  -9.551  10.394  1.00  0.00     0.186 C 
BRANCH  16  17
HETATM   17  O   UNL     1      40.378  -9.986  11.413  1.00  0.00    -0.394 OA
HETATM   18  C   UNL     1      39.694 -10.308  12.616  1.00  0.00     0.201 C 
ENDBRANCH  16  17
ENDBRANCH  15  16
ENDBRANCH  12  15
ENDBRANCH   1  11
BRANCH   8  19
HETATM   19  C   UNL     1      43.139 -12.394   3.571  1.00  0.00     0.409 C 
HETATM   20  F   UNL     1      43.256 -13.025   4.754  1.00  0.00    -0.169 F 
HETATM   21  F   UNL     1      43.782 -13.159   2.650  1.00  0.00    -0.169 F 
HETATM   22  F   UNL     1      43.837 -11.240   3.656  1.00  0.00    -0.169 F 
ENDBRANCH   8  19
BRANCH   6  23
HETATM   23  C   UNL     1      41.549 -15.665   3.135  1.00  0.00    -0.034 A 
HETATM   24  C   UNL     1      41.854 -16.133   4.427  1.00  0.00     0.034 A 
HETATM   25  C   UNL     1      42.781 -17.165   4.625  1.00  0.00     0.056 A 
HETATM   26 CL   UNL     1      43.108 -17.647   6.252  1.00  0.00    -0.083 Cl
HETATM   27  C   UNL     1      43.412 -17.756   3.527  1.00  0.00     0.055 A 
HETATM   28 CL   UNL     1      44.568 -19.027   3.692  1.00  0.00    -0.083 Cl
HETATM   29  C   UNL     1      43.113 -17.309   2.240  1.00  0.00     0.026 A 
HETATM   30  C   UNL     1      42.198 -16.269   2.048  1.00  0.00     0.011 A 
ENDBRANCH   6  23
TORSDOF 6
ENDMDL
MODEL 3
REMARK VINA RESULT:      -7.6      3.817      4.972
REMARK  6 active torsions:
REMARK  status: ('A' for Active; 'I' for Inactive)
REMARK    1  A    between atoms: O_2  and  C_3 
REMARK    2  A    between atoms: C_3  and  C_4 
REMARK    3  A    between atoms: C_4  and  N_5 
REMARK       I    between atoms: N_5  and  C_6 
REMARK    4  A    between atoms: C_6  and  C_7 
REMARK    5  A    between atoms: C_12  and  C_13 
REMARK    6  A    between atoms: C_22  and  C_23 
ROOT
HETATM    1  C   UNL     1      39.858 -14.204   0.163  1.00  0.00     0.148 A 
HETATM    2  N   UNL     1      40.649 -15.236   0.538  1.00  0.00    -0.165 NA
HETATM    3  N   UNL     1      40.805 -15.045   1.861  1.00  0.00    -0.240 N 
HETATM    4  C   UNL     1      40.071 -14.010   2.364  1.00  0.00     0.123 A 
HETATM    5  N   UNL     1      40.039 -13.733   3.681  1.00  0.00    -0.366 N 
HETATM    6  C   UNL     1      40.670 -14.573   4.690  1.00  0.00     0.118 C 
HETATM    7  C   UNL     1      41.135 -15.928   4.124  1.00  0.00     0.066 C 
HETATM    8  C   UNL     1      41.642 -15.906   2.670  1.00  0.00     0.221 C 
HETATM    9  C   UNL     1      39.473 -13.418   1.284  1.00  0.00     0.088 A 
HETATM   10  H   UNL     1      39.489 -12.954   4.039  1.00  0.00     0.161 HD
ENDROOT
BRANCH   1  11
HETATM   11  C   UNL     1      39.457 -13.972  -1.233  1.00  0.00     0.272 C 
HETATM   12  N   UNL     1      38.135 -13.616  -1.384  1.00  0.00    -0.354 N 
HETATM   13  H   UNL     1      37.648 -13.372  -0.526  1.00  0.00     0.162 HD
HETATM   14  O   UNL     1      40.241 -14.071  -2.172  1.00  0.00    -0.266 OA
BRANCH  12  15
HETATM   15  C   UNL     1      37.631 -13.128  -2.650  1.00  0.00     0.149 C 
BRANCH  15  16
HETATM   16  C   UNL     1      37.189 -11.670  -2.570  1.00  0.00     0.186 C 
BRANCH  16  17
HETATM   17  O   UNL     1      38.279 -10.877  -2.090  1.00  0.00    -0.394 OA
HETATM   18  C   UNL     1      39.187 -10.553  -3.134  1.00  0.00     0.201 C 
ENDBRANCH  16  17
ENDBRANCH  15  16
ENDBRANCH  12  15
ENDBRANCH   1  11
BRANCH   8  19
HETATM   19  C   UNL     1      43.091 -15.501   2.533  1.00  0.00     0.409 C 
HETATM   20  F   UNL     1      43.294 -14.172   2.602  1.00  0.00    -0.169 F 
HETATM   21  F   UNL     1      43.825 -16.065   3.528  1.00  0.00    -0.169 F 
HETATM   22  F   UNL     1      43.632 -15.935   1.373  1.00  0.00    -0.169 F 
ENDBRANCH   8  19
BRANCH   6  23
HETATM   23  C   UNL     1      41.720 -13.806   5.477  1.00  0.00    -0.034 A 
HETATM   24  C   UNL     1      41.622 -12.405   5.567  1.00  0.00     0.034 A 
HETATM   25  C   UNL     1      42.594 -11.651   6.239  1.00  0.00     0.056 A 
HETATM   26 CL   UNL     1      42.398  -9.934   6.267  1.00  0.00    -0.083 Cl
HETATM   27  C   UNL     1      43.678 -12.292   6.844  1.00  0.00     0.055 A 
HETATM   28 CL   UNL     1      44.916 -11.431   7.684  1.00  0.00    -0.083 Cl
HETATM   29  C   UNL     1      43.784 -13.681   6.771  1.00  0.00     0.026 A 
HETATM   30  C   UNL     1      42.818 -14.427   6.087  1.00  0.00     0.011 A 
ENDBRANCH   6  23
TORSDOF 6
ENDMDL
MODEL 4
REMARK VINA RESULT:      -7.5      1.870      2.469
REMARK  6 active torsions:
REMARK  status: ('A' for Active; 'I' for Inactive)
REMARK    1  A    between atoms: O_2  and  C_3 
REMARK    2  A    between atoms: C_3  and  C_4 
REMARK    3  A    between atoms: C_4  and  N_5 
REMARK       I    between atoms: N_5  and  C_6 
REMARK    4  A    between atoms: C_6  and  C_7 
REMARK    5  A    between atoms: C_12  and  C_13 
REMARK    6  A    between atoms: C_22  and  C_23 
ROOT
HETATM    1  C   UNL     1      39.539 -13.108   0.049  1.00  0.00     0.148 A 
HETATM    2  N   UNL     1      39.759 -12.594   1.281  1.00  0.00    -0.165 NA
HETATM    3  N   UNL     1      40.836 -13.274   1.716  1.00  0.00    -0.240 N 
HETATM    4  C   UNL     1      41.376 -14.114   0.786  1.00  0.00     0.123 A 
HETATM    5  N   UNL     1      42.506 -14.805   1.022  1.00  0.00    -0.366 N 
HETATM    6  C   UNL     1      43.317 -14.627   2.218  1.00  0.00     0.118 C 
HETATM    7  C   UNL     1      42.896 -13.395   3.040  1.00  0.00     0.066 C 
HETATM    8  C   UNL     1      41.389 -13.074   3.039  1.00  0.00     0.221 C 
HETATM    9  C   UNL     1      40.537 -14.061  -0.296  1.00  0.00     0.088 A 
HETATM   10  H   UNL     1      42.893 -15.432   0.318  1.00  0.00     0.161 HD
ENDROOT
BRANCH   1  11
HETATM   11  C   UNL     1      38.412 -12.694  -0.801  1.00  0.00     0.272 C 
HETATM   12  N   UNL     1      37.860 -11.483  -0.448  1.00  0.00    -0.354 N 
HETATM   13  H   UNL     1      38.399 -10.934   0.217  1.00  0.00     0.162 HD
HETATM   14  O   UNL     1      38.017 -13.366  -1.749  1.00  0.00    -0.266 OA
BRANCH  12  15
HETATM   15  C   UNL     1      36.905 -10.817  -1.308  1.00  0.00     0.149 C 
BRANCH  15  16
HETATM   16  C   UNL     1      37.558  -9.740  -2.169  1.00  0.00     0.186 C 
BRANCH  16  17
HETATM   17  O   UNL     1      38.037 -10.336  -3.379  1.00  0.00    -0.394 OA
HETATM   18  C   UNL     1      39.276  -9.771  -3.784  1.00  0.00     0.201 C 
ENDBRANCH  16  17
ENDBRANCH  15  16
ENDBRANCH  12  15
ENDBRANCH   1  11
BRANCH   8  19
HETATM   19  C   UNL     1      40.597 -13.861   4.057  1.00  0.00     0.409 C 
HETATM   20  F   UNL     1      41.240 -14.048   5.224  1.00  0.00    -0.169 F 
HETATM   21  F   UNL     1      39.438 -13.210   4.344  1.00  0.00    -0.169 F 
HETATM   22  F   UNL     1      40.239 -15.079   3.591  1.00  0.00    -0.169 F 
ENDBRANCH   8  19
BRANCH   6  23
HETATM   23  C   UNL     1      43.437 -15.921   3.008  1.00  0.00    -0.034 A 
HETATM   24  C   UNL     1      43.352 -17.150   2.328  1.00  0.00     0.034 A 
HETATM   25  C   UNL     1      43.407 -18.367   3.020  1.00  0.00     0.056 A 
HETATM   26 CL   UNL     1      43.263 -19.821   2.097  1.00  0.00    -0.083 Cl
HETATM   27  C   UNL     1      43.560 -18.373   4.409  1.00  0.00     0.055 A 
HETATM   28 CL   UNL     1      43.631 -19.832   5.330  1.00  0.00    -0.083 Cl
HETATM   29  C   UNL     1      43.656 -17.162   5.096  1.00  0.00     0.026 A 
HETATM   30  C   UNL     1      43.587 -15.950   4.401  1.00  0.00     0.011 A 
ENDBRANCH   6  23
TORSDOF 6
ENDMDL
MODEL 5
REMARK VINA RESULT:      -7.4      1.627      2.245
REMARK  6 active torsions:
REMARK  status: ('A' for Active; 'I' for Inactive)
REMARK    1  A    between atoms: O_2  and  C_3 
REMARK    2  A    between atoms: C_3  and  C_4 
REMARK    3  A    between atoms: C_4  and  N_5 
REMARK       I    between atoms: N_5  and  C_6 
REMARK    4  A    between atoms: C_6  and  C_7 
REMARK    5  A    between atoms: C_12  and  C_13 
REMARK    6  A    between atoms: C_22  and  C_23 
ROOT
HETATM    1  C   UNL     1      39.665 -12.699   0.674  1.00  0.00     0.148 A 
HETATM    2  N   UNL     1      39.897 -12.367   1.965  1.00  0.00    -0.165 NA
HETATM    3  N   UNL     1      40.949 -13.136   2.301  1.00  0.00    -0.240 N 
HETATM    4  C   UNL     1      41.464 -13.858   1.263  1.00  0.00     0.123 A 
HETATM    5  N   UNL     1      42.570 -14.612   1.400  1.00  0.00    -0.366 N 
HETATM    6  C   UNL     1      43.382 -14.629   2.609  1.00  0.00     0.118 C 
HETATM    7  C   UNL     1      42.998 -13.508   3.594  1.00  0.00     0.066 C 
HETATM    8  C   UNL     1      41.504 -13.141   3.638  1.00  0.00     0.221 C 
HETATM    9  C   UNL     1      40.632 -13.628   0.200  1.00  0.00     0.088 A 
HETATM   10  H   UNL     1      42.939 -15.149   0.616  1.00  0.00     0.161 HD
ENDROOT
BRANCH   1  11
HETATM   11  C   UNL     1      38.555 -12.133  -0.110  1.00  0.00     0.272 C 
HETATM   12  N   UNL     1      38.699 -12.280  -1.471  1.00  0.00    -0.354 N 
HETATM   13  H   UNL     1      39.437 -12.915  -1.767  1.00  0.00     0.162 HD
HETATM   14  O   UNL     1      37.583 -11.596   0.413  1.00  0.00    -0.266 OA
BRANCH  12  15
HETATM   15  C   UNL     1      37.604 -11.995  -2.374  1.00  0.00     0.149 C 
BRANCH  15  16
HETATM   16  C   UNL     1      37.000 -13.264  -2.966  1.00  0.00     0.186 C 
BRANCH  16  17
HETATM   17  O   UNL     1      38.021 -13.986  -3.663  1.00  0.00    -0.394 OA
HETATM   18  C   UNL     1      38.347 -15.200  -3.001  1.00  0.00     0.201 C 
ENDBRANCH  16  17
ENDBRANCH  15  16
ENDBRANCH  12  15
ENDBRANCH   1  11
BRANCH   8  19
HETATM   19  C   UNL     1      40.681 -14.033   4.538  1.00  0.00     0.409 C 
HETATM   20  F   UNL     1      40.354 -15.216   3.984  1.00  0.00    -0.169 F 
HETATM   21  F   UNL     1      41.372 -14.308   5.675  1.00  0.00    -0.169 F 
HETATM   22  F   UNL     1      39.532 -13.438   4.930  1.00  0.00    -0.169 F 
ENDBRANCH   8  19
BRANCH   6  23
HETATM   23  C   UNL     1      43.456 -16.022   3.212  1.00  0.00    -0.034 A 
HETATM   24  C   UNL     1      43.534 -16.162   4.610  1.00  0.00     0.034 A 
HETATM   25  C   UNL     1      43.654 -17.424   5.208  1.00  0.00     0.056 A 
HETATM   26 CL   UNL     1      43.773 -17.486   6.931  1.00  0.00    -0.083 Cl
HETATM   27  C   UNL     1      43.687 -18.572   4.412  1.00  0.00     0.055 A 
HETATM   28 CL   UNL     1      43.839 -20.159   5.075  1.00  0.00    -0.083 Cl
HETATM   29  C   UNL     1      43.602 -18.450   3.025  1.00  0.00     0.026 A 
HETATM   30  C   UNL     1      43.495 -17.187   2.433  1.00  0.00     0.011 A 
ENDBRANCH   6  23
TORSDOF 6
ENDMDL
MODEL 6
REMARK VINA RESULT:      -7.4      4.521      7.861
REMARK  6 active torsions:
REMARK  status: ('A' for Active; 'I' for Inactive)
REMARK    1  A    between atoms: O_2  and  C_3 
REMARK    2  A    between atoms: C_3  and  C_4 
REMARK    3  A    between atoms: C_4  and  N_5 
REMARK       I    between atoms: N_5  and  C_6 
REMARK    4  A    between atoms: C_6  and  C_7 
REMARK    5  A    between atoms: C_12  and  C_13 
REMARK    6  A    between atoms: C_22  and  C_23 
ROOT
HETATM    1  C   UNL     1      41.994 -15.922   3.726  1.00  0.00     0.148 A 
HETATM    2  N   UNL     1      42.361 -14.657   4.033  1.00  0.00    -0.165 NA
HETATM    3  N   UNL     1      41.351 -13.912   3.549  1.00  0.00    -0.240 N 
HETATM    4  C   UNL     1      40.313 -14.642   3.047  1.00  0.00     0.123 A 
HETATM    5  N   UNL     1      39.183 -14.061   2.602  1.00  0.00    -0.366 N 
HETATM    6  C   UNL     1      38.913 -12.636   2.731  1.00  0.00     0.118 C 
HETATM    7  C   UNL     1      39.920 -11.924   3.654  1.00  0.00     0.066 C 
HETATM    8  C   UNL     1      41.361 -12.465   3.614  1.00  0.00     0.221 C 
HETATM    9  C   UNL     1      40.712 -15.950   3.111  1.00  0.00     0.088 A 
HETATM   10  H   UNL     1      38.419 -14.621   2.227  1.00  0.00     0.161 HD
ENDROOT
BRANCH   1  11
HETATM   11  C   UNL     1      42.834 -17.093   4.025  1.00  0.00     0.272 C 
HETATM   12  N   UNL     1      43.132 -17.864   2.924  1.00  0.00    -0.354 N 
HETATM   13  H   UNL     1      42.909 -17.445   2.024  1.00  0.00     0.162 HD
HETATM   14  O   UNL     1      43.242 -17.342   5.156  1.00  0.00    -0.266 OA
BRANCH  12  15
HETATM   15  C   UNL     1      44.128 -18.911   2.992  1.00  0.00     0.149 C 
BRANCH  15  16
HETATM   16  C   UNL     1      43.656 -20.199   2.325  1.00  0.00     0.186 C 
BRANCH  16  17
HETATM   17  O   UNL     1      43.884 -21.297   3.214  1.00  0.00    -0.394 OA
HETATM   18  C   UNL     1      44.054 -20.857   4.554  1.00  0.00     0.201 C 
ENDBRANCH  16  17
ENDBRANCH  15  16
ENDBRANCH  12  15
ENDBRANCH   1  11
BRANCH   8  19
HETATM   19  C   UNL     1      42.195 -11.901   2.488  1.00  0.00     0.409 C 
HETATM   20  F   UNL     1      41.767 -10.707   2.036  1.00  0.00    -0.169 F 
HETATM   21  F   UNL     1      43.478 -11.729   2.902  1.00  0.00    -0.169 F 
HETATM   22  F   UNL     1      42.251 -12.739   1.428  1.00  0.00    -0.169 F 
ENDBRANCH   8  19
BRANCH   6  23
HETATM   23  C   UNL     1      38.707 -11.983   1.373  1.00  0.00    -0.034 A 
HETATM   24  C   UNL     1      39.264 -12.586   0.230  1.00  0.00     0.034 A 
HETATM   25  C   UNL     1      39.143 -11.994  -1.034  1.00  0.00     0.056 A 
HETATM   26 CL   UNL     1      39.889 -12.798  -2.370  1.00  0.00    -0.083 Cl
HETATM   27  C   UNL     1      38.449 -10.790  -1.177  1.00  0.00     0.055 A 
HETATM   28 CL   UNL     1      38.262  -9.999  -2.701  1.00  0.00    -0.083 Cl
HETATM   29  C   UNL     1      37.883 -10.185  -0.054  1.00  0.00     0.026 A 
HETATM   30  C   UNL     1      38.018 -10.773   1.207  1.00  0.00     0.011 A 
ENDBRANCH   6  23
TORSDOF 6
ENDMDL
MODEL 7
REMARK VINA RESULT:      -7.3      4.756      7.223
REMARK  6 active torsions:
REMARK  status: ('A' for Active; 'I' for Inactive)
REMARK    1  A    between atoms: O_2  and  C_3 
REMARK    2  A    between atoms: C_3  and  C_4 
REMARK    3  A    between atoms: C_4  and  N_5 
REMARK       I    between atoms: N_5  and  C_6 
REMARK    4  A    between atoms: C_6  and  C_7 
REMARK    5  A    between atoms: C_12  and  C_13 
REMARK    6  A    between atoms: C_22  and  C_23 
ROOT
HETATM    1  C   UNL     1      43.870 -11.592   6.754  1.00  0.00     0.148 A 
HETATM    2  N   UNL     1      43.152 -11.359   5.631  1.00  0.00    -0.165 NA
HETATM    3  N   UNL     1      42.638 -12.566   5.333  1.00  0.00    -0.240 N 
HETATM    4  C   UNL     1      42.901 -13.528   6.264  1.00  0.00     0.123 A 
HETATM    5  N   UNL     1      42.389 -14.770   6.169  1.00  0.00    -0.366 N 
HETATM    6  C   UNL     1      41.420 -15.160   5.155  1.00  0.00     0.118 C 
HETATM    7  C   UNL     1      40.851 -13.953   4.385  1.00  0.00     0.066 C 
HETATM    8  C   UNL     1      41.832 -12.789   4.150  1.00  0.00     0.221 C 
HETATM    9  C   UNL     1      43.730 -12.942   7.182  1.00  0.00     0.088 A 
HETATM   10  H   UNL     1      42.599 -15.478   6.871  1.00  0.00     0.161 HD
ENDROOT
BRANCH   1  11
HETATM   11  C   UNL     1      44.663 -10.552   7.426  1.00  0.00     0.272 C 
HETATM   12  N   UNL     1      43.966  -9.845   8.380  1.00  0.00    -0.354 N 
HETATM   13  H   UNL     1      43.065 -10.237   8.643  1.00  0.00     0.162 HD
HETATM   14  O   UNL     1      45.846 -10.350   7.166  1.00  0.00    -0.266 OA
BRANCH  12  15
HETATM   15  C   UNL     1      44.645  -8.951   9.294  1.00  0.00     0.149 C 
BRANCH  15  16
HETATM   16  C   UNL     1      44.283  -9.231  10.749  1.00  0.00     0.186 C 
BRANCH  16  17
HETATM   17  O   UNL     1      43.459  -8.168  11.238  1.00  0.00    -0.394 OA
HETATM   18  C   UNL     1      43.137  -8.347  12.610  1.00  0.00     0.201 C 
ENDBRANCH  16  17
ENDBRANCH  15  16
ENDBRANCH  12  15
ENDBRANCH   1  11
BRANCH   8  19
HETATM   19  C   UNL     1      42.721 -12.972   2.943  1.00  0.00     0.409 C 
HETATM   20  F   UNL     1      42.068 -13.384   1.840  1.00  0.00    -0.169 F 
HETATM   21  F   UNL     1      43.325 -11.796   2.629  1.00  0.00    -0.169 F 
HETATM   22  F   UNL     1      43.718 -13.856   3.177  1.00  0.00    -0.169 F 
ENDBRANCH   8  19
BRANCH   6  23
HETATM   23  C   UNL     1      41.948 -16.291   4.286  1.00  0.00    -0.034 A 
HETATM   24  C   UNL     1      42.908 -17.173   4.816  1.00  0.00     0.034 A 
HETATM   25  C   UNL     1      43.459 -18.198   4.037  1.00  0.00     0.056 A 
HETATM   26 CL   UNL     1      44.653 -19.209   4.771  1.00  0.00    -0.083 Cl
HETATM   27  C   UNL     1      43.048 -18.366   2.712  1.00  0.00     0.055 A 
HETATM   28 CL   UNL     1      43.685 -19.602   1.689  1.00  0.00    -0.083 Cl
HETATM   29  C   UNL     1      42.090 -17.505   2.175  1.00  0.00     0.026 A 
HETATM   30  C   UNL     1      41.553 -16.474   2.953  1.00  0.00     0.011 A 
ENDBRANCH   6  23
TORSDOF 6
ENDMDL
MODEL 8
REMARK VINA RESULT:      -7.3     15.448     17.245
REMARK  6 active torsions:
REMARK  status: ('A' for Active; 'I' for Inactive)
REMARK    1  A    between atoms: O_2  and  C_3 
REMARK    2  A    between atoms: C_3  and  C_4 
REMARK    3  A    between atoms: C_4  and  N_5 
REMARK       I    between atoms: N_5  and  C_6 
REMARK    4  A    between atoms: C_6  and  C_7 
REMARK    5  A    between atoms: C_12  and  C_13 
REMARK    6  A    between atoms: C_22  and  C_23 
ROOT
HETATM    1  C   UNL     1      47.205 -30.019   3.163  1.00  0.00     0.148 A 
HETATM    2  N   UNL     1      48.184 -29.665   2.298  1.00  0.00    -0.165 NA
HETATM    3  N   UNL     1      47.507 -29.197   1.234  1.00  0.00    -0.240 N 
HETATM    4  C   UNL     1      46.156 -29.134   1.418  1.00  0.00     0.123 A 
HETATM    5  N   UNL     1      45.335 -28.608   0.490  1.00  0.00    -0.366 N 
HETATM    6  C   UNL     1      45.811 -27.952  -0.720  1.00  0.00     0.118 C 
HETATM    7  C   UNL     1      47.329 -27.689  -0.691  1.00  0.00     0.066 C 
HETATM    8  C   UNL     1      48.177 -28.752   0.030  1.00  0.00     0.221 C 
HETATM    9  C   UNL     1      45.920 -29.695   2.644  1.00  0.00     0.088 A 
HETATM   10  H   UNL     1      44.328 -28.573   0.641  1.00  0.00     0.161 HD
ENDROOT
BRANCH   1  11
HETATM   11  C   UNL     1      47.477 -30.638   4.469  1.00  0.00     0.272 C 
HETATM   12  N   UNL     1      46.364 -30.774   5.267  1.00  0.00    -0.354 N 
HETATM   13  H   UNL     1      45.472 -30.616   4.804  1.00  0.00     0.162 HD
HETATM   14  O   UNL     1      48.597 -31.013   4.802  1.00  0.00    -0.266 OA
BRANCH  12  15
HETATM   15  C   UNL     1      46.404 -31.566   6.478  1.00  0.00     0.149 C 
BRANCH  15  16
HETATM   16  C   UNL     1      45.066 -32.238   6.771  1.00  0.00     0.186 C 
BRANCH  16  17
HETATM   17  O   UNL     1      44.413 -31.536   7.833  1.00  0.00    -0.394 OA
HETATM   18  C   UNL     1      43.032 -31.862   7.902  1.00  0.00     0.201 C 
ENDBRANCH  16  17
ENDBRANCH  15  16
ENDBRANCH  12  15
ENDBRANCH   1  11
BRANCH   8  19
HETATM   19  C   UNL     1      48.532 -29.940  -0.835  1.00  0.00     0.409 C 
HETATM   20  F   UNL     1      49.769 -30.425  -0.616  1.00  0.00    -0.169 F 
HETATM   21  F   UNL     1      47.662 -30.958  -0.603  1.00  0.00    -0.169 F 
HETATM   22  F   UNL     1      48.436 -29.655  -2.153  1.00  0.00    -0.169 F 
ENDBRANCH   8  19
BRANCH   6  23
HETATM   23  C   UNL     1      45.299 -28.648  -1.970  1.00  0.00    -0.034 A 
HETATM   24  C   UNL     1      44.829 -29.971  -1.876  1.00  0.00     0.034 A 
HETATM   25  C   UNL     1      44.394 -30.669  -3.010  1.00  0.00     0.056 A 
HETATM   26 CL   UNL     1      43.864 -32.299  -2.793  1.00  0.00    -0.083 Cl
HETATM   27  C   UNL     1      44.412 -30.047  -4.261  1.00  0.00     0.055 A 
HETATM   28 CL   UNL     1      43.898 -30.845  -5.704  1.00  0.00    -0.083 Cl
HETATM   29  C   UNL     1      44.867 -28.732  -4.369  1.00  0.00     0.026 A 
HETATM   30  C   UNL     1      45.312 -28.045  -3.236  1.00  0.00     0.011 A 
ENDBRANCH   6  23
TORSDOF 6
ENDMDL
MODEL 9
REMARK VINA RESULT:      -7.3      4.766      7.604
REMARK  6 active torsions:
REMARK  status: ('A' for Active; 'I' for Inactive)
REMARK    1  A    between atoms: O_2  and  C_3 
REMARK    2  A    between atoms: C_3  and  C_4 
REMARK    3  A    between atoms: C_4  and  N_5 
REMARK       I    between atoms: N_5  and  C_6 
REMARK    4  A    between atoms: C_6  and  C_7 
REMARK    5  A    between atoms: C_12  and  C_13 
REMARK    6  A    between atoms: C_22  and  C_23 
ROOT
HETATM    1  C   UNL     1      43.274 -11.780   6.198  1.00  0.00     0.148 A 
HETATM    2  N   UNL     1      42.813 -13.049   6.272  1.00  0.00    -0.165 NA
HETATM    3  N   UNL     1      42.712 -13.421   4.982  1.00  0.00    -0.240 N 
HETATM    4  C   UNL     1      43.186 -12.495   4.098  1.00  0.00     0.123 A 
HETATM    5  N   UNL     1      43.244 -12.738   2.776  1.00  0.00    -0.366 N 
HETATM    6  C   UNL     1      42.933 -14.033   2.187  1.00  0.00     0.118 C 
HETATM    7  C   UNL     1      42.798 -15.147   3.243  1.00  0.00     0.066 C 
HETATM    8  C   UNL     1      42.195 -14.716   4.592  1.00  0.00     0.221 C 
HETATM    9  C   UNL     1      43.524 -11.401   4.849  1.00  0.00     0.088 A 
HETATM   10  H   UNL     1      43.596 -12.034   2.129  1.00  0.00     0.161 HD
ENDROOT
BRANCH   1  11
HETATM   11  C   UNL     1      43.494 -10.938   7.385  1.00  0.00     0.272 C 
HETATM   12  N   UNL     1      44.725 -11.113   7.975  1.00  0.00    -0.354 N 
HETATM   13  H   UNL     1      45.400 -11.645   7.430  1.00  0.00     0.162 HD
HETATM   14  O   UNL     1      42.656 -10.141   7.794  1.00  0.00    -0.266 OA
BRANCH  12  15
HETATM   15  C   UNL     1      45.198 -10.210   9.003  1.00  0.00     0.149 C 
BRANCH  15  16
HETATM   16  C   UNL     1      46.064  -9.092   8.432  1.00  0.00     0.186 C 
BRANCH  16  17
HETATM   17  O   UNL     1      45.271  -7.908   8.299  1.00  0.00    -0.394 OA
HETATM   18  C   UNL     1      44.321  -7.796   9.349  1.00  0.00     0.201 C 
ENDBRANCH  16  17
ENDBRANCH  15  16
ENDBRANCH  12  15
ENDBRANCH   1  11
BRANCH   8  19
HETATM   19  C   UNL     1      40.684 -14.697   4.609  1.00  0.00     0.409 C 
HETATM   20  F   UNL     1      40.145 -13.591   4.063  1.00  0.00    -0.169 F 
HETATM   21  F   UNL     1      40.200 -15.758   3.911  1.00  0.00    -0.169 F 
HETATM   22  F   UNL     1      40.189 -14.814   5.862  1.00  0.00    -0.169 F 
ENDBRANCH   8  19
BRANCH   6  23
HETATM   23  C   UNL     1      41.782 -13.935   1.199  1.00  0.00    -0.034 A 
HETATM   24  C   UNL     1      41.422 -12.674   0.688  1.00  0.00     0.034 A 
HETATM   25  C   UNL     1      40.336 -12.529  -0.185  1.00  0.00     0.056 A 
HETATM   26 CL   UNL     1      39.956 -10.934  -0.733  1.00  0.00    -0.083 Cl
HETATM   27  C   UNL     1      39.596 -13.649  -0.572  1.00  0.00     0.055 A 
HETATM   28 CL   UNL     1      38.243 -13.548  -1.639  1.00  0.00    -0.083 Cl
HETATM   29  C   UNL     1      39.947 -14.907  -0.080  1.00  0.00     0.026 A 
HETATM   30  C   UNL     1      41.023 -15.045   0.801  1.00  0.00     0.011 A 
ENDBRANCH   6  23
TORSDOF 6
ENDMDL
MODEL 10
REMARK VINA RESULT:      -7.1      4.821      7.857
REMARK  6 active torsions:
REMARK  status: ('A' for Active; 'I' for Inactive)
REMARK    1  A    between atoms: O_2  and  C_3 
REMARK    2  A    between atoms: C_3  and  C_4 
REMARK    3  A    between atoms: C_4  and  N_5 
REMARK       I    between atoms: N_5  and  C_6 
REMARK    4  A    between atoms: C_6  and  C_7 
REMARK    5  A    between atoms: C_12  and  C_13 
REMARK    6  A    between atoms: C_22  and  C_23 
ROOT
HETATM    1  C   UNL     1      44.039 -11.824   6.908  1.00  0.00     0.148 A 
HETATM    2  N   UNL     1      43.476 -13.052   6.844  1.00  0.00    -0.165 NA
HETATM    3  N   UNL     1      43.174 -13.190   5.540  1.00  0.00    -0.240 N 
HETATM    4  C   UNL     1      43.611 -12.162   4.756  1.00  0.00     0.123 A 
HETATM    5  N   UNL     1      43.472 -12.179   3.417  1.00  0.00    -0.366 N 
HETATM    6  C   UNL     1      42.969 -13.329   2.680  1.00  0.00     0.118 C 
HETATM    7  C   UNL     1      42.871 -14.594   3.553  1.00  0.00     0.066 C 
HETATM    8  C   UNL     1      42.492 -14.360   5.027  1.00  0.00     0.221 C 
HETATM    9  C   UNL     1      44.144 -11.239   5.615  1.00  0.00     0.088 A 
HETATM   10  H   UNL     1      43.801 -11.400   2.847  1.00  0.00     0.161 HD
ENDROOT
BRANCH   1  11
HETATM   11  C   UNL     1      44.489 -11.215   8.169  1.00  0.00     0.272 C 
HETATM   12  N   UNL     1      43.467 -10.903   9.037  1.00  0.00    -0.354 N 
HETATM   13  H   UNL     1      42.558 -11.294   8.800  1.00  0.00     0.162 HD
HETATM   14  O   UNL     1      45.674 -11.023   8.424  1.00  0.00    -0.266 OA
BRANCH  12  15
HETATM   15  C   UNL     1      43.738 -10.517  10.405  1.00  0.00     0.149 C 
BRANCH  15  16
HETATM   16  C   UNL     1      43.056  -9.205  10.780  1.00  0.00     0.186 C 
BRANCH  16  17
HETATM   17  O   UNL     1      41.699  -9.239  10.326  1.00  0.00    -0.394 OA
HETATM   18  C   UNL     1      40.819  -9.690  11.346  1.00  0.00     0.201 C 
ENDBRANCH  16  17
ENDBRANCH  15  16
ENDBRANCH  12  15
ENDBRANCH   1  11
BRANCH   8  19
HETATM   19  C   UNL     1      41.005 -14.240   5.264  1.00  0.00     0.409 C 
HETATM   20  F   UNL     1      40.602 -14.715   6.457  1.00  0.00    -0.169 F 
HETATM   21  F   UNL     1      40.632 -12.934   5.212  1.00  0.00    -0.169 F 
HETATM   22  F   UNL     1      40.285 -14.875   4.311  1.00  0.00    -0.169 F 
ENDBRANCH   8  19
BRANCH   6  23
HETATM   23  C   UNL     1      41.712 -12.984   1.898  1.00  0.00    -0.034 A 
HETATM   24  C   UNL     1      41.198 -13.917   0.979  1.00  0.00     0.034 A 
HETATM   25  C   UNL     1      40.071 -13.622   0.199  1.00  0.00     0.056 A 
HETATM   26 CL   UNL     1      39.536 -14.824  -0.921  1.00  0.00    -0.083 Cl
HETATM   27  C   UNL     1      39.432 -12.388   0.336  1.00  0.00     0.055 A 
HETATM   28 CL   UNL     1      38.043 -11.951  -0.592  1.00  0.00    -0.083 Cl
HETATM   29  C   UNL     1      39.925 -11.455   1.250  1.00  0.00     0.026 A 
HETATM   30  C   UNL     1      41.058 -11.749   2.015  1.00  0.00     0.011 A 
ENDBRANCH   6  23
TORSDOF 6
ENDMDL
