MODEL 1
REMARK VINA RESULT:      -7.4      0.000      0.000
REMARK  9 active torsions:
REMARK  status: ('A' for Active; 'I' for Inactive)
REMARK    1  A    between atoms: C_2  and  N_3 
REMARK       I    between atoms: N_3  and  C_4 
REMARK    2  A    between atoms: C_4  and  C_5 
REMARK    3  A    between atoms: C_5  and  S_6 
REMARK    4  A    between atoms: S_6  and  C_7 
REMARK    5  A    between atoms: N_8  and  C_9 
REMARK    6  A    between atoms: C_9  and  C_10 
REMARK    7  A    between atoms: C_10  and  C_11 
REMARK    8  A    between atoms: C_17  and  C_18 
REMARK    9  A    between atoms: C_21  and  O_22 
ROOT
HETATM    1  C   UNL     1      42.813 -11.175   6.611  1.00  0.00     0.192 A 
HETATM    2  N   UNL     1      42.502 -12.401   6.079  1.00  0.00    -0.307 N 
HETATM    3  C   UNL     1      43.361 -13.295   6.693  1.00  0.00     0.164 A 
HETATM    4  N   UNL     1      44.159 -12.609   7.497  1.00  0.00    -0.128 NA
HETATM    5  N   UNL     1      43.836 -11.287   7.421  1.00  0.00    -0.122 NA
ENDROOT
BRANCH   1   6
HETATM    6  S   UNL     1      41.954  -9.712   6.277  1.00  0.00    -0.081 SA
BRANCH   6   7
HETATM    7  C   UNL     1      41.099  -9.432   7.855  1.00  0.00     0.185 C 
BRANCH   7   8
HETATM    8  C   UNL     1      42.051  -8.895   8.910  1.00  0.00     0.227 C 
HETATM    9  N   UNL     1      42.456  -9.829   9.841  1.00  0.00    -0.357 N 
HETATM   10  H   UNL     1      41.856 -10.650   9.949  1.00  0.00     0.162 HD
HETATM   11  O   UNL     1      42.437  -7.729   8.911  1.00  0.00    -0.273 OA
BRANCH   9  12
HETATM   12  C   UNL     1      43.306  -9.485  10.970  1.00  0.00     0.076 C 
HETATM   13  C   UNL     1      44.764  -9.765  10.622  1.00  0.00     0.032 C 
HETATM   14  C   UNL     1      42.893 -10.256  12.222  1.00  0.00     0.032 C 
ENDBRANCH   9  12
ENDBRANCH   7   8
ENDBRANCH   6   7
ENDBRANCH   1   6
BRANCH   2  15
HETATM   15  C   UNL     1      41.455 -12.683   5.115  1.00  0.00     0.137 C 
BRANCH  15  16
HETATM   16  C   UNL     1      42.010 -12.778   3.689  1.00  0.00     0.059 C 
BRANCH  16  17
HETATM   17  C   UNL     1      42.179 -14.197   3.205  1.00  0.00    -0.057 A 
HETATM   18  C   UNL     1      43.241 -14.546   2.358  1.00  0.00     0.007 A 
HETATM   19  C   UNL     1      43.410 -15.868   1.940  1.00  0.00     0.001 A 
HETATM   20  C   UNL     1      42.527 -16.855   2.373  1.00  0.00     0.000 A 
HETATM   21  C   UNL     1      41.475 -16.522   3.222  1.00  0.00     0.001 A 
HETATM   22  C   UNL     1      41.301 -15.200   3.637  1.00  0.00     0.007 A 
ENDBRANCH  16  17
ENDBRANCH  15  16
ENDBRANCH   2  15
BRANCH   3  23
HETATM   23  C   UNL     1      43.380 -14.755   6.584  1.00  0.00     0.012 A 
HETATM   24  C   UNL     1      42.366 -15.578   7.082  1.00  0.00     0.018 A 
HETATM   25  C   UNL     1      42.437 -16.967   6.922  1.00  0.00     0.037 A 
HETATM   26  C   UNL     1      43.503 -17.557   6.241  1.00  0.00     0.068 A 
HETATM   27  C   UNL     1      44.512 -16.746   5.727  1.00  0.00     0.037 A 
HETATM   28  C   UNL     1      44.446 -15.358   5.896  1.00  0.00     0.018 A 
BRANCH  26  29
HETATM   29  O   UNL     1      43.443 -18.920   6.143  1.00  0.00    -0.356 OA
HETATM   30  C   UNL     1      44.074 -19.509   5.013  1.00  0.00     0.210 C 
ENDBRANCH  26  29
ENDBRANCH   3  23
TORSDOF 9
ENDMDL
MODEL 2
REMARK VINA RESULT:      -7.2      3.873      5.939
REMARK  9 active torsions:
REMARK  status: ('A' for Active; 'I' for Inactive)
REMARK    1  A    between atoms: C_2  and  N_3 
REMARK       I    between atoms: N_3  and  C_4 
REMARK    2  A    between atoms: C_4  and  C_5 
REMARK    3  A    between atoms: C_5  and  S_6 
REMARK    4  A    between atoms: S_6  and  C_7 
REMARK    5  A    between atoms: N_8  and  C_9 
REMARK    6  A    between atoms: C_9  and  C_10 
REMARK    7  A    between atoms: C_10  and  C_11 
REMARK    8  A    between atoms: C_17  and  C_18 
REMARK    9  A    between atoms: C_21  and  O_22 
ROOT
HETATM    1  C   UNL     1      42.001 -13.114   3.976  1.00  0.00     0.192 A 
HETATM    2  N   UNL     1      41.990 -13.740   2.756  1.00  0.00    -0.307 N 
HETATM    3  C   UNL     1      40.977 -13.129   2.039  1.00  0.00     0.164 A 
HETATM    4  N   UNL     1      40.402 -12.233   2.827  1.00  0.00    -0.128 NA
HETATM    5  N   UNL     1      41.022 -12.247   4.041  1.00  0.00    -0.122 NA
ENDROOT
BRANCH   1   6
HETATM    6  S   UNL     1      43.161 -13.411   5.224  1.00  0.00    -0.081 SA
BRANCH   6   7
HETATM    7  C   UNL     1      43.020 -11.893   6.211  1.00  0.00     0.185 C 
BRANCH   7   8
HETATM    8  C   UNL     1      44.313 -11.595   6.951  1.00  0.00     0.227 C 
HETATM    9  N   UNL     1      44.165 -10.777   8.053  1.00  0.00    -0.357 N 
HETATM   10  H   UNL     1      43.325 -10.197   8.076  1.00  0.00     0.162 HD
HETATM   11  O   UNL     1      45.392 -12.067   6.600  1.00  0.00    -0.273 OA
BRANCH   9  12
HETATM   12  C   UNL     1      45.299 -10.322   8.842  1.00  0.00     0.076 C 
HETATM   13  C   UNL     1      44.861 -10.078  10.283  1.00  0.00     0.032 C 
HETATM   14  C   UNL     1      45.910  -9.056   8.244  1.00  0.00     0.032 C 
ENDBRANCH   9  12
ENDBRANCH   7   8
ENDBRANCH   6   7
ENDBRANCH   1   6
BRANCH   2  15
HETATM   15  C   UNL     1      42.893 -14.787   2.315  1.00  0.00     0.137 C 
BRANCH  15  16
HETATM   16  C   UNL     1      42.193 -16.149   2.250  1.00  0.00     0.059 C 
BRANCH  16  17
HETATM   17  C   UNL     1      42.962 -17.252   2.932  1.00  0.00    -0.057 A 
HETATM   18  C   UNL     1      43.496 -17.071   4.216  1.00  0.00     0.007 A 
HETATM   19  C   UNL     1      44.178 -18.109   4.854  1.00  0.00     0.001 A 
HETATM   20  C   UNL     1      44.325 -19.341   4.221  1.00  0.00     0.000 A 
HETATM   21  C   UNL     1      43.791 -19.536   2.949  1.00  0.00     0.001 A 
HETATM   22  C   UNL     1      43.113 -18.499   2.308  1.00  0.00     0.007 A 
ENDBRANCH  16  17
ENDBRANCH  15  16
ENDBRANCH   2  15
BRANCH   3  23
HETATM   23  C   UNL     1      40.611 -13.327   0.635  1.00  0.00     0.012 A 
HETATM   24  C   UNL     1      39.851 -14.410   0.184  1.00  0.00     0.018 A 
HETATM   25  C   UNL     1      39.516 -14.525  -1.171  1.00  0.00     0.037 A 
HETATM   26  C   UNL     1      39.909 -13.553  -2.093  1.00  0.00     0.068 A 
HETATM   27  C   UNL     1      40.654 -12.463  -1.651  1.00  0.00     0.037 A 
HETATM   28  C   UNL     1      40.997 -12.352  -0.298  1.00  0.00     0.018 A 
BRANCH  26  29
HETATM   29  O   UNL     1      39.505 -13.780  -3.379  1.00  0.00    -0.356 OA
HETATM   30  C   UNL     1      38.335 -14.570  -3.553  1.00  0.00     0.210 C 
ENDBRANCH  26  29
ENDBRANCH   3  23
TORSDOF 9
ENDMDL
MODEL 3
REMARK VINA RESULT:      -7.0      2.125      2.798
REMARK  9 active torsions:
REMARK  status: ('A' for Active; 'I' for Inactive)
REMARK    1  A    between atoms: C_2  and  N_3 
REMARK       I    between atoms: N_3  and  C_4 
REMARK    2  A    between atoms: C_4  and  C_5 
REMARK    3  A    between atoms: C_5  and  S_6 
REMARK    4  A    between atoms: S_6  and  C_7 
REMARK    5  A    between atoms: N_8  and  C_9 
REMARK    6  A    between atoms: C_9  and  C_10 
REMARK    7  A    between atoms: C_10  and  C_11 
REMARK    8  A    between atoms: C_17  and  C_18 
REMARK    9  A    between atoms: C_21  and  O_22 
ROOT
HETATM    1  C   UNL     1      42.011 -11.289   5.481  1.00  0.00     0.192 A 
HETATM    2  N   UNL     1      41.625 -12.491   4.944  1.00  0.00    -0.307 N 
HETATM    3  C   UNL     1      42.768 -13.023   4.374  1.00  0.00     0.164 A 
HETATM    4  N   UNL     1      43.748 -12.147   4.530  1.00  0.00    -0.128 NA
HETATM    5  N   UNL     1      43.267 -11.056   5.193  1.00  0.00    -0.122 NA
ENDROOT
BRANCH   1   6
HETATM    6  S   UNL     1      40.991 -10.259   6.423  1.00  0.00    -0.081 SA
BRANCH   6   7
HETATM    7  C   UNL     1      41.642  -8.619   5.991  1.00  0.00     0.185 C 
BRANCH   7   8
HETATM    8  C   UNL     1      42.503  -8.056   7.109  1.00  0.00     0.227 C 
HETATM    9  N   UNL     1      43.272  -8.994   7.766  1.00  0.00    -0.357 N 
HETATM   10  H   UNL     1      42.963  -9.965   7.691  1.00  0.00     0.162 HD
HETATM   11  O   UNL     1      42.519  -6.857   7.381  1.00  0.00    -0.273 OA
BRANCH   9  12
HETATM   12  C   UNL     1      44.102  -8.656   8.911  1.00  0.00     0.076 C 
HETATM   13  C   UNL     1      45.575  -8.803   8.543  1.00  0.00     0.032 C 
HETATM   14  C   UNL     1      43.757  -9.531  10.115  1.00  0.00     0.032 C 
ENDBRANCH   9  12
ENDBRANCH   7   8
ENDBRANCH   6   7
ENDBRANCH   1   6
BRANCH   2  15
HETATM   15  C   UNL     1      40.301 -13.083   5.016  1.00  0.00     0.137 C 
BRANCH  15  16
HETATM   16  C   UNL     1      39.432 -12.670   3.823  1.00  0.00     0.059 C 
BRANCH  16  17
HETATM   17  C   UNL     1      39.629 -13.540   2.606  1.00  0.00    -0.057 A 
HETATM   18  C   UNL     1      39.912 -12.973   1.355  1.00  0.00     0.007 A 
HETATM   19  C   UNL     1      40.127 -13.787   0.241  1.00  0.00     0.001 A 
HETATM   20  C   UNL     1      40.071 -15.173   0.367  1.00  0.00     0.000 A 
HETATM   21  C   UNL     1      39.801 -15.748   1.607  1.00  0.00     0.001 A 
HETATM   22  C   UNL     1      39.582 -14.936   2.722  1.00  0.00     0.007 A 
ENDBRANCH  16  17
ENDBRANCH  15  16
ENDBRANCH   2  15
BRANCH   3  23
HETATM   23  C   UNL     1      42.950 -14.344   3.770  1.00  0.00     0.012 A 
HETATM   24  C   UNL     1      42.774 -15.542   4.469  1.00  0.00     0.018 A 
HETATM   25  C   UNL     1      42.941 -16.772   3.821  1.00  0.00     0.037 A 
HETATM   26  C   UNL     1      43.259 -16.831   2.463  1.00  0.00     0.068 A 
HETATM   27  C   UNL     1      43.421 -15.644   1.753  1.00  0.00     0.037 A 
HETATM   28  C   UNL     1      43.264 -14.414   2.402  1.00  0.00     0.018 A 
BRANCH  26  29
HETATM   29  O   UNL     1      43.379 -18.093   1.952  1.00  0.00    -0.356 OA
HETATM   30  C   UNL     1      43.986 -19.068   2.792  1.00  0.00     0.210 C 
ENDBRANCH  26  29
ENDBRANCH   3  23
TORSDOF 9
ENDMDL
MODEL 4
REMARK VINA RESULT:      -6.9      3.026      4.816
REMARK  9 active torsions:
REMARK  status: ('A' for Active; 'I' for Inactive)
REMARK    1  A    between atoms: C_2  and  N_3 
REMARK       I    between atoms: N_3  and  C_4 
REMARK    2  A    between atoms: C_4  and  C_5 
REMARK    3  A    between atoms: C_5  and  S_6 
REMARK    4  A    between atoms: S_6  and  C_7 
REMARK    5  A    between atoms: N_8  and  C_9 
REMARK    6  A    between atoms: C_9  and  C_10 
REMARK    7  A    between atoms: C_10  and  C_11 
REMARK    8  A    between atoms: C_17  and  C_18 
REMARK    9  A    between atoms: C_21  and  O_22 
ROOT
HETATM    1  C   UNL     1      42.496 -12.515   5.232  1.00  0.00     0.192 A 
HETATM    2  N   UNL     1      42.389 -13.454   4.238  1.00  0.00    -0.307 N 
HETATM    3  C   UNL     1      41.315 -13.050   3.465  1.00  0.00     0.164 A 
HETATM    4  N   UNL     1      40.799 -11.963   4.018  1.00  0.00    -0.128 NA
HETATM    5  N   UNL     1      41.518 -11.649   5.134  1.00  0.00    -0.122 NA
ENDROOT
BRANCH   1   6
HETATM    6  S   UNL     1      43.758 -12.472   6.413  1.00  0.00    -0.081 SA
BRANCH   6   7
HETATM    7  C   UNL     1      43.430 -10.883   7.229  1.00  0.00     0.185 C 
BRANCH   7   8
HETATM    8  C   UNL     1      44.195 -10.766   8.536  1.00  0.00     0.227 C 
HETATM    9  N   UNL     1      43.461 -10.248   9.584  1.00  0.00    -0.357 N 
HETATM   10  H   UNL     1      42.637  -9.699   9.330  1.00  0.00     0.162 HD
HETATM   11  O   UNL     1      45.365 -11.126   8.644  1.00  0.00    -0.273 OA
BRANCH   9  12
HETATM   12  C   UNL     1      44.044  -9.992  10.891  1.00  0.00     0.076 C 
HETATM   13  C   UNL     1      43.681 -11.122  11.849  1.00  0.00     0.032 C 
HETATM   14  C   UNL     1      43.579  -8.646  11.444  1.00  0.00     0.032 C 
ENDBRANCH   9  12
ENDBRANCH   7   8
ENDBRANCH   6   7
ENDBRANCH   1   6
BRANCH   2  15
HETATM   15  C   UNL     1      43.262 -14.595   4.031  1.00  0.00     0.137 C 
BRANCH  15  16
HETATM   16  C   UNL     1      42.771 -15.829   4.796  1.00  0.00     0.059 C 
BRANCH  16  17
HETATM   17  C   UNL     1      43.132 -17.132   4.127  1.00  0.00    -0.057 A 
HETATM   18  C   UNL     1      42.711 -17.410   2.818  1.00  0.00     0.007 A 
HETATM   19  C   UNL     1      43.077 -18.605   2.195  1.00  0.00     0.001 A 
HETATM   20  C   UNL     1      43.875 -19.528   2.867  1.00  0.00     0.000 A 
HETATM   21  C   UNL     1      44.307 -19.259   4.164  1.00  0.00     0.001 A 
HETATM   22  C   UNL     1      43.939 -18.067   4.791  1.00  0.00     0.007 A 
ENDBRANCH  16  17
ENDBRANCH  15  16
ENDBRANCH   2  15
BRANCH   3  23
HETATM   23  C   UNL     1      40.836 -13.624   2.206  1.00  0.00     0.012 A 
HETATM   24  C   UNL     1      40.260 -14.894   2.109  1.00  0.00     0.018 A 
HETATM   25  C   UNL     1      39.800 -15.371   0.875  1.00  0.00     0.037 A 
HETATM   26  C   UNL     1      39.882 -14.584  -0.275  1.00  0.00     0.068 A 
HETATM   27  C   UNL     1      40.441 -13.311  -0.187  1.00  0.00     0.037 A 
HETATM   28  C   UNL     1      40.909 -12.837   1.045  1.00  0.00     0.018 A 
BRANCH  26  29
HETATM   29  O   UNL     1      39.385 -15.164  -1.408  1.00  0.00    -0.356 OA
HETATM   30  C   UNL     1      38.915 -14.285  -2.424  1.00  0.00     0.210 C 
ENDBRANCH  26  29
ENDBRANCH   3  23
TORSDOF 9
ENDMDL
MODEL 5
REMARK VINA RESULT:      -6.9      4.654      8.064
REMARK  9 active torsions:
REMARK  status: ('A' for Active; 'I' for Inactive)
REMARK    1  A    between atoms: C_2  and  N_3 
REMARK       I    between atoms: N_3  and  C_4 
REMARK    2  A    between atoms: C_4  and  C_5 
REMARK    3  A    between atoms: C_5  and  S_6 
REMARK    4  A    between atoms: S_6  and  C_7 
REMARK    5  A    between atoms: N_8  and  C_9 
REMARK    6  A    between atoms: C_9  and  C_10 
REMARK    7  A    between atoms: C_10  and  C_11 
REMARK    8  A    between atoms: C_17  and  C_18 
REMARK    9  A    between atoms: C_21  and  O_22 
ROOT
HETATM    1  C   UNL     1      40.403 -13.649   0.947  1.00  0.00     0.192 A 
HETATM    2  N   UNL     1      41.358 -14.040   1.851  1.00  0.00    -0.307 N 
HETATM    3  C   UNL     1      41.239 -15.416   1.939  1.00  0.00     0.164 A 
HETATM    4  N   UNL     1      40.231 -15.789   1.165  1.00  0.00    -0.128 NA
HETATM    5  N   UNL     1      39.694 -14.685   0.572  1.00  0.00    -0.122 NA
ENDROOT
BRANCH   1   6
HETATM    6  S   UNL     1      40.197 -12.032   0.372  1.00  0.00    -0.081 SA
BRANCH   6   7
HETATM    7  C   UNL     1      41.250 -12.042  -1.108  1.00  0.00     0.185 C 
BRANCH   7   8
HETATM    8  C   UNL     1      40.515 -12.625  -2.303  1.00  0.00     0.227 C 
HETATM    9  N   UNL     1      39.206 -12.982  -2.051  1.00  0.00    -0.357 N 
HETATM   10  H   UNL     1      38.962 -13.143  -1.072  1.00  0.00     0.162 HD
HETATM   11  O   UNL     1      41.048 -12.744  -3.405  1.00  0.00    -0.273 OA
BRANCH   9  12
HETATM   12  C   UNL     1      38.369 -13.625  -3.050  1.00  0.00     0.076 C 
HETATM   13  C   UNL     1      36.915 -13.210  -2.850  1.00  0.00     0.032 C 
HETATM   14  C   UNL     1      38.508 -15.145  -2.987  1.00  0.00     0.032 C 
ENDBRANCH   9  12
ENDBRANCH   7   8
ENDBRANCH   6   7
ENDBRANCH   1   6
BRANCH   2  15
HETATM   15  C   UNL     1      42.315 -13.179   2.522  1.00  0.00     0.137 C 
BRANCH  15  16
HETATM   16  C   UNL     1      41.765 -12.649   3.850  1.00  0.00     0.059 C 
BRANCH  16  17
HETATM   17  C   UNL     1      42.826 -12.453   4.905  1.00  0.00    -0.057 A 
HETATM   18  C   UNL     1      42.796 -13.185   6.101  1.00  0.00     0.007 A 
HETATM   19  C   UNL     1      43.801 -13.022   7.057  1.00  0.00     0.001 A 
HETATM   20  C   UNL     1      44.849 -12.135   6.824  1.00  0.00     0.000 A 
HETATM   21  C   UNL     1      44.895 -11.410   5.635  1.00  0.00     0.001 A 
HETATM   22  C   UNL     1      43.890 -11.568   4.680  1.00  0.00     0.007 A 
ENDBRANCH  16  17
ENDBRANCH  15  16
ENDBRANCH   2  15
BRANCH   3  23
HETATM   23  C   UNL     1      42.092 -16.356   2.669  1.00  0.00     0.012 A 
HETATM   24  C   UNL     1      42.948 -17.265   2.041  1.00  0.00     0.018 A 
HETATM   25  C   UNL     1      43.755 -18.120   2.802  1.00  0.00     0.037 A 
HETATM   26  C   UNL     1      43.743 -18.066   4.197  1.00  0.00     0.068 A 
HETATM   27  C   UNL     1      42.906 -17.153   4.832  1.00  0.00     0.037 A 
HETATM   28  C   UNL     1      42.091 -16.304   4.072  1.00  0.00     0.018 A 
BRANCH  26  29
HETATM   29  O   UNL     1      44.588 -18.944   4.816  1.00  0.00    -0.356 OA
HETATM   30  C   UNL     1      43.998 -20.103   5.392  1.00  0.00     0.210 C 
ENDBRANCH  26  29
ENDBRANCH   3  23
TORSDOF 9
ENDMDL
MODEL 6
REMARK VINA RESULT:      -6.9      4.021      7.702
REMARK  9 active torsions:
REMARK  status: ('A' for Active; 'I' for Inactive)
REMARK    1  A    between atoms: C_2  and  N_3 
REMARK       I    between atoms: N_3  and  C_4 
REMARK    2  A    between atoms: C_4  and  C_5 
REMARK    3  A    between atoms: C_5  and  S_6 
REMARK    4  A    between atoms: S_6  and  C_7 
REMARK    5  A    between atoms: N_8  and  C_9 
REMARK    6  A    between atoms: C_9  and  C_10 
REMARK    7  A    between atoms: C_10  and  C_11 
REMARK    8  A    between atoms: C_17  and  C_18 
REMARK    9  A    between atoms: C_21  and  O_22 
ROOT
HETATM    1  C   UNL     1      41.101 -12.963   2.932  1.00  0.00     0.192 A 
HETATM    2  N   UNL     1      41.827 -13.190   4.074  1.00  0.00    -0.307 N 
HETATM    3  C   UNL     1      42.543 -12.026   4.290  1.00  0.00     0.164 A 
HETATM    4  N   UNL     1      42.281 -11.193   3.294  1.00  0.00    -0.128 NA
HETATM    5  N   UNL     1      41.406 -11.791   2.435  1.00  0.00    -0.122 NA
ENDROOT
BRANCH   1   6
HETATM    6  S   UNL     1      39.935 -14.058   2.275  1.00  0.00    -0.081 SA
BRANCH   6   7
HETATM    7  C   UNL     1      40.768 -14.596   0.753  1.00  0.00     0.185 C 
BRANCH   7   8
HETATM    8  C   UNL     1      40.297 -13.793  -0.447  1.00  0.00     0.227 C 
HETATM    9  N   UNL     1      39.240 -14.356  -1.133  1.00  0.00    -0.357 N 
HETATM   10  H   UNL     1      39.101 -15.361  -1.003  1.00  0.00     0.162 HD
HETATM   11  O   UNL     1      40.809 -12.720  -0.758  1.00  0.00    -0.273 OA
BRANCH   9  12
HETATM   12  C   UNL     1      38.702 -13.772  -2.350  1.00  0.00     0.076 C 
HETATM   13  C   UNL     1      37.506 -12.887  -2.014  1.00  0.00     0.032 C 
HETATM   14  C   UNL     1      38.306 -14.856  -3.350  1.00  0.00     0.032 C 
ENDBRANCH   9  12
ENDBRANCH   7   8
ENDBRANCH   6   7
ENDBRANCH   1   6
BRANCH   2  15
HETATM   15  C   UNL     1      41.795 -14.387   4.893  1.00  0.00     0.137 C 
BRANCH  15  16
HETATM   16  C   UNL     1      43.192 -14.997   5.057  1.00  0.00     0.059 C 
BRANCH  16  17
HETATM   17  C   UNL     1      43.366 -16.303   4.322  1.00  0.00    -0.057 A 
HETATM   18  C   UNL     1      42.911 -16.454   3.004  1.00  0.00     0.007 A 
HETATM   19  C   UNL     1      43.106 -17.656   2.320  1.00  0.00     0.001 A 
HETATM   20  C   UNL     1      43.767 -18.714   2.940  1.00  0.00     0.000 A 
HETATM   21  C   UNL     1      44.232 -18.572   4.245  1.00  0.00     0.001 A 
HETATM   22  C   UNL     1      44.035 -17.374   4.933  1.00  0.00     0.007 A 
ENDBRANCH  16  17
ENDBRANCH  15  16
ENDBRANCH   2  15
BRANCH   3  23
HETATM   23  C   UNL     1      43.387 -11.679   5.435  1.00  0.00     0.012 A 
HETATM   24  C   UNL     1      42.887 -11.462   6.722  1.00  0.00     0.018 A 
HETATM   25  C   UNL     1      43.756 -11.157   7.778  1.00  0.00     0.037 A 
HETATM   26  C   UNL     1      45.135 -11.089   7.576  1.00  0.00     0.068 A 
HETATM   27  C   UNL     1      45.645 -11.318   6.300  1.00  0.00     0.037 A 
HETATM   28  C   UNL     1      44.777 -11.614   5.243  1.00  0.00     0.018 A 
BRANCH  26  29
HETATM   29  O   UNL     1      45.869 -10.797   8.691  1.00  0.00    -0.356 OA
HETATM   30  C   UNL     1      45.238  -9.992   9.680  1.00  0.00     0.210 C 
ENDBRANCH  26  29
ENDBRANCH   3  23
TORSDOF 9
ENDMDL
MODEL 7
REMARK VINA RESULT:      -6.9      3.953      6.424
REMARK  9 active torsions:
REMARK  status: ('A' for Active; 'I' for Inactive)
REMARK    1  A    between atoms: C_2  and  N_3 
REMARK       I    between atoms: N_3  and  C_4 
REMARK    2  A    between atoms: C_4  and  C_5 
REMARK    3  A    between atoms: C_5  and  S_6 
REMARK    4  A    between atoms: S_6  and  C_7 
REMARK    5  A    between atoms: N_8  and  C_9 
REMARK    6  A    between atoms: C_9  and  C_10 
REMARK    7  A    between atoms: C_10  and  C_11 
REMARK    8  A    between atoms: C_17  and  C_18 
REMARK    9  A    between atoms: C_21  and  O_22 
ROOT
HETATM    1  C   UNL     1      39.577 -11.304   3.938  1.00  0.00     0.192 A 
HETATM    2  N   UNL     1      40.650 -12.151   3.827  1.00  0.00    -0.307 N 
HETATM    3  C   UNL     1      40.626 -12.926   4.973  1.00  0.00     0.164 A 
HETATM    4  N   UNL     1      39.622 -12.507   5.728  1.00  0.00    -0.128 NA
HETATM    5  N   UNL     1      38.989 -11.479   5.095  1.00  0.00    -0.122 NA
ENDROOT
BRANCH   1   6
HETATM    6  S   UNL     1      39.067 -10.196   2.711  1.00  0.00    -0.081 SA
BRANCH   6   7
HETATM    7  C   UNL     1      37.955 -11.241   1.726  1.00  0.00     0.185 C 
BRANCH   7   8
HETATM    8  C   UNL     1      38.504 -11.466   0.328  1.00  0.00     0.227 C 
HETATM    9  N   UNL     1      38.099 -12.645  -0.262  1.00  0.00    -0.357 N 
HETATM   10  H   UNL     1      37.777 -13.380   0.371  1.00  0.00     0.162 HD
HETATM   11  O   UNL     1      39.231 -10.646  -0.229  1.00  0.00    -0.273 OA
BRANCH   9  12
HETATM   12  C   UNL     1      38.581 -13.069  -1.567  1.00  0.00     0.076 C 
HETATM   13  C   UNL     1      37.406 -13.221  -2.527  1.00  0.00     0.032 C 
HETATM   14  C   UNL     1      39.366 -14.375  -1.464  1.00  0.00     0.032 C 
ENDBRANCH   9  12
ENDBRANCH   7   8
ENDBRANCH   6   7
ENDBRANCH   1   6
BRANCH   2  15
HETATM   15  C   UNL     1      41.572 -12.235   2.709  1.00  0.00     0.137 C 
BRANCH  15  16
HETATM   16  C   UNL     1      41.098 -13.248   1.660  1.00  0.00     0.059 C 
BRANCH  16  17
HETATM   17  C   UNL     1      41.694 -14.622   1.841  1.00  0.00    -0.057 A 
HETATM   18  C   UNL     1      43.082 -14.799   1.922  1.00  0.00     0.007 A 
HETATM   19  C   UNL     1      43.624 -16.071   2.122  1.00  0.00     0.001 A 
HETATM   20  C   UNL     1      42.785 -17.175   2.254  1.00  0.00     0.000 A 
HETATM   21  C   UNL     1      41.403 -17.010   2.184  1.00  0.00     0.001 A 
HETATM   22  C   UNL     1      40.860 -15.740   1.980  1.00  0.00     0.007 A 
ENDBRANCH  16  17
ENDBRANCH  15  16
ENDBRANCH   2  15
BRANCH   3  23
HETATM   23  C   UNL     1      41.474 -14.070   5.313  1.00  0.00     0.012 A 
HETATM   24  C   UNL     1      42.853 -13.972   5.520  1.00  0.00     0.018 A 
HETATM   25  C   UNL     1      43.600 -15.104   5.867  1.00  0.00     0.037 A 
HETATM   26  C   UNL     1      42.984 -16.345   6.040  1.00  0.00     0.068 A 
HETATM   27  C   UNL     1      41.609 -16.451   5.852  1.00  0.00     0.037 A 
HETATM   28  C   UNL     1      40.863 -15.321   5.496  1.00  0.00     0.018 A 
BRANCH  26  29
HETATM   29  O   UNL     1      43.825 -17.363   6.392  1.00  0.00    -0.356 OA
HETATM   30  C   UNL     1      43.629 -18.611   5.738  1.00  0.00     0.210 C 
ENDBRANCH  26  29
ENDBRANCH   3  23
TORSDOF 9
ENDMDL
MODEL 8
REMARK VINA RESULT:      -6.7      1.396      3.129
REMARK  9 active torsions:
REMARK  status: ('A' for Active; 'I' for Inactive)
REMARK    1  A    between atoms: C_2  and  N_3 
REMARK       I    between atoms: N_3  and  C_4 
REMARK    2  A    between atoms: C_4  and  C_5 
REMARK    3  A    between atoms: C_5  and  S_6 
REMARK    4  A    between atoms: S_6  and  C_7 
REMARK    5  A    between atoms: N_8  and  C_9 
REMARK    6  A    between atoms: C_9  and  C_10 
REMARK    7  A    between atoms: C_10  and  C_11 
REMARK    8  A    between atoms: C_17  and  C_18 
REMARK    9  A    between atoms: C_21  and  O_22 
ROOT
HETATM    1  C   UNL     1      41.404 -10.946   5.019  1.00  0.00     0.192 A 
HETATM    2  N   UNL     1      42.148 -12.096   4.948  1.00  0.00    -0.307 N 
HETATM    3  C   UNL     1      41.409 -12.964   4.163  1.00  0.00     0.164 A 
HETATM    4  N   UNL     1      40.274 -12.359   3.843  1.00  0.00    -0.128 NA
HETATM    5  N   UNL     1      40.261 -11.116   4.402  1.00  0.00    -0.122 NA
ENDROOT
BRANCH   1   6
HETATM    6  S   UNL     1      41.922  -9.485   5.785  1.00  0.00    -0.081 SA
BRANCH   6   7
HETATM    7  C   UNL     1      41.297  -9.725   7.473  1.00  0.00     0.185 C 
BRANCH   7   8
HETATM    8  C   UNL     1      42.268  -9.173   8.504  1.00  0.00     0.227 C 
HETATM    9  N   UNL     1      42.940 -10.135   9.228  1.00  0.00    -0.357 N 
HETATM   10  H   UNL     1      42.509 -11.061   9.260  1.00  0.00     0.162 HD
HETATM   11  O   UNL     1      42.445  -7.966   8.655  1.00  0.00    -0.273 OA
BRANCH   9  12
HETATM   12  C   UNL     1      43.853  -9.800  10.309  1.00  0.00     0.076 C 
HETATM   13  C   UNL     1      45.291  -9.840   9.803  1.00  0.00     0.032 C 
HETATM   14  C   UNL     1      43.672 -10.747  11.494  1.00  0.00     0.032 C 
ENDBRANCH   9  12
ENDBRANCH   7   8
ENDBRANCH   6   7
ENDBRANCH   1   6
BRANCH   2  15
HETATM   15  C   UNL     1      43.455 -12.316   5.539  1.00  0.00     0.137 C 
BRANCH  15  16
HETATM   16  C   UNL     1      43.355 -13.071   6.869  1.00  0.00     0.059 C 
BRANCH  16  17
HETATM   17  C   UNL     1      43.356 -14.571   6.709  1.00  0.00    -0.057 A 
HETATM   18  C   UNL     1      44.459 -15.235   6.154  1.00  0.00     0.007 A 
HETATM   19  C   UNL     1      44.466 -16.627   6.040  1.00  0.00     0.001 A 
HETATM   20  C   UNL     1      43.376 -17.370   6.489  1.00  0.00     0.000 A 
HETATM   21  C   UNL     1      42.278 -16.722   7.052  1.00  0.00     0.001 A 
HETATM   22  C   UNL     1      42.268 -15.330   7.163  1.00  0.00     0.007 A 
ENDBRANCH  16  17
ENDBRANCH  15  16
ENDBRANCH   2  15
BRANCH   3  23
HETATM   23  C   UNL     1      41.790 -14.288   3.668  1.00  0.00     0.012 A 
HETATM   24  C   UNL     1      41.008 -15.432   3.850  1.00  0.00     0.018 A 
HETATM   25  C   UNL     1      41.422 -16.664   3.328  1.00  0.00     0.037 A 
HETATM   26  C   UNL     1      42.605 -16.771   2.594  1.00  0.00     0.068 A 
HETATM   27  C   UNL     1      43.384 -15.635   2.394  1.00  0.00     0.037 A 
HETATM   28  C   UNL     1      42.975 -14.405   2.924  1.00  0.00     0.018 A 
BRANCH  26  29
HETATM   29  O   UNL     1      42.884 -18.026   2.130  1.00  0.00    -0.356 OA
HETATM   30  C   UNL     1      43.927 -18.735   2.789  1.00  0.00     0.210 C 
ENDBRANCH  26  29
ENDBRANCH   3  23
TORSDOF 9
ENDMDL
MODEL 9
REMARK VINA RESULT:      -6.7      2.885      4.601
REMARK  9 active torsions:
REMARK  status: ('A' for Active; 'I' for Inactive)
REMARK    1  A    between atoms: C_2  and  N_3 
REMARK       I    between atoms: N_3  and  C_4 
REMARK    2  A    between atoms: C_4  and  C_5 
REMARK    3  A    between atoms: C_5  and  S_6 
REMARK    4  A    between atoms: S_6  and  C_7 
REMARK    5  A    between atoms: N_8  and  C_9 
REMARK    6  A    between atoms: C_9  and  C_10 
REMARK    7  A    between atoms: C_10  and  C_11 
REMARK    8  A    between atoms: C_17  and  C_18 
REMARK    9  A    between atoms: C_21  and  O_22 
ROOT
HETATM    1  C   UNL     1      43.560 -11.849   5.512  1.00  0.00     0.192 A 
HETATM    2  N   UNL     1      42.407 -12.309   4.929  1.00  0.00    -0.307 N 
HETATM    3  C   UNL     1      42.510 -11.969   3.592  1.00  0.00     0.164 A 
HETATM    4  N   UNL     1      43.642 -11.301   3.426  1.00  0.00    -0.128 NA
HETATM    5  N   UNL     1      44.279 -11.202   4.628  1.00  0.00    -0.122 NA
ENDROOT
BRANCH   1   6
HETATM    6  S   UNL     1      44.004 -12.118   7.161  1.00  0.00    -0.081 SA
BRANCH   6   7
HETATM    7  C   UNL     1      43.711 -10.476   7.882  1.00  0.00     0.185 C 
BRANCH   7   8
HETATM    8  C   UNL     1      43.979 -10.475   9.377  1.00  0.00     0.227 C 
HETATM    9  N   UNL     1      42.909 -10.073  10.149  1.00  0.00    -0.357 N 
HETATM   10  H   UNL     1      42.195  -9.514   9.677  1.00  0.00     0.162 HD
HETATM   11  O   UNL     1      45.058 -10.827   9.849  1.00  0.00    -0.273 OA
BRANCH   9  12
HETATM   12  C   UNL     1      42.998  -9.936  11.594  1.00  0.00     0.076 C 
HETATM   13  C   UNL     1      41.609 -10.055  12.211  1.00  0.00     0.032 C 
HETATM   14  C   UNL     1      43.647  -8.608  11.979  1.00  0.00     0.032 C 
ENDBRANCH   9  12
ENDBRANCH   7   8
ENDBRANCH   6   7
ENDBRANCH   1   6
BRANCH   2  15
HETATM   15  C   UNL     1      41.340 -13.041   5.587  1.00  0.00     0.137 C 
BRANCH  15  16
HETATM   16  C   UNL     1      41.732 -14.500   5.847  1.00  0.00     0.059 C 
BRANCH  16  17
HETATM   17  C   UNL     1      41.823 -15.330   4.590  1.00  0.00    -0.057 A 
HETATM   18  C   UNL     1      40.679 -15.609   3.828  1.00  0.00     0.007 A 
HETATM   19  C   UNL     1      40.777 -16.350   2.648  1.00  0.00     0.001 A 
HETATM   20  C   UNL     1      42.018 -16.810   2.213  1.00  0.00     0.000 A 
HETATM   21  C   UNL     1      43.162 -16.530   2.957  1.00  0.00     0.001 A 
HETATM   22  C   UNL     1      43.066 -15.793   4.139  1.00  0.00     0.007 A 
ENDBRANCH  16  17
ENDBRANCH  15  16
ENDBRANCH   2  15
BRANCH   3  23
HETATM   23  C   UNL     1      41.611 -12.325   2.493  1.00  0.00     0.012 A 
HETATM   24  C   UNL     1      41.999 -13.110   1.404  1.00  0.00     0.018 A 
HETATM   25  C   UNL     1      41.079 -13.433   0.399  1.00  0.00     0.037 A 
HETATM   26  C   UNL     1      39.753 -13.003   0.474  1.00  0.00     0.068 A 
HETATM   27  C   UNL     1      39.352 -12.232   1.562  1.00  0.00     0.037 A 
HETATM   28  C   UNL     1      40.273 -11.901   2.563  1.00  0.00     0.018 A 
BRANCH  26  29
HETATM   29  O   UNL     1      38.958 -13.399  -0.565  1.00  0.00    -0.356 OA
HETATM   30  C   UNL     1      39.406 -14.515  -1.325  1.00  0.00     0.210 C 
ENDBRANCH  26  29
ENDBRANCH   3  23
TORSDOF 9
ENDMDL
MODEL 10
REMARK VINA RESULT:      -6.7      3.579      5.395
REMARK  9 active torsions:
REMARK  status: ('A' for Active; 'I' for Inactive)
REMARK    1  A    between atoms: C_2  and  N_3 
REMARK       I    between atoms: N_3  and  C_4 
REMARK    2  A    between atoms: C_4  and  C_5 
REMARK    3  A    between atoms: C_5  and  S_6 
REMARK    4  A    between atoms: S_6  and  C_7 
REMARK    5  A    between atoms: N_8  and  C_9 
REMARK    6  A    between atoms: C_9  and  C_10 
REMARK    7  A    between atoms: C_10  and  C_11 
REMARK    8  A    between atoms: C_17  and  C_18 
REMARK    9  A    between atoms: C_21  and  O_22 
ROOT
HETATM    1  C   UNL     1      40.866 -11.719   4.631  1.00  0.00     0.192 A 
HETATM    2  N   UNL     1      41.253 -12.011   3.347  1.00  0.00    -0.307 N 
HETATM    3  C   UNL     1      40.141 -12.579   2.750  1.00  0.00     0.164 A 
HETATM    4  N   UNL     1      39.183 -12.656   3.660  1.00  0.00    -0.128 NA
HETATM    5  N   UNL     1      39.646 -12.148   4.837  1.00  0.00    -0.122 NA
ENDROOT
BRANCH   1   6
HETATM    6  S   UNL     1      41.843 -10.880   5.785  1.00  0.00    -0.081 SA
BRANCH   6   7
HETATM    7  C   UNL     1      42.762 -12.252   6.541  1.00  0.00     0.185 C 
BRANCH   7   8
HETATM    8  C   UNL     1      44.033 -11.760   7.213  1.00  0.00     0.227 C 
HETATM    9  N   UNL     1      43.822 -10.955   8.314  1.00  0.00    -0.357 N 
HETATM   10  H   UNL     1      42.908 -10.501   8.373  1.00  0.00     0.162 HD
HETATM   11  O   UNL     1      45.150 -12.078   6.812  1.00  0.00    -0.273 OA
BRANCH   9  12
HETATM   12  C   UNL     1      44.914 -10.330   9.041  1.00  0.00     0.076 C 
HETATM   13  C   UNL     1      44.545 -10.199  10.515  1.00  0.00     0.032 C 
HETATM   14  C   UNL     1      45.257  -8.964   8.448  1.00  0.00     0.032 C 
ENDBRANCH   9  12
ENDBRANCH   7   8
ENDBRANCH   6   7
ENDBRANCH   1   6
BRANCH   2  15
HETATM   15  C   UNL     1      42.545 -11.728   2.750  1.00  0.00     0.137 C 
BRANCH  15  16
HETATM   16  C   UNL     1      43.615 -12.721   3.219  1.00  0.00     0.059 C 
BRANCH  16  17
HETATM   17  C   UNL     1      43.256 -14.161   2.951  1.00  0.00    -0.057 A 
HETATM   18  C   UNL     1      43.512 -14.746   1.702  1.00  0.00     0.007 A 
HETATM   19  C   UNL     1      43.207 -16.090   1.473  1.00  0.00     0.001 A 
HETATM   20  C   UNL     1      42.655 -16.864   2.491  1.00  0.00     0.000 A 
HETATM   21  C   UNL     1      42.406 -16.297   3.738  1.00  0.00     0.001 A 
HETATM   22  C   UNL     1      42.706 -14.953   3.969  1.00  0.00     0.007 A 
ENDBRANCH  16  17
ENDBRANCH  15  16
ENDBRANCH   2  15
BRANCH   3  23
HETATM   23  C   UNL     1      39.963 -12.966   1.349  1.00  0.00     0.012 A 
HETATM   24  C   UNL     1      40.033 -14.289   0.902  1.00  0.00     0.018 A 
HETATM   25  C   UNL     1      39.827 -14.591  -0.450  1.00  0.00     0.037 A 
HETATM   26  C   UNL     1      39.523 -13.588  -1.372  1.00  0.00     0.068 A 
HETATM   27  C   UNL     1      39.437 -12.269  -0.934  1.00  0.00     0.037 A 
HETATM   28  C   UNL     1      39.651 -11.965   0.415  1.00  0.00     0.018 A 
BRANCH  26  29
HETATM   29  O   UNL     1      39.333 -14.020  -2.655  1.00  0.00    -0.356 OA
HETATM   30  C   UNL     1      38.630 -15.246  -2.820  1.00  0.00     0.210 C 
ENDBRANCH  26  29
ENDBRANCH   3  23
TORSDOF 9
ENDMDL
