MODEL 1
REMARK VINA RESULT:      -7.4      0.000      0.000
REMARK  5 active torsions:
REMARK  status: ('A' for Active; 'I' for Inactive)
REMARK    1  A    between atoms: C_8  and  C_9 
REMARK    2  A    between atoms: C_11  and  O_12 
REMARK    3  A    between atoms: C_14  and  O_15 
REMARK    4  A    between atoms: C_18  and  C_19 
REMARK    5  A    between atoms: C_22  and  O_23 
ROOT
HETATM    1  C   UNL     1      43.699 -18.156   1.803  1.00  0.00     0.070 C 
HETATM    2  C   UNL     1      43.619 -18.260   3.278  1.00  0.00     0.033 A 
HETATM    3  N   UNL     1      43.827 -19.453   3.919  1.00  0.00    -0.282 N 
HETATM    4  H   UNL     1      44.024 -20.358   3.507  1.00  0.00     0.189 HD
HETATM    5  N   UNL     1      43.796 -19.364   5.257  1.00  0.00    -0.179 NA
HETATM    6  C   UNL     1      43.544 -18.072   5.478  1.00  0.00     0.066 A 
HETATM    7  C   UNL     1      43.362 -17.338   4.278  1.00  0.00     0.001 A 
HETATM    8  C   UNL     1      43.108 -15.860   4.283  1.00  0.00     0.070 C 
HETATM    9  C   UNL     1      42.680 -15.321   5.678  1.00  0.00     0.102 C 
HETATM   10  C   UNL     1      43.518 -15.943   6.832  1.00  0.00     0.071 C 
HETATM   11  C   UNL     1      43.106 -15.403   8.211  1.00  0.00     0.047 C 
HETATM   12  C   UNL     1      43.483 -17.496   6.852  1.00  0.00     0.100 C 
ENDROOT
BRANCH   8  13
HETATM   13  C   UNL     1      42.150 -15.476   3.163  1.00  0.00    -0.046 A 
HETATM   14  C   UNL     1      42.315 -14.332   2.358  1.00  0.00     0.047 A 
HETATM   15  C   UNL     1      41.415 -14.051   1.329  1.00  0.00     0.101 A 
HETATM   16  C   UNL     1      40.393 -14.955   1.042  1.00  0.00     0.099 A 
HETATM   17  C   UNL     1      40.217 -16.099   1.805  1.00  0.00     0.040 A 
HETATM   18  C   UNL     1      41.086 -16.353   2.867  1.00  0.00     0.011 A 
BRANCH  15  19
HETATM   19  O   UNL     1      41.492 -12.941   0.528  1.00  0.00    -0.353 OA
HETATM   20  C   UNL     1      41.325 -11.724   1.259  1.00  0.00     0.210 C 
ENDBRANCH  15  19
BRANCH  16  21
HETATM   21  O   UNL     1      39.537 -14.722   0.004  1.00  0.00    -0.358 OA
HETATM   22  H   UNL     1      38.796 -15.345   0.141  1.00  0.00     0.218 HD
ENDBRANCH  16  21
ENDBRANCH   8  13
BRANCH   9  23
HETATM   23  C   UNL     1      41.182 -15.475   5.942  1.00  0.00     0.131 C 
HETATM   24  C   UNL     1      40.379 -14.202   6.066  1.00  0.00     0.091 C 
HETATM   25  O   UNL     1      40.645 -16.570   6.092  1.00  0.00    -0.298 OA
ENDBRANCH   9  23
BRANCH  10  26
HETATM   26  O   UNL     1      44.889 -15.527   6.634  1.00  0.00    -0.389 OA
HETATM   27  H   UNL     1      44.906 -14.750   6.050  1.00  0.00     0.210 HD
ENDBRANCH  10  26
TORSDOF 5
ENDMDL
MODEL 2
REMARK VINA RESULT:      -7.2      3.325      5.149
REMARK  5 active torsions:
REMARK  status: ('A' for Active; 'I' for Inactive)
REMARK    1  A    between atoms: C_8  and  C_9 
REMARK    2  A    between atoms: C_11  and  O_12 
REMARK    3  A    between atoms: C_14  and  O_15 
REMARK    4  A    between atoms: C_18  and  C_19 
REMARK    5  A    between atoms: C_22  and  O_23 
ROOT
HETATM    1  C   UNL     1      38.090 -11.558   1.923  1.00  0.00     0.070 C 
HETATM    2  C   UNL     1      38.993 -12.096   2.967  1.00  0.00     0.033 A 
HETATM    3  N   UNL     1      39.193 -11.429   4.146  1.00  0.00    -0.282 N 
HETATM    4  H   UNL     1      38.803 -10.539   4.435  1.00  0.00     0.189 HD
HETATM    5  N   UNL     1      39.976 -12.084   5.015  1.00  0.00    -0.179 NA
HETATM    6  C   UNL     1      40.300 -13.202   4.362  1.00  0.00     0.066 A 
HETATM    7  C   UNL     1      39.764 -13.242   3.049  1.00  0.00     0.001 A 
HETATM    8  C   UNL     1      39.966 -14.421   2.145  1.00  0.00     0.070 C 
HETATM    9  C   UNL     1      41.106 -15.366   2.623  1.00  0.00     0.102 C 
HETATM   10  C   UNL     1      41.074 -15.596   4.161  1.00  0.00     0.071 C 
HETATM   11  C   UNL     1      42.192 -16.538   4.636  1.00  0.00     0.047 C 
HETATM   12  C   UNL     1      41.125 -14.277   4.983  1.00  0.00     0.100 C 
ENDROOT
BRANCH   8  13
HETATM   13  C   UNL     1      40.118 -13.969   0.698  1.00  0.00    -0.046 A 
HETATM   14  C   UNL     1      40.764 -12.775   0.323  1.00  0.00     0.047 A 
HETATM   15  C   UNL     1      40.895 -12.432  -1.024  1.00  0.00     0.101 A 
HETATM   16  C   UNL     1      40.458 -13.319  -2.007  1.00  0.00     0.099 A 
HETATM   17  C   UNL     1      39.836 -14.510  -1.668  1.00  0.00     0.040 A 
HETATM   18  C   UNL     1      39.658 -14.829  -0.320  1.00  0.00     0.011 A 
BRANCH  15  19
HETATM   19  O   UNL     1      41.480 -11.272  -1.462  1.00  0.00    -0.353 OA
HETATM   20  C   UNL     1      41.267 -10.177  -0.569  1.00  0.00     0.210 C 
ENDBRANCH  15  19
BRANCH  16  21
HETATM   21  O   UNL     1      40.628 -13.022  -3.329  1.00  0.00    -0.358 OA
HETATM   22  H   UNL     1      40.120 -13.704  -3.810  1.00  0.00     0.218 HD
ENDBRANCH  16  21
ENDBRANCH   8  13
BRANCH   9  23
HETATM   23  C   UNL     1      42.491 -14.909   2.164  1.00  0.00     0.131 C 
HETATM   24  C   UNL     1      43.259 -15.855   1.273  1.00  0.00     0.091 C 
HETATM   25  O   UNL     1      42.991 -13.845   2.526  1.00  0.00    -0.298 OA
ENDBRANCH   9  23
BRANCH  10  26
HETATM   26  O   UNL     1      39.830 -16.266   4.466  1.00  0.00    -0.389 OA
HETATM   27  H   UNL     1      39.797 -16.463   5.418  1.00  0.00     0.210 HD
ENDBRANCH  10  26
TORSDOF 5
ENDMDL
MODEL 3
REMARK VINA RESULT:      -6.9      3.297      5.398
REMARK  5 active torsions:
REMARK  status: ('A' for Active; 'I' for Inactive)
REMARK    1  A    between atoms: C_8  and  C_9 
REMARK    2  A    between atoms: C_11  and  O_12 
REMARK    3  A    between atoms: C_14  and  O_15 
REMARK    4  A    between atoms: C_18  and  C_19 
REMARK    5  A    between atoms: C_22  and  O_23 
ROOT
HETATM    1  C   UNL     1      39.930 -12.122   2.874  1.00  0.00     0.070 C 
HETATM    2  C   UNL     1      40.098 -13.583   2.703  1.00  0.00     0.033 A 
HETATM    3  N   UNL     1      39.073 -14.369   2.245  1.00  0.00    -0.282 N 
HETATM    4  H   UNL     1      38.130 -14.087   2.002  1.00  0.00     0.189 HD
HETATM    5  N   UNL     1      39.409 -15.655   2.073  1.00  0.00    -0.179 NA
HETATM    6  C   UNL     1      40.689 -15.697   2.449  1.00  0.00     0.066 A 
HETATM    7  C   UNL     1      41.163 -14.442   2.912  1.00  0.00     0.001 A 
HETATM    8  C   UNL     1      42.584 -14.243   3.349  1.00  0.00     0.070 C 
HETATM    9  C   UNL     1      43.332 -15.581   3.614  1.00  0.00     0.102 C 
HETATM   10  C   UNL     1      43.023 -16.653   2.530  1.00  0.00     0.071 C 
HETATM   11  C   UNL     1      43.770 -17.972   2.782  1.00  0.00     0.047 C 
HETATM   12  C   UNL     1      41.505 -16.942   2.363  1.00  0.00     0.100 C 
ENDROOT
BRANCH   8  13
HETATM   13  C   UNL     1      42.655 -13.266   4.515  1.00  0.00    -0.046 A 
HETATM   14  C   UNL     1      43.724 -12.369   4.712  1.00  0.00     0.047 A 
HETATM   15  C   UNL     1      43.715 -11.479   5.787  1.00  0.00     0.101 A 
HETATM   16  C   UNL     1      42.601 -11.420   6.624  1.00  0.00     0.099 A 
HETATM   17  C   UNL     1      41.527 -12.277   6.444  1.00  0.00     0.040 A 
HETATM   18  C   UNL     1      41.559 -13.203   5.399  1.00  0.00     0.011 A 
BRANCH  15  19
HETATM   19  O   UNL     1      44.733 -10.602   6.060  1.00  0.00    -0.353 OA
HETATM   20  C   UNL     1      45.873 -11.246   6.633  1.00  0.00     0.210 C 
ENDBRANCH  15  19
BRANCH  16  21
HETATM   21  O   UNL     1      42.554 -10.517   7.647  1.00  0.00    -0.358 OA
HETATM   22  H   UNL     1      41.630 -10.538   7.962  1.00  0.00     0.218 HD
ENDBRANCH  16  21
ENDBRANCH   8  13
BRANCH   9  23
HETATM   23  C   UNL     1      43.087 -16.133   5.018  1.00  0.00     0.131 C 
HETATM   24  C   UNL     1      44.271 -16.162   5.954  1.00  0.00     0.091 C 
HETATM   25  O   UNL     1      41.997 -16.575   5.375  1.00  0.00    -0.298 OA
ENDBRANCH   9  23
BRANCH  10  26
HETATM   26  O   UNL     1      43.524 -16.144   1.272  1.00  0.00    -0.389 OA
HETATM   27  H   UNL     1      42.932 -16.427   0.554  1.00  0.00     0.210 HD
ENDBRANCH  10  26
TORSDOF 5
ENDMDL
MODEL 4
REMARK VINA RESULT:      -6.9      3.299      5.572
REMARK  5 active torsions:
REMARK  status: ('A' for Active; 'I' for Inactive)
REMARK    1  A    between atoms: C_8  and  C_9 
REMARK    2  A    between atoms: C_11  and  O_12 
REMARK    3  A    between atoms: C_14  and  O_15 
REMARK    4  A    between atoms: C_18  and  C_19 
REMARK    5  A    between atoms: C_22  and  O_23 
ROOT
HETATM    1  C   UNL     1      39.830 -16.041   1.355  1.00  0.00     0.070 C 
HETATM    2  C   UNL     1      39.822 -14.640   1.836  1.00  0.00     0.033 A 
HETATM    3  N   UNL     1      39.362 -13.619   1.046  1.00  0.00    -0.282 N 
HETATM    4  H   UNL     1      39.014 -13.673   0.095  1.00  0.00     0.189 HD
HETATM    5  N   UNL     1      39.349 -12.425   1.654  1.00  0.00    -0.179 NA
HETATM    6  C   UNL     1      39.833 -12.688   2.870  1.00  0.00     0.066 A 
HETATM    7  C   UNL     1      40.205 -14.048   3.027  1.00  0.00     0.001 A 
HETATM    8  C   UNL     1      40.735 -14.582   4.324  1.00  0.00     0.070 C 
HETATM    9  C   UNL     1      41.196 -13.460   5.300  1.00  0.00     0.102 C 
HETATM   10  C   UNL     1      40.203 -12.262   5.330  1.00  0.00     0.071 C 
HETATM   11  C   UNL     1      40.649 -11.158   6.302  1.00  0.00     0.047 C 
HETATM   12  C   UNL     1      39.941 -11.643   3.928  1.00  0.00     0.100 C 
ENDROOT
BRANCH   8  13
HETATM   13  C   UNL     1      41.799 -15.643   4.074  1.00  0.00    -0.046 A 
HETATM   14  C   UNL     1      42.132 -16.643   5.008  1.00  0.00     0.047 A 
HETATM   15  C   UNL     1      43.098 -17.604   4.706  1.00  0.00     0.101 A 
HETATM   16  C   UNL     1      43.676 -17.624   3.437  1.00  0.00     0.099 A 
HETATM   17  C   UNL     1      43.355 -16.664   2.491  1.00  0.00     0.040 A 
HETATM   18  C   UNL     1      42.427 -15.672   2.812  1.00  0.00     0.011 A 
BRANCH  15  19
HETATM   19  O   UNL     1      43.497 -18.586   5.576  1.00  0.00    -0.353 OA
HETATM   20  C   UNL     1      43.440 -18.166   6.940  1.00  0.00     0.210 C 
ENDBRANCH  15  19
BRANCH  16  21
HETATM   21  O   UNL     1      44.583 -18.591   3.108  1.00  0.00    -0.358 OA
HETATM   22  H   UNL     1      44.325 -18.886   2.213  1.00  0.00     0.218 HD
ENDBRANCH  16  21
ENDBRANCH   8  13
BRANCH   9  23
HETATM   23  C   UNL     1      42.623 -12.985   5.030  1.00  0.00     0.131 C 
HETATM   24  C   UNL     1      43.640 -13.235   6.117  1.00  0.00     0.091 C 
HETATM   25  O   UNL     1      42.940 -12.388   4.003  1.00  0.00    -0.298 OA
ENDBRANCH   9  23
BRANCH  10  26
HETATM   26  O   UNL     1      38.947 -12.763   5.842  1.00  0.00    -0.389 OA
HETATM   27  H   UNL     1      38.288 -12.048   5.825  1.00  0.00     0.210 HD
ENDBRANCH  10  26
TORSDOF 5
ENDMDL
MODEL 5
REMARK VINA RESULT:      -6.9      2.165      2.745
REMARK  5 active torsions:
REMARK  status: ('A' for Active; 'I' for Inactive)
REMARK    1  A    between atoms: C_8  and  C_9 
REMARK    2  A    between atoms: C_11  and  O_12 
REMARK    3  A    between atoms: C_14  and  O_15 
REMARK    4  A    between atoms: C_18  and  C_19 
REMARK    5  A    between atoms: C_22  and  O_23 
ROOT
HETATM    1  C   UNL     1      43.424 -16.884   2.312  1.00  0.00     0.070 C 
HETATM    2  C   UNL     1      43.299 -16.215   3.628  1.00  0.00     0.033 A 
HETATM    3  N   UNL     1      43.620 -16.865   4.790  1.00  0.00    -0.282 N 
HETATM    4  H   UNL     1      43.938 -17.821   4.905  1.00  0.00     0.189 HD
HETATM    5  N   UNL     1      43.525 -16.098   5.886  1.00  0.00    -0.179 NA
HETATM    6  C   UNL     1      43.115 -14.921   5.409  1.00  0.00     0.066 A 
HETATM    7  C   UNL     1      42.896 -14.947   4.007  1.00  0.00     0.001 A 
HETATM    8  C   UNL     1      42.471 -13.725   3.248  1.00  0.00     0.070 C 
HETATM    9  C   UNL     1      41.927 -12.595   4.169  1.00  0.00     0.102 C 
HETATM   10  C   UNL     1      42.786 -12.420   5.455  1.00  0.00     0.071 C 
HETATM   11  C   UNL     1      42.258 -11.296   6.362  1.00  0.00     0.047 C 
HETATM   12  C   UNL     1      42.932 -13.727   6.282  1.00  0.00     0.100 C 
ENDROOT
BRANCH   8  13
HETATM   13  C   UNL     1      41.519 -14.099   2.119  1.00  0.00    -0.046 A 
HETATM   14  C   UNL     1      41.456 -13.403   0.896  1.00  0.00     0.047 A 
HETATM   15  C   UNL     1      40.580 -13.814  -0.110  1.00  0.00     0.101 A 
HETATM   16  C   UNL     1      39.823 -14.972   0.066  1.00  0.00     0.099 A 
HETATM   17  C   UNL     1      39.878 -15.687   1.251  1.00  0.00     0.040 A 
HETATM   18  C   UNL     1      40.716 -15.246   2.277  1.00  0.00     0.011 A 
BRANCH  15  19
HETATM   19  O   UNL     1      40.439 -13.167  -1.311  1.00  0.00    -0.353 OA
HETATM   20  C   UNL     1      40.913 -11.821  -1.269  1.00  0.00     0.210 C 
ENDBRANCH  15  19
BRANCH  16  21
HETATM   21  O   UNL     1      39.002 -15.417  -0.930  1.00  0.00    -0.358 OA
HETATM   22  H   UNL     1      38.124 -15.043  -0.722  1.00  0.00     0.218 HD
ENDBRANCH  16  21
ENDBRANCH   8  13
BRANCH   9  23
HETATM   23  C   UNL     1      40.448 -12.769   4.515  1.00  0.00     0.131 C 
HETATM   24  C   UNL     1      39.487 -11.776   3.908  1.00  0.00     0.091 C 
HETATM   25  O   UNL     1      40.045 -13.641   5.283  1.00  0.00    -0.298 OA
ENDBRANCH   9  23
BRANCH  10  26
HETATM   26  O   UNL     1      44.105 -12.006   5.032  1.00  0.00    -0.389 OA
HETATM   27  H   UNL     1      44.392 -12.562   4.287  1.00  0.00     0.210 HD
ENDBRANCH  10  26
TORSDOF 5
ENDMDL
MODEL 6
REMARK VINA RESULT:      -6.9      2.767      5.424
REMARK  5 active torsions:
REMARK  status: ('A' for Active; 'I' for Inactive)
REMARK    1  A    between atoms: C_8  and  C_9 
REMARK    2  A    between atoms: C_11  and  O_12 
REMARK    3  A    between atoms: C_14  and  O_15 
REMARK    4  A    between atoms: C_18  and  C_19 
REMARK    5  A    between atoms: C_22  and  O_23 
ROOT
HETATM    1  C   UNL     1      42.417 -15.400   7.151  1.00  0.00     0.070 C 
HETATM    2  C   UNL     1      42.359 -15.870   5.748  1.00  0.00     0.033 A 
HETATM    3  N   UNL     1      42.962 -17.039   5.364  1.00  0.00    -0.282 N 
HETATM    4  H   UNL     1      43.505 -17.679   5.933  1.00  0.00     0.189 HD
HETATM    5  N   UNL     1      42.753 -17.363   4.080  1.00  0.00    -0.179 NA
HETATM    6  C   UNL     1      42.004 -16.358   3.623  1.00  0.00     0.066 A 
HETATM    7  C   UNL     1      41.772 -15.359   4.603  1.00  0.00     0.001 A 
HETATM    8  C   UNL     1      40.921 -14.155   4.325  1.00  0.00     0.070 C 
HETATM    9  C   UNL     1      40.672 -13.925   2.807  1.00  0.00     0.102 C 
HETATM   10  C   UNL     1      40.367 -15.251   2.052  1.00  0.00     0.071 C 
HETATM   11  C   UNL     1      40.108 -15.025   0.554  1.00  0.00     0.047 C 
HETATM   12  C   UNL     1      41.472 -16.330   2.230  1.00  0.00     0.100 C 
ENDROOT
BRANCH   8  13
HETATM   13  C   UNL     1      41.473 -12.931   5.043  1.00  0.00    -0.046 A 
HETATM   14  C   UNL     1      42.832 -12.561   5.014  1.00  0.00     0.047 A 
HETATM   15  C   UNL     1      43.269 -11.410   5.671  1.00  0.00     0.101 A 
HETATM   16  C   UNL     1      42.339 -10.575   6.290  1.00  0.00     0.099 A 
HETATM   17  C   UNL     1      40.993 -10.902   6.318  1.00  0.00     0.040 A 
HETATM   18  C   UNL     1      40.564 -12.081   5.706  1.00  0.00     0.011 A 
BRANCH  15  19
HETATM   19  O   UNL     1      44.579 -11.006   5.714  1.00  0.00    -0.353 OA
HETATM   20  C   UNL     1      45.325 -11.674   6.733  1.00  0.00     0.210 C 
ENDBRANCH  15  19
BRANCH  16  21
HETATM   21  O   UNL     1      42.744  -9.416   6.890  1.00  0.00    -0.358 OA
HETATM   22  H   UNL     1      43.644  -9.254   6.546  1.00  0.00     0.218 HD
ENDBRANCH  16  21
ENDBRANCH   8  13
BRANCH   9  23
HETATM   23  C   UNL     1      41.803 -13.154   2.128  1.00  0.00     0.131 C 
HETATM   24  C   UNL     1      41.482 -11.760   1.644  1.00  0.00     0.091 C 
HETATM   25  O   UNL     1      42.916 -13.641   1.937  1.00  0.00    -0.298 OA
ENDBRANCH   9  23
BRANCH  10  26
HETATM   26  O   UNL     1      39.134 -15.776   2.596  1.00  0.00    -0.389 OA
HETATM   27  H   UNL     1      38.505 -15.931   1.870  1.00  0.00     0.210 HD
ENDBRANCH  10  26
TORSDOF 5
ENDMDL
MODEL 7
REMARK VINA RESULT:      -6.8      3.259      6.530
REMARK  5 active torsions:
REMARK  status: ('A' for Active; 'I' for Inactive)
REMARK    1  A    between atoms: C_8  and  C_9 
REMARK    2  A    between atoms: C_11  and  O_12 
REMARK    3  A    between atoms: C_14  and  O_15 
REMARK    4  A    between atoms: C_18  and  C_19 
REMARK    5  A    between atoms: C_22  and  O_23 
ROOT
HETATM    1  C   UNL     1      44.161 -11.680   3.843  1.00  0.00     0.070 C 
HETATM    2  C   UNL     1      42.898 -11.401   3.122  1.00  0.00     0.033 A 
HETATM    3  N   UNL     1      42.249 -10.202   3.262  1.00  0.00    -0.282 N 
HETATM    4  H   UNL     1      42.508  -9.416   3.846  1.00  0.00     0.189 HD
HETATM    5  N   UNL     1      41.163 -10.078   2.486  1.00  0.00    -0.179 NA
HETATM    6  C   UNL     1      41.107 -11.244   1.838  1.00  0.00     0.066 A 
HETATM    7  C   UNL     1      42.132 -12.140   2.238  1.00  0.00     0.001 A 
HETATM    8  C   UNL     1      42.289 -13.495   1.614  1.00  0.00     0.070 C 
HETATM    9  C   UNL     1      41.031 -13.948   0.820  1.00  0.00     0.102 C 
HETATM   10  C   UNL     1      40.425 -12.795  -0.032  1.00  0.00     0.071 C 
HETATM   11  C   UNL     1      39.189 -13.243  -0.828  1.00  0.00     0.047 C 
HETATM   12  C   UNL     1      40.074 -11.531   0.802  1.00  0.00     0.100 C 
ENDROOT
BRANCH   8  13
HETATM   13  C   UNL     1      42.753 -14.512   2.649  1.00  0.00    -0.046 A 
HETATM   14  C   UNL     1      42.549 -14.356   4.034  1.00  0.00     0.047 A 
HETATM   15  C   UNL     1      42.974 -15.340   4.929  1.00  0.00     0.101 A 
HETATM   16  C   UNL     1      43.529 -16.522   4.441  1.00  0.00     0.099 A 
HETATM   17  C   UNL     1      43.725 -16.711   3.082  1.00  0.00     0.040 A 
HETATM   18  C   UNL     1      43.347 -15.705   2.191  1.00  0.00     0.011 A 
BRANCH  15  19
HETATM   19  O   UNL     1      42.840 -15.243   6.290  1.00  0.00    -0.353 OA
HETATM   20  C   UNL     1      43.402 -14.038   6.812  1.00  0.00     0.210 C 
ENDBRANCH  15  19
BRANCH  16  21
HETATM   21  O   UNL     1      43.900 -17.517   5.300  1.00  0.00    -0.358 OA
HETATM   22  H   UNL     1      43.607 -18.344   4.872  1.00  0.00     0.218 HD
ENDBRANCH  16  21
ENDBRANCH   8  13
BRANCH   9  23
HETATM   23  C   UNL     1      39.967 -14.594   1.706  1.00  0.00     0.131 C 
HETATM   24  C   UNL     1      39.728 -16.072   1.517  1.00  0.00     0.091 C 
HETATM   25  O   UNL     1      39.296 -13.951   2.512  1.00  0.00    -0.298 OA
ENDBRANCH   9  23
BRANCH  10  26
HETATM   26  O   UNL     1      41.419 -12.424  -1.014  1.00  0.00    -0.389 OA
HETATM   27  H   UNL     1      41.646 -13.203  -1.550  1.00  0.00     0.210 HD
ENDBRANCH  10  26
TORSDOF 5
ENDMDL
MODEL 8
REMARK VINA RESULT:      -6.7     13.711     15.712
REMARK  5 active torsions:
REMARK  status: ('A' for Active; 'I' for Inactive)
REMARK    1  A    between atoms: C_8  and  C_9 
REMARK    2  A    between atoms: C_11  and  O_12 
REMARK    3  A    between atoms: C_14  and  O_15 
REMARK    4  A    between atoms: C_18  and  C_19 
REMARK    5  A    between atoms: C_22  and  O_23 
ROOT
HETATM    1  C   UNL     1      47.350 -27.522  -1.484  1.00  0.00     0.070 C 
HETATM    2  C   UNL     1      46.832 -28.080  -0.214  1.00  0.00     0.033 A 
HETATM    3  N   UNL     1      47.515 -27.923   0.963  1.00  0.00    -0.282 N 
HETATM    4  H   UNL     1      48.406 -27.463   1.113  1.00  0.00     0.189 HD
HETATM    5  N   UNL     1      46.877 -28.419   2.033  1.00  0.00    -0.179 NA
HETATM    6  C   UNL     1      45.753 -28.925   1.519  1.00  0.00     0.066 A 
HETATM    7  C   UNL     1      45.693 -28.798   0.107  1.00  0.00     0.001 A 
HETATM    8  C   UNL     1      44.504 -29.260  -0.681  1.00  0.00     0.070 C 
HETATM    9  C   UNL     1      43.574 -30.213   0.123  1.00  0.00     0.102 C 
HETATM   10  C   UNL     1      43.363 -29.732   1.588  1.00  0.00     0.071 C 
HETATM   11  C   UNL     1      42.435 -30.664   2.382  1.00  0.00     0.047 C 
HETATM   12  C   UNL     1      44.692 -29.535   2.370  1.00  0.00     0.100 C 
ENDROOT
BRANCH   8  13
HETATM   13  C   UNL     1      44.939 -29.828  -2.026  1.00  0.00    -0.046 A 
HETATM   14  C   UNL     1      46.057 -30.670  -2.187  1.00  0.00     0.047 A 
HETATM   15  C   UNL     1      46.387 -31.181  -3.443  1.00  0.00     0.101 A 
HETATM   16  C   UNL     1      45.554 -30.923  -4.531  1.00  0.00     0.099 A 
HETATM   17  C   UNL     1      44.436 -30.114  -4.399  1.00  0.00     0.040 A 
HETATM   18  C   UNL     1      44.136 -29.561  -3.153  1.00  0.00     0.011 A 
BRANCH  15  19
HETATM   19  O   UNL     1      47.477 -31.977  -3.682  1.00  0.00    -0.353 OA
HETATM   20  C   UNL     1      48.463 -31.881  -2.652  1.00  0.00     0.210 C 
ENDBRANCH  15  19
BRANCH  16  21
HETATM   21  O   UNL     1      45.832 -31.461  -5.756  1.00  0.00    -0.358 OA
HETATM   22  H   UNL     1      46.143 -32.368  -5.570  1.00  0.00     0.218 HD
ENDBRANCH  16  21
ENDBRANCH   8  13
BRANCH   9  23
HETATM   23  C   UNL     1      44.036 -31.669   0.085  1.00  0.00     0.131 C 
HETATM   24  C   UNL     1      43.199 -32.627  -0.729  1.00  0.00     0.091 C 
HETATM   25  O   UNL     1      45.014 -32.072   0.712  1.00  0.00    -0.298 OA
ENDBRANCH   9  23
BRANCH  10  26
HETATM   26  O   UNL     1      42.687 -28.455   1.523  1.00  0.00    -0.389 OA
HETATM   27  H   UNL     1      41.800 -28.582   1.144  1.00  0.00     0.210 HD
ENDBRANCH  10  26
TORSDOF 5
ENDMDL
MODEL 9
REMARK VINA RESULT:      -6.6      3.142      5.981
REMARK  5 active torsions:
REMARK  status: ('A' for Active; 'I' for Inactive)
REMARK    1  A    between atoms: C_8  and  C_9 
REMARK    2  A    between atoms: C_11  and  O_12 
REMARK    3  A    between atoms: C_14  and  O_15 
REMARK    4  A    between atoms: C_18  and  C_19 
REMARK    5  A    between atoms: C_22  and  O_23 
ROOT
HETATM    1  C   UNL     1      43.914 -13.539   6.324  1.00  0.00     0.070 C 
HETATM    2  C   UNL     1      42.834 -12.677   5.791  1.00  0.00     0.033 A 
HETATM    3  N   UNL     1      42.140 -11.820   6.605  1.00  0.00    -0.282 N 
HETATM    4  H   UNL     1      42.245 -11.685   7.604  1.00  0.00     0.189 HD
HETATM    5  N   UNL     1      41.250 -11.056   5.957  1.00  0.00    -0.179 NA
HETATM    6  C   UNL     1      41.367 -11.450   4.687  1.00  0.00     0.066 A 
HETATM    7  C   UNL     1      42.301 -12.506   4.526  1.00  0.00     0.001 A 
HETATM    8  C   UNL     1      42.625 -13.080   3.179  1.00  0.00     0.070 C 
HETATM    9  C   UNL     1      41.584 -12.697   2.088  1.00  0.00     0.102 C 
HETATM   10  C   UNL     1      41.153 -11.205   2.184  1.00  0.00     0.071 C 
HETATM   11  C   UNL     1      40.133 -10.820   1.100  1.00  0.00     0.047 C 
HETATM   12  C   UNL     1      40.595 -10.813   3.581  1.00  0.00     0.100 C 
ENDROOT
BRANCH   8  13
HETATM   13  C   UNL     1      42.874 -14.579   3.281  1.00  0.00    -0.046 A 
HETATM   14  C   UNL     1      42.534 -15.347   4.412  1.00  0.00     0.047 A 
HETATM   15  C   UNL     1      42.764 -16.724   4.431  1.00  0.00     0.101 A 
HETATM   16  C   UNL     1      43.255 -17.356   3.289  1.00  0.00     0.099 A 
HETATM   17  C   UNL     1      43.581 -16.629   2.155  1.00  0.00     0.040 A 
HETATM   18  C   UNL     1      43.400 -15.245   2.155  1.00  0.00     0.011 A 
BRANCH  15  19
HETATM   19  O   UNL     1      42.490 -17.529   5.507  1.00  0.00    -0.353 OA
HETATM   20  C   UNL     1      43.426 -17.357   6.572  1.00  0.00     0.210 C 
ENDBRANCH  15  19
BRANCH  16  21
HETATM   21  O   UNL     1      43.434 -18.710   3.274  1.00  0.00    -0.358 OA
HETATM   22  H   UNL     1      42.840 -19.053   3.969  1.00  0.00     0.218 HD
ENDBRANCH  16  21
ENDBRANCH   8  13
BRANCH   9  23
HETATM   23  C   UNL     1      40.367 -13.621   2.075  1.00  0.00     0.131 C 
HETATM   24  C   UNL     1      40.133 -14.420   0.815  1.00  0.00     0.091 C 
HETATM   25  O   UNL     1      39.579 -13.694   3.017  1.00  0.00    -0.298 OA
ENDBRANCH   9  23
BRANCH  10  26
HETATM   26  O   UNL     1      42.329 -10.404   1.929  1.00  0.00    -0.389 OA
HETATM   27  H   UNL     1      42.313 -10.097   1.006  1.00  0.00     0.210 HD
ENDBRANCH  10  26
TORSDOF 5
ENDMDL
MODEL 10
REMARK VINA RESULT:      -6.6      3.062      5.838
REMARK  5 active torsions:
REMARK  status: ('A' for Active; 'I' for Inactive)
REMARK    1  A    between atoms: C_8  and  C_9 
REMARK    2  A    between atoms: C_11  and  O_12 
REMARK    3  A    between atoms: C_14  and  O_15 
REMARK    4  A    between atoms: C_18  and  C_19 
REMARK    5  A    between atoms: C_22  and  O_23 
ROOT
HETATM    1  C   UNL     1      40.442 -16.092   1.981  1.00  0.00     0.070 C 
HETATM    2  C   UNL     1      40.842 -14.687   1.737  1.00  0.00     0.033 A 
HETATM    3  N   UNL     1      41.081 -14.224   0.470  1.00  0.00    -0.282 N 
HETATM    4  H   UNL     1      41.043 -14.741  -0.402  1.00  0.00     0.189 HD
HETATM    5  N   UNL     1      41.358 -12.914   0.412  1.00  0.00    -0.179 NA
HETATM    6  C   UNL     1      41.311 -12.528   1.689  1.00  0.00     0.066 A 
HETATM    7  C   UNL     1      41.051 -13.605   2.575  1.00  0.00     0.001 A 
HETATM    8  C   UNL     1      40.913 -13.401   4.055  1.00  0.00     0.070 C 
HETATM    9  C   UNL     1      41.463 -12.025   4.532  1.00  0.00     0.102 C 
HETATM   10  C   UNL     1      41.063 -10.867   3.573  1.00  0.00     0.071 C 
HETATM   11  C   UNL     1      41.594  -9.505   4.048  1.00  0.00     0.047 C 
HETATM   12  C   UNL     1      41.499 -11.107   2.100  1.00  0.00     0.100 C 
ENDROOT
BRANCH   8  13
HETATM   13  C   UNL     1      41.495 -14.584   4.817  1.00  0.00    -0.046 A 
HETATM   14  C   UNL     1      42.637 -15.293   4.396  1.00  0.00     0.047 A 
HETATM   15  C   UNL     1      43.136 -16.352   5.155  1.00  0.00     0.101 A 
HETATM   16  C   UNL     1      42.549 -16.656   6.383  1.00  0.00     0.099 A 
HETATM   17  C   UNL     1      41.436 -15.964   6.832  1.00  0.00     0.040 A 
HETATM   18  C   UNL     1      40.905 -14.939   6.047  1.00  0.00     0.011 A 
BRANCH  15  19
HETATM   19  O   UNL     1      44.221 -17.107   4.792  1.00  0.00    -0.353 OA
HETATM   20  C   UNL     1      43.901 -18.090   3.806  1.00  0.00     0.210 C 
ENDBRANCH  15  19
BRANCH  16  21
HETATM   21  O   UNL     1      43.059 -17.654   7.164  1.00  0.00    -0.358 OA
HETATM   22  H   UNL     1      42.575 -17.587   8.009  1.00  0.00     0.218 HD
ENDBRANCH  16  21
ENDBRANCH   8  13
BRANCH   9  23
HETATM   23  C   UNL     1      42.971 -12.039   4.779  1.00  0.00     0.131 C 
HETATM   24  C   UNL     1      43.426 -11.977   6.217  1.00  0.00     0.091 C 
HETATM   25  O   UNL     1      43.792 -12.056   3.863  1.00  0.00    -0.298 OA
ENDBRANCH   9  23
BRANCH  10  26
HETATM   26  O   UNL     1      39.621 -10.767   3.604  1.00  0.00    -0.389 OA
HETATM   27  H   UNL     1      39.246 -11.337   2.910  1.00  0.00     0.210 HD
ENDBRANCH  10  26
TORSDOF 5
ENDMDL
