MODEL 1
REMARK VINA RESULT:      -9.0      0.000      0.000
REMARK  7 active torsions:
REMARK  status: ('A' for Active; 'I' for Inactive)
REMARK    1  A    between atoms: C_3  and  C_4 
REMARK       I    between atoms: C_4  and  N_5 
REMARK    2  A    between atoms: N_8  and  C_9 
REMARK    3  A    between atoms: C_12  and  N_13 
REMARK    4  A    between atoms: N_13  and  C_14 
REMARK    5  A    between atoms: C_14  and  N_15 
REMARK       I    between atoms: N_15  and  C_16 
REMARK    6  A    between atoms: C_16  and  C_17 
REMARK    7  A    between atoms: C_18  and  O_19 
ROOT
HETATM    1  C   UNL     1      42.746 -11.690   4.887  1.00  0.00     0.030 A 
HETATM    2  C   UNL     1      41.380 -11.807   4.586  1.00  0.00     0.031 A 
HETATM    3  C   UNL     1      40.930 -12.270   3.336  1.00  0.00     0.032 A 
HETATM    4  C   UNL     1      41.843 -12.594   2.334  1.00  0.00     0.034 A 
HETATM    5  C   UNL     1      43.198 -12.568   2.646  1.00  0.00     0.032 A 
HETATM    6  C   UNL     1      43.638 -12.120   3.896  1.00  0.00     0.031 A 
ENDROOT
BRANCH   4   7
HETATM    7  N   UNL     1      41.352 -12.970   1.067  1.00  0.00    -0.333 N 
HETATM    8  H   UNL     1      41.410 -12.267   0.331  1.00  0.00     0.168 HD
BRANCH   7   9
HETATM    9  C   UNL     1      40.956 -14.211   0.620  1.00  0.00     0.179 C 
HETATM   10  S   UNL     1      39.824 -14.602  -0.553  1.00  0.00    -0.040 SA
BRANCH   9  11
HETATM   11  N   UNL     1      41.567 -15.283   1.235  1.00  0.00    -0.299 N 
HETATM   12  C   UNL     1      41.214 -15.977   2.382  1.00  0.00     0.260 C 
HETATM   13  O   UNL     1      40.076 -15.983   2.844  1.00  0.00    -0.267 OA
HETATM   14  H   UNL     1      42.505 -15.445   0.884  1.00  0.00     0.171 HD
BRANCH  12  15
HETATM   15  C   UNL     1      42.293 -16.830   2.974  1.00  0.00     0.065 A 
HETATM   16  C   UNL     1      42.929 -16.527   4.197  1.00  0.00     0.084 A 
HETATM   17  C   UNL     1      43.944 -17.367   4.671  1.00  0.00     0.038 A 
HETATM   18  C   UNL     1      44.310 -18.508   3.953  1.00  0.00     0.003 A 
HETATM   19  C   UNL     1      43.666 -18.821   2.759  1.00  0.00     0.001 A 
HETATM   20  C   UNL     1      42.659 -17.987   2.271  1.00  0.00     0.020 A 
BRANCH  16  21
HETATM   21  O   UNL     1      42.542 -15.385   4.851  1.00  0.00    -0.355 OA
HETATM   22  C   UNL     1      43.202 -15.087   6.078  1.00  0.00     0.210 C 
ENDBRANCH  16  21
ENDBRANCH  12  15
ENDBRANCH   9  11
ENDBRANCH   7   9
ENDBRANCH   4   7
BRANCH   1  23
HETATM   23  N   UNL     1      43.172 -11.090   6.075  1.00  0.00    -0.378 N 
HETATM   24  C   UNL     1      44.521 -11.416   6.581  1.00  0.00     0.143 C 
HETATM   25  C   UNL     1      45.002 -10.343   7.563  1.00  0.00     0.146 C 
HETATM   26  N   UNL     1      44.036 -10.043   8.621  1.00  0.00    -0.345 N 
HETATM   27  C   UNL     1      44.557  -9.491   9.790  1.00  0.00     0.254 C 
HETATM   28  C   UNL     1      42.643  -9.875   8.174  1.00  0.00     0.146 C 
HETATM   29  O   UNL     1      45.751  -9.504  10.080  1.00  0.00    -0.267 OA
HETATM   30  C   UNL     1      42.181 -10.949   7.162  1.00  0.00     0.143 C 
BRANCH  27  31
HETATM   31  C   UNL     1      43.639  -8.849  10.749  1.00  0.00     0.038 A 
HETATM   32  C   UNL     1      43.199  -7.525  10.581  1.00  0.00    -0.046 A 
HETATM   33  C   UNL     1      43.575  -6.684   9.396  1.00  0.00     0.049 C 
HETATM   34  C   UNL     1      42.353  -6.980  11.560  1.00  0.00     0.007 A 
HETATM   35  C   UNL     1      41.998  -7.719  12.691  1.00  0.00     0.001 A 
HETATM   36  C   UNL     1      42.474  -9.018  12.861  1.00  0.00     0.001 A 
HETATM   37  C   UNL     1      43.296  -9.586  11.891  1.00  0.00     0.017 A 
ENDBRANCH  27  31
ENDBRANCH   1  23
TORSDOF 7
ENDMDL
MODEL 2
REMARK VINA RESULT:      -9.0      3.050     10.648
REMARK  7 active torsions:
REMARK  status: ('A' for Active; 'I' for Inactive)
REMARK    1  A    between atoms: C_3  and  C_4 
REMARK       I    between atoms: C_4  and  N_5 
REMARK    2  A    between atoms: N_8  and  C_9 
REMARK    3  A    between atoms: C_12  and  N_13 
REMARK    4  A    between atoms: N_13  and  C_14 
REMARK    5  A    between atoms: C_14  and  N_15 
REMARK       I    between atoms: N_15  and  C_16 
REMARK    6  A    between atoms: C_16  and  C_17 
REMARK    7  A    between atoms: C_18  and  O_19 
ROOT
HETATM    1  C   UNL     1      43.229 -11.019   6.779  1.00  0.00     0.030 A 
HETATM    2  C   UNL     1      42.297  -9.969   6.793  1.00  0.00     0.031 A 
HETATM    3  C   UNL     1      42.525  -8.781   7.510  1.00  0.00     0.032 A 
HETATM    4  C   UNL     1      43.685  -8.627   8.267  1.00  0.00     0.034 A 
HETATM    5  C   UNL     1      44.656  -9.619   8.192  1.00  0.00     0.032 A 
HETATM    6  C   UNL     1      44.429 -10.792   7.465  1.00  0.00     0.031 A 
ENDROOT
BRANCH   4   7
HETATM    7  N   UNL     1      43.837  -7.457   9.042  1.00  0.00    -0.333 N 
HETATM    8  H   UNL     1      44.764  -7.032   9.044  1.00  0.00     0.168 HD
BRANCH   7   9
HETATM    9  C   UNL     1      42.875  -6.698   9.669  1.00  0.00     0.179 C 
HETATM   10  S   UNL     1      41.810  -5.584   9.008  1.00  0.00    -0.040 SA
BRANCH   9  11
HETATM   11  N   UNL     1      42.785  -6.866  11.034  1.00  0.00    -0.299 N 
HETATM   12  C   UNL     1      43.184  -7.925  11.833  1.00  0.00     0.260 C 
HETATM   13  O   UNL     1      44.032  -8.746  11.493  1.00  0.00    -0.267 OA
HETATM   14  H   UNL     1      42.164  -6.188  11.464  1.00  0.00     0.171 HD
BRANCH  12  15
HETATM   15  C   UNL     1      42.597  -7.947  13.211  1.00  0.00     0.065 A 
HETATM   16  C   UNL     1      41.605  -8.868  13.610  1.00  0.00     0.084 A 
HETATM   17  C   UNL     1      41.094  -8.807  14.912  1.00  0.00     0.038 A 
HETATM   18  C   UNL     1      41.577  -7.859  15.817  1.00  0.00     0.003 A 
HETATM   19  C   UNL     1      42.572  -6.966  15.432  1.00  0.00     0.001 A 
HETATM   20  C   UNL     1      43.085  -7.010  14.134  1.00  0.00     0.020 A 
BRANCH  16  21
HETATM   21  O   UNL     1      41.156  -9.765  12.675  1.00  0.00    -0.355 OA
HETATM   22  C   UNL     1      39.744  -9.887  12.521  1.00  0.00     0.210 C 
ENDBRANCH  16  21
ENDBRANCH  12  15
ENDBRANCH   9  11
ENDBRANCH   7   9
ENDBRANCH   4   7
BRANCH   1  23
HETATM   23  N   UNL     1      42.921 -12.246   6.185  1.00  0.00    -0.378 N 
HETATM   24  C   UNL     1      41.501 -12.568   5.937  1.00  0.00     0.143 C 
HETATM   25  C   UNL     1      41.375 -13.666   4.875  1.00  0.00     0.146 C 
HETATM   26  N   UNL     1      42.204 -14.841   5.147  1.00  0.00    -0.345 N 
HETATM   27  C   UNL     1      41.793 -16.033   4.552  1.00  0.00     0.254 C 
HETATM   28  C   UNL     1      43.587 -14.555   5.562  1.00  0.00     0.146 C 
HETATM   29  O   UNL     1      40.676 -16.208   4.071  1.00  0.00    -0.267 OA
HETATM   30  C   UNL     1      43.701 -13.427   6.613  1.00  0.00     0.143 C 
BRANCH  27  31
HETATM   31  C   UNL     1      42.738 -17.163   4.488  1.00  0.00     0.038 A 
HETATM   32  C   UNL     1      43.359 -17.542   3.286  1.00  0.00    -0.046 A 
HETATM   33  C   UNL     1      43.160 -16.801   1.995  1.00  0.00     0.049 C 
HETATM   34  C   UNL     1      44.219 -18.652   3.306  1.00  0.00     0.007 A 
HETATM   35  C   UNL     1      44.413 -19.385   4.480  1.00  0.00     0.001 A 
HETATM   36  C   UNL     1      43.760 -19.017   5.656  1.00  0.00     0.001 A 
HETATM   37  C   UNL     1      42.920 -17.906   5.662  1.00  0.00     0.017 A 
ENDBRANCH  27  31
ENDBRANCH   1  23
TORSDOF 7
ENDMDL
MODEL 3
REMARK VINA RESULT:      -8.8      2.031      2.967
REMARK  7 active torsions:
REMARK  status: ('A' for Active; 'I' for Inactive)
REMARK    1  A    between atoms: C_3  and  C_4 
REMARK       I    between atoms: C_4  and  N_5 
REMARK    2  A    between atoms: N_8  and  C_9 
REMARK    3  A    between atoms: C_12  and  N_13 
REMARK    4  A    between atoms: N_13  and  C_14 
REMARK    5  A    between atoms: C_14  and  N_15 
REMARK       I    between atoms: N_15  and  C_16 
REMARK    6  A    between atoms: C_16  and  C_17 
REMARK    7  A    between atoms: C_18  and  O_19 
ROOT
HETATM    1  C   UNL     1      42.354 -10.674   6.347  1.00  0.00     0.030 A 
HETATM    2  C   UNL     1      42.954 -11.943   6.367  1.00  0.00     0.031 A 
HETATM    3  C   UNL     1      43.296 -12.622   5.184  1.00  0.00     0.032 A 
HETATM    4  C   UNL     1      43.011 -12.060   3.940  1.00  0.00     0.034 A 
HETATM    5  C   UNL     1      42.500 -10.768   3.905  1.00  0.00     0.032 A 
HETATM    6  C   UNL     1      42.174 -10.093   5.086  1.00  0.00     0.031 A 
ENDROOT
BRANCH   4   7
HETATM    7  N   UNL     1      43.290 -12.810   2.779  1.00  0.00    -0.333 N 
HETATM    8  H   UNL     1      44.272 -12.889   2.515  1.00  0.00     0.168 HD
BRANCH   7   9
HETATM    9  C   UNL     1      42.448 -13.603   2.032  1.00  0.00     0.179 C 
HETATM   10  S   UNL     1      41.261 -13.149   0.938  1.00  0.00    -0.040 SA
BRANCH   9  11
HETATM   11  N   UNL     1      42.591 -14.961   2.221  1.00  0.00    -0.299 N 
HETATM   12  C   UNL     1      42.327 -15.742   3.335  1.00  0.00     0.260 C 
HETATM   13  O   UNL     1      41.562 -15.399   4.234  1.00  0.00    -0.267 OA
HETATM   14  H   UNL     1      43.147 -15.394   1.492  1.00  0.00     0.171 HD
BRANCH  12  15
HETATM   15  C   UNL     1      42.948 -17.104   3.327  1.00  0.00     0.065 A 
HETATM   16  C   UNL     1      43.858 -17.541   4.313  1.00  0.00     0.084 A 
HETATM   17  C   UNL     1      44.410 -18.824   4.220  1.00  0.00     0.038 A 
HETATM   18  C   UNL     1      44.047 -19.675   3.174  1.00  0.00     0.003 A 
HETATM   19  C   UNL     1      43.130 -19.254   2.214  1.00  0.00     0.001 A 
HETATM   20  C   UNL     1      42.579 -17.974   2.290  1.00  0.00     0.020 A 
BRANCH  16  21
HETATM   21  O   UNL     1      44.192 -16.657   5.308  1.00  0.00    -0.355 OA
HETATM   22  C   UNL     1      43.837 -17.019   6.640  1.00  0.00     0.210 C 
ENDBRANCH  16  21
ENDBRANCH  12  15
ENDBRANCH   9  11
ENDBRANCH   7   9
ENDBRANCH   4   7
BRANCH   1  23
HETATM   23  N   UNL     1      41.886 -10.082   7.523  1.00  0.00    -0.378 N 
HETATM   24  C   UNL     1      40.688  -9.220   7.447  1.00  0.00     0.143 C 
HETATM   25  C   UNL     1      40.043  -9.070   8.829  1.00  0.00     0.146 C 
HETATM   26  N   UNL     1      40.986  -8.671   9.875  1.00  0.00    -0.345 N 
HETATM   27  C   UNL     1      40.435  -8.044  10.990  1.00  0.00     0.254 C 
HETATM   28  C   UNL     1      42.267  -9.397   9.879  1.00  0.00     0.146 C 
HETATM   29  O   UNL     1      39.300  -7.573  11.021  1.00  0.00    -0.267 OA
HETATM   30  C   UNL     1      42.892  -9.565   8.475  1.00  0.00     0.143 C 
BRANCH  27  31
HETATM   31  C   UNL     1      41.246  -7.925  12.217  1.00  0.00     0.038 A 
HETATM   32  C   UNL     1      41.174  -8.878  13.247  1.00  0.00    -0.046 A 
HETATM   33  C   UNL     1      40.321 -10.111  13.162  1.00  0.00     0.049 C 
HETATM   34  C   UNL     1      41.954  -8.670  14.396  1.00  0.00     0.007 A 
HETATM   35  C   UNL     1      42.742  -7.524  14.528  1.00  0.00     0.001 A 
HETATM   36  C   UNL     1      42.773  -6.570  13.512  1.00  0.00     0.001 A 
HETATM   37  C   UNL     1      42.024  -6.768  12.355  1.00  0.00     0.017 A 
ENDBRANCH  27  31
ENDBRANCH   1  23
TORSDOF 7
ENDMDL
MODEL 4
REMARK VINA RESULT:      -8.8      1.052      1.783
REMARK  7 active torsions:
REMARK  status: ('A' for Active; 'I' for Inactive)
REMARK    1  A    between atoms: C_3  and  C_4 
REMARK       I    between atoms: C_4  and  N_5 
REMARK    2  A    between atoms: N_8  and  C_9 
REMARK    3  A    between atoms: C_12  and  N_13 
REMARK    4  A    between atoms: N_13  and  C_14 
REMARK    5  A    between atoms: C_14  and  N_15 
REMARK       I    between atoms: N_15  and  C_16 
REMARK    6  A    between atoms: C_16  and  C_17 
REMARK    7  A    between atoms: C_18  and  O_19 
ROOT
HETATM    1  C   UNL     1      42.698 -11.147   5.061  1.00  0.00     0.030 A 
HETATM    2  C   UNL     1      43.635 -11.652   4.145  1.00  0.00     0.031 A 
HETATM    3  C   UNL     1      43.241 -12.310   2.965  1.00  0.00     0.032 A 
HETATM    4  C   UNL     1      41.890 -12.512   2.688  1.00  0.00     0.034 A 
HETATM    5  C   UNL     1      40.952 -11.941   3.540  1.00  0.00     0.032 A 
HETATM    6  C   UNL     1      41.350 -11.276   4.704  1.00  0.00     0.031 A 
ENDROOT
BRANCH   4   7
HETATM    7  N   UNL     1      41.539 -13.252   1.540  1.00  0.00    -0.333 N 
HETATM    8  H   UNL     1      41.733 -12.813   0.640  1.00  0.00     0.168 HD
BRANCH   7   9
HETATM    9  C   UNL     1      41.125 -14.562   1.441  1.00  0.00     0.179 C 
HETATM   10  S   UNL     1      39.880 -15.212   0.525  1.00  0.00    -0.040 SA
BRANCH   9  11
HETATM   11  N   UNL     1      41.823 -15.462   2.217  1.00  0.00    -0.299 N 
HETATM   12  C   UNL     1      43.094 -15.988   2.053  1.00  0.00     0.260 C 
HETATM   13  O   UNL     1      43.966 -15.450   1.374  1.00  0.00    -0.267 OA
HETATM   14  H   UNL     1      41.227 -15.932   2.890  1.00  0.00     0.171 HD
BRANCH  12  15
HETATM   15  C   UNL     1      43.391 -17.216   2.858  1.00  0.00     0.065 A 
HETATM   16  C   UNL     1      43.669 -17.181   4.241  1.00  0.00     0.084 A 
HETATM   17  C   UNL     1      43.956 -18.373   4.916  1.00  0.00     0.038 A 
HETATM   18  C   UNL     1      43.945 -19.592   4.233  1.00  0.00     0.003 A 
HETATM   19  C   UNL     1      43.647 -19.631   2.873  1.00  0.00     0.001 A 
HETATM   20  C   UNL     1      43.367 -18.448   2.187  1.00  0.00     0.020 A 
BRANCH  16  21
HETATM   21  O   UNL     1      43.683 -15.955   4.857  1.00  0.00    -0.355 OA
HETATM   22  C   UNL     1      43.974 -15.936   6.252  1.00  0.00     0.210 C 
ENDBRANCH  16  21
ENDBRANCH  12  15
ENDBRANCH   9  11
ENDBRANCH   7   9
ENDBRANCH   4   7
BRANCH   1  23
HETATM   23  N   UNL     1      43.105 -10.631   6.294  1.00  0.00    -0.378 N 
HETATM   24  C   UNL     1      44.432 -11.020   6.814  1.00  0.00     0.143 C 
HETATM   25  C   UNL     1      44.911 -10.021   7.873  1.00  0.00     0.146 C 
HETATM   26  N   UNL     1      43.923  -9.763   8.922  1.00  0.00    -0.345 N 
HETATM   27  C   UNL     1      44.425  -9.296  10.135  1.00  0.00     0.254 C 
HETATM   28  C   UNL     1      42.547  -9.534   8.451  1.00  0.00     0.146 C 
HETATM   29  O   UNL     1      45.610  -9.356  10.455  1.00  0.00    -0.267 OA
HETATM   30  C   UNL     1      42.088 -10.532   7.363  1.00  0.00     0.143 C 
BRANCH  27  31
HETATM   31  C   UNL     1      43.496  -8.692  11.109  1.00  0.00     0.038 A 
HETATM   32  C   UNL     1      42.921  -9.444  12.148  1.00  0.00    -0.046 A 
HETATM   33  C   UNL     1      43.247 -10.890  12.386  1.00  0.00     0.049 C 
HETATM   34  C   UNL     1      42.019  -8.800  13.010  1.00  0.00     0.007 A 
HETATM   35  C   UNL     1      41.670  -7.462  12.809  1.00  0.00     0.001 A 
HETATM   36  C   UNL     1      42.220  -6.741  11.751  1.00  0.00     0.001 A 
HETATM   37  C   UNL     1      43.134  -7.355  10.897  1.00  0.00     0.017 A 
ENDBRANCH  27  31
ENDBRANCH   1  23
TORSDOF 7
ENDMDL
MODEL 5
REMARK VINA RESULT:      -8.7      1.831      2.513
REMARK  7 active torsions:
REMARK  status: ('A' for Active; 'I' for Inactive)
REMARK    1  A    between atoms: C_3  and  C_4 
REMARK       I    between atoms: C_4  and  N_5 
REMARK    2  A    between atoms: N_8  and  C_9 
REMARK    3  A    between atoms: C_12  and  N_13 
REMARK    4  A    between atoms: N_13  and  C_14 
REMARK    5  A    between atoms: C_14  and  N_15 
REMARK       I    between atoms: N_15  and  C_16 
REMARK    6  A    between atoms: C_16  and  C_17 
REMARK    7  A    between atoms: C_18  and  O_19 
ROOT
HETATM    1  C   UNL     1      40.270 -10.638   4.093  1.00  0.00     0.030 A 
HETATM    2  C   UNL     1      40.595 -10.370   2.754  1.00  0.00     0.031 A 
HETATM    3  C   UNL     1      40.199 -11.222   1.707  1.00  0.00     0.032 A 
HETATM    4  C   UNL     1      39.493 -12.393   1.980  1.00  0.00     0.034 A 
HETATM    5  C   UNL     1      39.088 -12.625   3.289  1.00  0.00     0.032 A 
HETATM    6  C   UNL     1      39.474 -11.767   4.324  1.00  0.00     0.031 A 
ENDROOT
BRANCH   4   7
HETATM    7  N   UNL     1      39.190 -13.264   0.913  1.00  0.00    -0.333 N 
HETATM    8  H   UNL     1      38.222 -13.271   0.594  1.00  0.00     0.168 HD
BRANCH   7   9
HETATM    9  C   UNL     1      40.044 -13.993   0.115  1.00  0.00     0.179 C 
HETATM   10  S   UNL     1      40.235 -13.946  -1.549  1.00  0.00    -0.040 SA
BRANCH   9  11
HETATM   11  N   UNL     1      40.844 -14.899   0.778  1.00  0.00    -0.299 N 
HETATM   12  C   UNL     1      40.552 -15.745   1.836  1.00  0.00     0.260 C 
HETATM   13  O   UNL     1      39.410 -16.097   2.124  1.00  0.00    -0.267 OA
HETATM   14  H   UNL     1      41.828 -14.770   0.566  1.00  0.00     0.171 HD
BRANCH  12  15
HETATM   15  C   UNL     1      41.739 -16.310   2.554  1.00  0.00     0.065 A 
HETATM   16  C   UNL     1      42.425 -15.616   3.572  1.00  0.00     0.084 A 
HETATM   17  C   UNL     1      43.539 -16.208   4.178  1.00  0.00     0.038 A 
HETATM   18  C   UNL     1      43.955 -17.486   3.797  1.00  0.00     0.003 A 
HETATM   19  C   UNL     1      43.264 -18.182   2.809  1.00  0.00     0.001 A 
HETATM   20  C   UNL     1      42.156 -17.600   2.191  1.00  0.00     0.020 A 
BRANCH  16  21
HETATM   21  O   UNL     1      41.983 -14.358   3.894  1.00  0.00    -0.355 OA
HETATM   22  C   UNL     1      42.863 -13.272   3.614  1.00  0.00     0.210 C 
ENDBRANCH  16  21
ENDBRANCH  12  15
ENDBRANCH   9  11
ENDBRANCH   7   9
ENDBRANCH   4   7
BRANCH   1  23
HETATM   23  N   UNL     1      40.797  -9.863   5.130  1.00  0.00    -0.378 N 
HETATM   24  C   UNL     1      41.357  -8.537   4.800  1.00  0.00     0.143 C 
HETATM   25  C   UNL     1      41.423  -7.653   6.050  1.00  0.00     0.146 C 
HETATM   26  N   UNL     1      42.079  -8.299   7.188  1.00  0.00    -0.345 N 
HETATM   27  C   UNL     1      42.618  -7.446   8.150  1.00  0.00     0.254 C 
HETATM   28  C   UNL     1      41.666  -9.688   7.449  1.00  0.00     0.146 C 
HETATM   29  O   UNL     1      42.818  -6.247   7.968  1.00  0.00    -0.267 OA
HETATM   30  C   UNL     1      41.576 -10.560   6.175  1.00  0.00     0.143 C 
BRANCH  27  31
HETATM   31  C   UNL     1      42.980  -7.995   9.470  1.00  0.00     0.038 A 
HETATM   32  C   UNL     1      44.200  -8.658   9.687  1.00  0.00    -0.046 A 
HETATM   33  C   UNL     1      45.248  -8.808   8.623  1.00  0.00     0.049 C 
HETATM   34  C   UNL     1      44.450  -9.182  10.966  1.00  0.00     0.007 A 
HETATM   35  C   UNL     1      43.492  -9.086  11.978  1.00  0.00     0.001 A 
HETATM   36  C   UNL     1      42.271  -8.458  11.735  1.00  0.00     0.001 A 
HETATM   37  C   UNL     1      42.012  -7.913  10.480  1.00  0.00     0.017 A 
ENDBRANCH  27  31
ENDBRANCH   1  23
TORSDOF 7
ENDMDL
MODEL 6
REMARK VINA RESULT:      -8.5      2.410      3.210
REMARK  7 active torsions:
REMARK  status: ('A' for Active; 'I' for Inactive)
REMARK    1  A    between atoms: C_3  and  C_4 
REMARK       I    between atoms: C_4  and  N_5 
REMARK    2  A    between atoms: N_8  and  C_9 
REMARK    3  A    between atoms: C_12  and  N_13 
REMARK    4  A    between atoms: N_13  and  C_14 
REMARK    5  A    between atoms: C_14  and  N_15 
REMARK       I    between atoms: N_15  and  C_16 
REMARK    6  A    between atoms: C_16  and  C_17 
REMARK    7  A    between atoms: C_18  and  O_19 
ROOT
HETATM    1  C   UNL     1      40.935 -10.463   6.645  1.00  0.00     0.030 A 
HETATM    2  C   UNL     1      42.234 -10.861   6.290  1.00  0.00     0.031 A 
HETATM    3  C   UNL     1      42.487 -11.636   5.144  1.00  0.00     0.032 A 
HETATM    4  C   UNL     1      41.434 -12.065   4.337  1.00  0.00     0.034 A 
HETATM    5  C   UNL     1      40.155 -11.605   4.626  1.00  0.00     0.032 A 
HETATM    6  C   UNL     1      39.912 -10.824   5.760  1.00  0.00     0.031 A 
ENDROOT
BRANCH   4   7
HETATM    7  N   UNL     1      41.720 -12.913   3.246  1.00  0.00    -0.333 N 
HETATM    8  H   UNL     1      42.524 -12.658   2.672  1.00  0.00     0.168 HD
BRANCH   7   9
HETATM    9  C   UNL     1      41.178 -14.138   2.931  1.00  0.00     0.179 C 
HETATM   10  S   UNL     1      39.705 -14.490   2.210  1.00  0.00    -0.040 SA
BRANCH   9  11
HETATM   11  N   UNL     1      41.947 -15.230   3.269  1.00  0.00    -0.299 N 
HETATM   12  C   UNL     1      42.998 -15.829   2.593  1.00  0.00     0.260 C 
HETATM   13  O   UNL     1      43.667 -15.253   1.738  1.00  0.00    -0.267 OA
HETATM   14  H   UNL     1      41.543 -15.764   4.032  1.00  0.00     0.171 HD
BRANCH  12  15
HETATM   15  C   UNL     1      43.354 -17.210   3.051  1.00  0.00     0.065 A 
HETATM   16  C   UNL     1      43.829 -17.491   4.350  1.00  0.00     0.084 A 
HETATM   17  C   UNL     1      44.159 -18.808   4.692  1.00  0.00     0.038 A 
HETATM   18  C   UNL     1      43.997 -19.840   3.765  1.00  0.00     0.003 A 
HETATM   19  C   UNL     1      43.506 -19.568   2.491  1.00  0.00     0.001 A 
HETATM   20  C   UNL     1      43.181 -18.258   2.135  1.00  0.00     0.020 A 
BRANCH  16  21
HETATM   21  O   UNL     1      43.984 -16.437   5.213  1.00  0.00    -0.355 OA
HETATM   22  C   UNL     1      44.117 -16.749   6.598  1.00  0.00     0.210 C 
ENDBRANCH  16  21
ENDBRANCH  12  15
ENDBRANCH   9  11
ENDBRANCH   7   9
ENDBRANCH   4   7
BRANCH   1  23
HETATM   23  N   UNL     1      40.688  -9.823   7.863  1.00  0.00    -0.378 N 
HETATM   24  C   UNL     1      39.535  -8.903   7.951  1.00  0.00     0.143 C 
HETATM   25  C   UNL     1      39.123  -8.692   9.412  1.00  0.00     0.146 C 
HETATM   26  N   UNL     1      40.237  -8.321  10.285  1.00  0.00    -0.345 N 
HETATM   27  C   UNL     1      39.900  -7.643  11.456  1.00  0.00     0.254 C 
HETATM   28  C   UNL     1      41.467  -9.111  10.110  1.00  0.00     0.146 C 
HETATM   29  O   UNL     1      38.808  -7.114  11.650  1.00  0.00    -0.267 OA
HETATM   30  C   UNL     1      41.855  -9.340   8.631  1.00  0.00     0.143 C 
BRANCH  27  31
HETATM   31  C   UNL     1      40.898  -7.541  12.536  1.00  0.00     0.038 A 
HETATM   32  C   UNL     1      41.873  -6.528  12.551  1.00  0.00    -0.046 A 
HETATM   33  C   UNL     1      41.941  -5.446  11.513  1.00  0.00     0.049 C 
HETATM   34  C   UNL     1      42.808  -6.525  13.598  1.00  0.00     0.007 A 
HETATM   35  C   UNL     1      42.796  -7.528  14.571  1.00  0.00     0.001 A 
HETATM   36  C   UNL     1      41.845  -8.546  14.521  1.00  0.00     0.001 A 
HETATM   37  C   UNL     1      40.895  -8.556  13.502  1.00  0.00     0.017 A 
ENDBRANCH  27  31
ENDBRANCH   1  23
TORSDOF 7
ENDMDL
MODEL 7
REMARK VINA RESULT:      -8.4      1.924      3.144
REMARK  7 active torsions:
REMARK  status: ('A' for Active; 'I' for Inactive)
REMARK    1  A    between atoms: C_3  and  C_4 
REMARK       I    between atoms: C_4  and  N_5 
REMARK    2  A    between atoms: N_8  and  C_9 
REMARK    3  A    between atoms: C_12  and  N_13 
REMARK    4  A    between atoms: N_13  and  C_14 
REMARK    5  A    between atoms: C_14  and  N_15 
REMARK       I    between atoms: N_15  and  C_16 
REMARK    6  A    between atoms: C_16  and  C_17 
REMARK    7  A    between atoms: C_18  and  O_19 
ROOT
HETATM    1  C   UNL     1      43.397 -10.412   7.487  1.00  0.00     0.030 A 
HETATM    2  C   UNL     1      42.335 -10.519   6.575  1.00  0.00     0.031 A 
HETATM    3  C   UNL     1      42.501 -11.105   5.306  1.00  0.00     0.032 A 
HETATM    4  C   UNL     1      43.751 -11.568   4.901  1.00  0.00     0.034 A 
HETATM    5  C   UNL     1      44.790 -11.549   5.825  1.00  0.00     0.032 A 
HETATM    6  C   UNL     1      44.615 -10.978   7.090  1.00  0.00     0.031 A 
ENDROOT
BRANCH   4   7
HETATM    7  N   UNL     1      43.896 -12.068   3.590  1.00  0.00    -0.333 N 
HETATM    8  H   UNL     1      44.845 -12.102   3.220  1.00  0.00     0.168 HD
BRANCH   7   9
HETATM    9  C   UNL     1      42.963 -12.683   2.786  1.00  0.00     0.179 C 
HETATM   10  S   UNL     1      41.776 -11.993   1.823  1.00  0.00    -0.040 SA
BRANCH   9  11
HETATM   11  N   UNL     1      42.999 -14.061   2.784  1.00  0.00    -0.299 N 
HETATM   12  C   UNL     1      42.385 -14.974   3.627  1.00  0.00     0.260 C 
HETATM   13  O   UNL     1      41.394 -14.708   4.303  1.00  0.00    -0.267 OA
HETATM   14  H   UNL     1      43.737 -14.425   2.191  1.00  0.00     0.171 HD
BRANCH  12  15
HETATM   15  C   UNL     1      42.937 -16.365   3.580  1.00  0.00     0.065 A 
HETATM   16  C   UNL     1      43.764 -16.899   4.591  1.00  0.00     0.084 A 
HETATM   17  C   UNL     1      44.256 -18.203   4.460  1.00  0.00     0.038 A 
HETATM   18  C   UNL     1      43.913 -18.979   3.350  1.00  0.00     0.003 A 
HETATM   19  C   UNL     1      43.078 -18.462   2.364  1.00  0.00     0.001 A 
HETATM   20  C   UNL     1      42.588 -17.160   2.479  1.00  0.00     0.020 A 
BRANCH  16  21
HETATM   21  O   UNL     1      44.082 -16.087   5.649  1.00  0.00    -0.355 OA
HETATM   22  C   UNL     1      43.920 -16.633   6.956  1.00  0.00     0.210 C 
ENDBRANCH  16  21
ENDBRANCH  12  15
ENDBRANCH   9  11
ENDBRANCH   7   9
ENDBRANCH   4   7
BRANCH   1  23
HETATM   23  N   UNL     1      43.251  -9.696   8.678  1.00  0.00    -0.378 N 
HETATM   24  C   UNL     1      43.920 -10.209   9.891  1.00  0.00     0.143 C 
HETATM   25  C   UNL     1      44.074  -9.097  10.934  1.00  0.00     0.146 C 
HETATM   26  N   UNL     1      42.830  -8.378  11.210  1.00  0.00    -0.345 N 
HETATM   27  C   UNL     1      42.755  -7.733  12.444  1.00  0.00     0.254 C 
HETATM   28  C   UNL     1      42.046  -7.993  10.024  1.00  0.00     0.146 C 
HETATM   29  O   UNL     1      43.517  -7.957  13.381  1.00  0.00    -0.267 OA
HETATM   30  C   UNL     1      41.923  -9.116   8.969  1.00  0.00     0.143 C 
BRANCH  27  31
HETATM   31  C   UNL     1      41.705  -6.720  12.658  1.00  0.00     0.038 A 
HETATM   32  C   UNL     1      40.383  -7.078  12.974  1.00  0.00    -0.046 A 
HETATM   33  C   UNL     1      39.949  -8.501  13.175  1.00  0.00     0.049 C 
HETATM   34  C   UNL     1      39.438  -6.052  13.127  1.00  0.00     0.007 A 
HETATM   35  C   UNL     1      39.793  -4.716  12.925  1.00  0.00     0.001 A 
HETATM   36  C   UNL     1      41.100  -4.380  12.574  1.00  0.00     0.001 A 
HETATM   37  C   UNL     1      42.058  -5.382  12.439  1.00  0.00     0.017 A 
ENDBRANCH  27  31
ENDBRANCH   1  23
TORSDOF 7
ENDMDL
MODEL 8
REMARK VINA RESULT:      -8.2      3.371     10.741
REMARK  7 active torsions:
REMARK  status: ('A' for Active; 'I' for Inactive)
REMARK    1  A    between atoms: C_3  and  C_4 
REMARK       I    between atoms: C_4  and  N_5 
REMARK    2  A    between atoms: N_8  and  C_9 
REMARK    3  A    between atoms: C_12  and  N_13 
REMARK    4  A    between atoms: N_13  and  C_14 
REMARK    5  A    between atoms: C_14  and  N_15 
REMARK       I    between atoms: N_15  and  C_16 
REMARK    6  A    between atoms: C_16  and  C_17 
REMARK    7  A    between atoms: C_18  and  O_19 
ROOT
HETATM    1  C   UNL     1      42.132 -12.463   4.038  1.00  0.00     0.030 A 
HETATM    2  C   UNL     1      42.176 -11.173   4.591  1.00  0.00     0.031 A 
HETATM    3  C   UNL     1      42.749 -10.923   5.851  1.00  0.00     0.032 A 
HETATM    4  C   UNL     1      43.262 -11.972   6.612  1.00  0.00     0.034 A 
HETATM    5  C   UNL     1      43.306 -13.239   6.041  1.00  0.00     0.032 A 
HETATM    6  C   UNL     1      42.747 -13.478   4.781  1.00  0.00     0.031 A 
ENDROOT
BRANCH   4   7
HETATM    7  N   UNL     1      43.748 -11.694   7.907  1.00  0.00    -0.333 N 
HETATM    8  H   UNL     1      43.496 -12.357   8.638  1.00  0.00     0.168 HD
BRANCH   7   9
HETATM    9  C   UNL     1      44.661 -10.744   8.308  1.00  0.00     0.179 C 
HETATM   10  S   UNL     1      46.226 -10.486   7.765  1.00  0.00    -0.040 SA
BRANCH   9  11
HETATM   11  N   UNL     1      44.233  -9.897   9.308  1.00  0.00    -0.299 N 
HETATM   12  C   UNL     1      43.718 -10.182  10.563  1.00  0.00     0.260 C 
HETATM   13  O   UNL     1      43.902 -11.250  11.142  1.00  0.00    -0.267 OA
HETATM   14  H   UNL     1      44.113  -8.945   8.980  1.00  0.00     0.171 HD
BRANCH  12  15
HETATM   15  C   UNL     1      43.005  -9.051  11.237  1.00  0.00     0.065 A 
HETATM   16  C   UNL     1      41.841  -8.452  10.710  1.00  0.00     0.084 A 
HETATM   17  C   UNL     1      41.247  -7.385  11.393  1.00  0.00     0.038 A 
HETATM   18  C   UNL     1      41.787  -6.929  12.598  1.00  0.00     0.003 A 
HETATM   19  C   UNL     1      42.922  -7.534  13.131  1.00  0.00     0.001 A 
HETATM   20  C   UNL     1      43.528  -8.594  12.455  1.00  0.00     0.020 A 
BRANCH  16  21
HETATM   21  O   UNL     1      41.364  -8.929   9.516  1.00  0.00    -0.355 OA
HETATM   22  C   UNL     1      39.987  -9.296   9.469  1.00  0.00     0.210 C 
ENDBRANCH  16  21
ENDBRANCH  12  15
ENDBRANCH   9  11
ENDBRANCH   7   9
ENDBRANCH   4   7
BRANCH   1  23
HETATM   23  N   UNL     1      41.429 -12.714   2.856  1.00  0.00    -0.378 N 
HETATM   24  C   UNL     1      41.554 -14.049   2.236  1.00  0.00     0.143 C 
HETATM   25  C   UNL     1      40.384 -14.313   1.282  1.00  0.00     0.146 C 
HETATM   26  N   UNL     1      40.164 -13.236   0.315  1.00  0.00    -0.345 N 
HETATM   27  C   UNL     1      39.497 -13.590  -0.856  1.00  0.00     0.254 C 
HETATM   28  C   UNL     1      40.199 -11.872   0.871  1.00  0.00     0.146 C 
HETATM   29  O   UNL     1      39.343 -14.749  -1.233  1.00  0.00    -0.267 OA
HETATM   30  C   UNL     1      41.367 -11.630   1.853  1.00  0.00     0.143 C 
BRANCH  27  31
HETATM   31  C   UNL     1      38.937 -12.525  -1.709  1.00  0.00     0.038 A 
HETATM   32  C   UNL     1      39.729 -11.825  -2.635  1.00  0.00    -0.046 A 
HETATM   33  C   UNL     1      41.179 -12.138  -2.871  1.00  0.00     0.049 C 
HETATM   34  C   UNL     1      39.125 -10.802  -3.383  1.00  0.00     0.007 A 
HETATM   35  C   UNL     1      37.785 -10.461  -3.178  1.00  0.00     0.001 A 
HETATM   36  C   UNL     1      37.024 -11.141  -2.228  1.00  0.00     0.001 A 
HETATM   37  C   UNL     1      37.598 -12.174  -1.491  1.00  0.00     0.017 A 
ENDBRANCH  27  31
ENDBRANCH   1  23
TORSDOF 7
ENDMDL
MODEL 9
REMARK VINA RESULT:      -8.1      4.496      7.435
REMARK  7 active torsions:
REMARK  status: ('A' for Active; 'I' for Inactive)
REMARK    1  A    between atoms: C_3  and  C_4 
REMARK       I    between atoms: C_4  and  N_5 
REMARK    2  A    between atoms: N_8  and  C_9 
REMARK    3  A    between atoms: C_12  and  N_13 
REMARK    4  A    between atoms: N_13  and  C_14 
REMARK    5  A    between atoms: C_14  and  N_15 
REMARK       I    between atoms: N_15  and  C_16 
REMARK    6  A    between atoms: C_16  and  C_17 
REMARK    7  A    between atoms: C_18  and  O_19 
ROOT
HETATM    1  C   UNL     1      42.162  -8.379  12.007  1.00  0.00     0.030 A 
HETATM    2  C   UNL     1      42.726  -9.661  11.911  1.00  0.00     0.031 A 
HETATM    3  C   UNL     1      43.217 -10.168  10.694  1.00  0.00     0.032 A 
HETATM    4  C   UNL     1      43.121  -9.413   9.526  1.00  0.00     0.034 A 
HETATM    5  C   UNL     1      42.647  -8.110   9.623  1.00  0.00     0.032 A 
HETATM    6  C   UNL     1      42.173  -7.607  10.839  1.00  0.00     0.031 A 
ENDROOT
BRANCH   4   7
HETATM    7  N   UNL     1      43.545  -9.991   8.310  1.00  0.00    -0.333 N 
HETATM    8  H   UNL     1      44.520 -10.283   8.262  1.00  0.00     0.168 HD
BRANCH   7   9
HETATM    9  C   UNL     1      42.794 -10.380   7.224  1.00  0.00     0.179 C 
HETATM   10  S   UNL     1      41.828  -9.450   6.218  1.00  0.00    -0.040 SA
BRANCH   9  11
HETATM   11  N   UNL     1      42.829 -11.727   6.932  1.00  0.00    -0.299 N 
HETATM   12  C   UNL     1      43.900 -12.544   6.606  1.00  0.00     0.260 C 
HETATM   13  O   UNL     1      45.066 -12.274   6.885  1.00  0.00    -0.267 OA
HETATM   14  H   UNL     1      41.905 -12.105   6.753  1.00  0.00     0.171 HD
BRANCH  12  15
HETATM   15  C   UNL     1      43.539 -13.857   5.981  1.00  0.00     0.065 A 
HETATM   16  C   UNL     1      42.821 -13.962   4.771  1.00  0.00     0.084 A 
HETATM   17  C   UNL     1      42.506 -15.229   4.266  1.00  0.00     0.038 A 
HETATM   18  C   UNL     1      42.919 -16.381   4.940  1.00  0.00     0.003 A 
HETATM   19  C   UNL     1      43.648 -16.278   6.121  1.00  0.00     0.001 A 
HETATM   20  C   UNL     1      43.961 -15.021   6.640  1.00  0.00     0.020 A 
BRANCH  16  21
HETATM   21  O   UNL     1      42.427 -12.799   4.161  1.00  0.00    -0.355 OA
HETATM   22  C   UNL     1      43.223 -12.337   3.073  1.00  0.00     0.210 C 
ENDBRANCH  16  21
ENDBRANCH  12  15
ENDBRANCH   9  11
ENDBRANCH   7   9
ENDBRANCH   4   7
BRANCH   1  23
HETATM   23  N   UNL     1      41.547  -7.952  13.187  1.00  0.00    -0.378 N 
HETATM   24  C   UNL     1      40.677  -6.759  13.133  1.00  0.00     0.143 C 
HETATM   25  C   UNL     1      39.727  -6.728  14.335  1.00  0.00     0.146 C 
HETATM   26  N   UNL     1      40.406  -6.901  15.620  1.00  0.00    -0.345 N 
HETATM   27  C   UNL     1      39.739  -6.401  16.738  1.00  0.00     0.254 C 
HETATM   28  C   UNL     1      41.407  -7.980  15.666  1.00  0.00     0.146 C 
HETATM   29  O   UNL     1      38.799  -5.612  16.678  1.00  0.00    -0.267 OA
HETATM   30  C   UNL     1      42.339  -8.016  14.433  1.00  0.00     0.143 C 
BRANCH  27  31
HETATM   31  C   UNL     1      40.173  -6.830  18.080  1.00  0.00     0.038 A 
HETATM   32  C   UNL     1      41.174  -6.144  18.789  1.00  0.00    -0.046 A 
HETATM   33  C   UNL     1      41.835  -4.900  18.271  1.00  0.00     0.049 C 
HETATM   34  C   UNL     1      41.552  -6.641  20.047  1.00  0.00     0.007 A 
HETATM   35  C   UNL     1      40.981  -7.810  20.557  1.00  0.00     0.001 A 
HETATM   36  C   UNL     1      40.016  -8.499  19.823  1.00  0.00     0.001 A 
HETATM   37  C   UNL     1      39.611  -8.011  18.583  1.00  0.00     0.017 A 
ENDBRANCH  27  31
ENDBRANCH   1  23
TORSDOF 7
ENDMDL
MODEL 10
REMARK VINA RESULT:      -8.0      2.646      3.560
REMARK  7 active torsions:
REMARK  status: ('A' for Active; 'I' for Inactive)
REMARK    1  A    between atoms: C_3  and  C_4 
REMARK       I    between atoms: C_4  and  N_5 
REMARK    2  A    between atoms: N_8  and  C_9 
REMARK    3  A    between atoms: C_12  and  N_13 
REMARK    4  A    between atoms: N_13  and  C_14 
REMARK    5  A    between atoms: C_14  and  N_15 
REMARK       I    between atoms: N_15  and  C_16 
REMARK    6  A    between atoms: C_16  and  C_17 
REMARK    7  A    between atoms: C_18  and  O_19 
ROOT
HETATM    1  C   UNL     1      41.127 -10.991   6.303  1.00  0.00     0.030 A 
HETATM    2  C   UNL     1      40.128 -11.404   5.408  1.00  0.00     0.031 A 
HETATM    3  C   UNL     1      40.380 -12.347   4.395  1.00  0.00     0.032 A 
HETATM    4  C   UNL     1      41.658 -12.877   4.227  1.00  0.00     0.034 A 
HETATM    5  C   UNL     1      42.634 -12.545   5.159  1.00  0.00     0.032 A 
HETATM    6  C   UNL     1      42.373 -11.617   6.173  1.00  0.00     0.031 A 
ENDROOT
BRANCH   4   7
HETATM    7  N   UNL     1      41.891 -13.753   3.146  1.00  0.00    -0.333 N 
HETATM    8  H   UNL     1      42.685 -13.532   2.547  1.00  0.00     0.168 HD
BRANCH   7   9
HETATM    9  C   UNL     1      41.306 -14.969   2.869  1.00  0.00     0.179 C 
HETATM   10  S   UNL     1      39.808 -15.292   2.191  1.00  0.00    -0.040 SA
BRANCH   9  11
HETATM   11  N   UNL     1      42.052 -16.075   3.213  1.00  0.00    -0.299 N 
HETATM   12  C   UNL     1      43.081 -16.708   2.533  1.00  0.00     0.260 C 
HETATM   13  O   UNL     1      43.755 -16.159   1.664  1.00  0.00    -0.267 OA
HETATM   14  H   UNL     1      41.643 -16.590   3.986  1.00  0.00     0.171 HD
BRANCH  12  15
HETATM   15  C   UNL     1      43.407 -18.092   3.005  1.00  0.00     0.065 A 
HETATM   16  C   UNL     1      43.926 -18.365   4.288  1.00  0.00     0.084 A 
HETATM   17  C   UNL     1      44.224 -19.686   4.643  1.00  0.00     0.038 A 
HETATM   18  C   UNL     1      43.989 -20.729   3.745  1.00  0.00     0.003 A 
HETATM   19  C   UNL     1      43.455 -20.463   2.486  1.00  0.00     0.001 A 
HETATM   20  C   UNL     1      43.161 -19.150   2.117  1.00  0.00     0.020 A 
BRANCH  16  21
HETATM   21  O   UNL     1      44.152 -17.301   5.123  1.00  0.00    -0.355 OA
HETATM   22  C   UNL     1      43.542 -17.347   6.411  1.00  0.00     0.210 C 
ENDBRANCH  16  21
ENDBRANCH  12  15
ENDBRANCH   9  11
ENDBRANCH   7   9
ENDBRANCH   4   7
BRANCH   1  23
HETATM   23  N   UNL     1      40.899  -9.948   7.204  1.00  0.00    -0.378 N 
HETATM   24  C   UNL     1      39.559  -9.829   7.815  1.00  0.00     0.143 C 
HETATM   25  C   UNL     1      39.623  -8.988   9.095  1.00  0.00     0.146 C 
HETATM   26  N   UNL     1      40.301  -7.703   8.917  1.00  0.00    -0.345 N 
HETATM   27  C   UNL     1      39.976  -6.705   9.833  1.00  0.00     0.254 C 
HETATM   28  C   UNL     1      41.565  -7.756   8.162  1.00  0.00     0.146 C 
HETATM   29  O   UNL     1      38.993  -6.746  10.570  1.00  0.00    -0.267 OA
HETATM   30  C   UNL     1      41.494  -8.631   6.890  1.00  0.00     0.143 C 
BRANCH  27  31
HETATM   31  C   UNL     1      40.848  -5.521   9.940  1.00  0.00     0.038 A 
HETATM   32  C   UNL     1      41.906  -5.461  10.864  1.00  0.00    -0.046 A 
HETATM   33  C   UNL     1      42.269  -6.606  11.765  1.00  0.00     0.049 C 
HETATM   34  C   UNL     1      42.665  -4.282  10.924  1.00  0.00     0.007 A 
HETATM   35  C   UNL     1      42.347  -3.184  10.122  1.00  0.00     0.001 A 
HETATM   36  C   UNL     1      41.271  -3.246   9.238  1.00  0.00     0.001 A 
HETATM   37  C   UNL     1      40.518  -4.415   9.146  1.00  0.00     0.017 A 
ENDBRANCH  27  31
ENDBRANCH   1  23
TORSDOF 7
ENDMDL
