MODEL 1
REMARK VINA RESULT:      -8.3      0.000      0.000
REMARK  5 active torsions:
REMARK  status: ('A' for Active; 'I' for Inactive)
REMARK    1  A    between atoms: O_2  and  C_3 
REMARK    2  A    between atoms: C_4  and  N_5 
REMARK       I    between atoms: N_5  and  C_6 
REMARK    3  A    between atoms: C_6  and  C_7 
REMARK    4  A    between atoms: C_8  and  S_9 
REMARK    5  A    between atoms: S_9  and  C_10 
ROOT
HETATM    1  C   UNL     1      42.644 -13.760   2.584  1.00  0.00     0.068 A 
HETATM    2  C   UNL     1      41.323 -13.407   2.330  1.00  0.00     0.113 A 
HETATM    3  N   UNL     1      40.847 -12.165   2.621  1.00  0.00    -0.253 NA
HETATM    4  C   UNL     1      41.709 -11.270   3.154  1.00  0.00     0.118 A 
HETATM    5  C   UNL     1      43.040 -11.544   3.424  1.00  0.00     0.020 A 
HETATM    6  C   UNL     1      43.517 -12.816   3.132  1.00  0.00     0.021 A 
ENDROOT
BRANCH   1   7
HETATM    7  C   UNL     1      43.168 -15.102   2.299  1.00  0.00     0.259 C 
HETATM    8  N   UNL     1      42.890 -16.019   3.288  1.00  0.00    -0.320 N 
HETATM    9  H   UNL     1      42.357 -15.711   4.098  1.00  0.00     0.169 HD
HETATM   10  O   UNL     1      43.835 -15.264   1.287  1.00  0.00    -0.267 OA
BRANCH   8  11
HETATM   11  C   UNL     1      43.257 -17.380   3.328  1.00  0.00     0.071 A 
HETATM   12  C   UNL     1      43.954 -17.821   4.469  1.00  0.00     0.095 A 
HETATM   13  C   UNL     1      44.319 -19.160   4.623  1.00  0.00     0.042 A 
HETATM   14  C   UNL     1      44.022 -20.068   3.609  1.00  0.00     0.045 A 
HETATM   15  C   UNL     1      43.358 -19.626   2.468  1.00  0.00     0.118 A 
HETATM   16  C   UNL     1      42.970 -18.296   2.317  1.00  0.00     0.074 A 
HETATM   17  F   UNL     1      43.076 -20.508   1.498  1.00  0.00    -0.206 F 
BRANCH  12  18
HETATM   18  O   UNL     1      44.227 -16.907   5.460  1.00  0.00    -0.354 OA
HETATM   19  C   UNL     1      43.580 -17.278   6.679  1.00  0.00     0.210 C 
ENDBRANCH  12  18
ENDBRANCH   8  11
ENDBRANCH   1   7
BRANCH   2  20
HETATM   20  S   UNL     1      40.140 -14.524   1.600  1.00  0.00    -0.070 SA
BRANCH  20  21
HETATM   21  C   UNL     1      40.156 -13.961  -0.091  1.00  0.00     0.007 A 
HETATM   22  C   UNL     1      40.823 -12.787  -0.454  1.00  0.00     0.019 A 
HETATM   23  C   UNL     1      40.841 -12.369  -1.786  1.00  0.00     0.001 A 
HETATM   24  C   UNL     1      40.198 -13.126  -2.763  1.00  0.00     0.000 A 
HETATM   25  C   UNL     1      39.538 -14.302  -2.410  1.00  0.00     0.001 A 
HETATM   26  C   UNL     1      39.522 -14.721  -1.078  1.00  0.00     0.019 A 
ENDBRANCH  20  21
ENDBRANCH   2  20
TORSDOF 5
ENDMDL
MODEL 2
REMARK VINA RESULT:      -8.3      2.857      5.531
REMARK  5 active torsions:
REMARK  status: ('A' for Active; 'I' for Inactive)
REMARK    1  A    between atoms: O_2  and  C_3 
REMARK    2  A    between atoms: C_4  and  N_5 
REMARK       I    between atoms: N_5  and  C_6 
REMARK    3  A    between atoms: C_6  and  C_7 
REMARK    4  A    between atoms: C_8  and  S_9 
REMARK    5  A    between atoms: S_9  and  C_10 
ROOT
HETATM    1  C   UNL     1      42.495 -13.830   3.750  1.00  0.00     0.068 A 
HETATM    2  C   UNL     1      42.965 -13.003   4.765  1.00  0.00     0.113 A 
HETATM    3  N   UNL     1      43.130 -11.665   4.576  1.00  0.00    -0.253 NA
HETATM    4  C   UNL     1      42.807 -11.156   3.366  1.00  0.00     0.118 A 
HETATM    5  C   UNL     1      42.324 -11.913   2.312  1.00  0.00     0.020 A 
HETATM    6  C   UNL     1      42.164 -13.279   2.509  1.00  0.00     0.021 A 
ENDROOT
BRANCH   1   7
HETATM    7  C   UNL     1      42.333 -15.280   3.928  1.00  0.00     0.259 C 
HETATM    8  N   UNL     1      43.415 -16.008   3.490  1.00  0.00    -0.320 N 
HETATM    9  H   UNL     1      44.213 -15.508   3.104  1.00  0.00     0.169 HD
HETATM   10  O   UNL     1      41.270 -15.696   4.366  1.00  0.00    -0.267 OA
BRANCH   8  11
HETATM   11  C   UNL     1      43.574 -17.410   3.508  1.00  0.00     0.071 A 
HETATM   12  C   UNL     1      44.071 -17.982   4.695  1.00  0.00     0.095 A 
HETATM   13  C   UNL     1      44.219 -19.364   4.826  1.00  0.00     0.042 A 
HETATM   14  C   UNL     1      43.904 -20.189   3.748  1.00  0.00     0.045 A 
HETATM   15  C   UNL     1      43.439 -19.621   2.565  1.00  0.00     0.118 A 
HETATM   16  C   UNL     1      43.268 -18.244   2.434  1.00  0.00     0.074 A 
HETATM   17  F   UNL     1      43.139 -20.423   1.534  1.00  0.00    -0.206 F 
BRANCH  12  18
HETATM   18  O   UNL     1      44.366 -17.147   5.747  1.00  0.00    -0.354 OA
HETATM   19  C   UNL     1      43.541 -17.450   6.875  1.00  0.00     0.210 C 
ENDBRANCH  12  18
ENDBRANCH   8  11
ENDBRANCH   1   7
BRANCH   2  20
HETATM   20  S   UNL     1      43.380 -13.600   6.393  1.00  0.00    -0.070 SA
BRANCH  20  21
HETATM   21  C   UNL     1      44.254 -12.191   7.046  1.00  0.00     0.007 A 
HETATM   22  C   UNL     1      43.696 -11.399   8.056  1.00  0.00     0.019 A 
HETATM   23  C   UNL     1      44.401 -10.310   8.569  1.00  0.00     0.001 A 
HETATM   24  C   UNL     1      45.671 -10.008   8.081  1.00  0.00     0.000 A 
HETATM   25  C   UNL     1      46.237 -10.797   7.080  1.00  0.00     0.001 A 
HETATM   26  C   UNL     1      45.533 -11.889   6.568  1.00  0.00     0.019 A 
ENDBRANCH  20  21
ENDBRANCH   2  20
TORSDOF 5
ENDMDL
MODEL 3
REMARK VINA RESULT:      -8.1      2.320      6.439
REMARK  5 active torsions:
REMARK  status: ('A' for Active; 'I' for Inactive)
REMARK    1  A    between atoms: O_2  and  C_3 
REMARK    2  A    between atoms: C_4  and  N_5 
REMARK       I    between atoms: N_5  and  C_6 
REMARK    3  A    between atoms: C_6  and  C_7 
REMARK    4  A    between atoms: C_8  and  S_9 
REMARK    5  A    between atoms: S_9  and  C_10 
ROOT
HETATM    1  C   UNL     1      42.784 -13.191   3.470  1.00  0.00     0.068 A 
HETATM    2  C   UNL     1      42.310 -13.891   4.575  1.00  0.00     0.113 A 
HETATM    3  N   UNL     1      42.642 -13.529   5.844  1.00  0.00    -0.253 NA
HETATM    4  C   UNL     1      43.440 -12.450   6.003  1.00  0.00     0.118 A 
HETATM    5  C   UNL     1      43.941 -11.698   4.954  1.00  0.00     0.020 A 
HETATM    6  C   UNL     1      43.606 -12.076   3.660  1.00  0.00     0.021 A 
ENDROOT
BRANCH   1   7
HETATM    7  C   UNL     1      42.457 -13.582   2.092  1.00  0.00     0.259 C 
HETATM    8  N   UNL     1      41.262 -13.064   1.646  1.00  0.00    -0.320 N 
HETATM    9  H   UNL     1      40.727 -12.469   2.275  1.00  0.00     0.169 HD
HETATM   10  O   UNL     1      43.207 -14.354   1.512  1.00  0.00    -0.267 OA
BRANCH   8  11
HETATM   11  C   UNL     1      40.658 -13.255   0.386  1.00  0.00     0.071 A 
HETATM   12  C   UNL     1      40.684 -12.166  -0.506  1.00  0.00     0.095 A 
HETATM   13  C   UNL     1      40.154 -12.272  -1.794  1.00  0.00     0.042 A 
HETATM   14  C   UNL     1      39.553 -13.465  -2.187  1.00  0.00     0.045 A 
HETATM   15  C   UNL     1      39.501 -14.532  -1.295  1.00  0.00     0.118 A 
HETATM   16  C   UNL     1      40.048 -14.442  -0.016  1.00  0.00     0.074 A 
HETATM   17  F   UNL     1      38.921 -15.676  -1.684  1.00  0.00    -0.206 F 
BRANCH  12  18
HETATM   18  O   UNL     1      41.291 -11.002  -0.097  1.00  0.00    -0.354 OA
HETATM   19  C   UNL     1      41.639 -10.193  -1.224  1.00  0.00     0.210 C 
ENDBRANCH  12  18
ENDBRANCH   8  11
ENDBRANCH   1   7
BRANCH   2  20
HETATM   20  S   UNL     1      41.229 -15.303   4.442  1.00  0.00    -0.070 SA
BRANCH  20  21
HETATM   21  C   UNL     1      42.412 -16.590   4.091  1.00  0.00     0.007 A 
HETATM   22  C   UNL     1      43.368 -16.971   5.038  1.00  0.00     0.019 A 
HETATM   23  C   UNL     1      44.275 -17.992   4.754  1.00  0.00     0.001 A 
HETATM   24  C   UNL     1      44.228 -18.644   3.524  1.00  0.00     0.000 A 
HETATM   25  C   UNL     1      43.273 -18.276   2.576  1.00  0.00     0.001 A 
HETATM   26  C   UNL     1      42.364 -17.255   2.862  1.00  0.00     0.019 A 
ENDBRANCH  20  21
ENDBRANCH   2  20
TORSDOF 5
ENDMDL
MODEL 4
REMARK VINA RESULT:      -8.0      1.994      4.056
REMARK  5 active torsions:
REMARK  status: ('A' for Active; 'I' for Inactive)
REMARK    1  A    between atoms: O_2  and  C_3 
REMARK    2  A    between atoms: C_4  and  N_5 
REMARK       I    between atoms: N_5  and  C_6 
REMARK    3  A    between atoms: C_6  and  C_7 
REMARK    4  A    between atoms: C_8  and  S_9 
REMARK    5  A    between atoms: S_9  and  C_10 
ROOT
HETATM    1  C   UNL     1      40.874 -14.760   1.289  1.00  0.00     0.068 A 
HETATM    2  C   UNL     1      41.351 -13.459   1.408  1.00  0.00     0.113 A 
HETATM    3  N   UNL     1      41.039 -12.498   0.496  1.00  0.00    -0.253 NA
HETATM    4  C   UNL     1      40.230 -12.844  -0.531  1.00  0.00     0.118 A 
HETATM    5  C   UNL     1      39.708 -14.114  -0.710  1.00  0.00     0.020 A 
HETATM    6  C   UNL     1      40.036 -15.093   0.220  1.00  0.00     0.021 A 
ENDROOT
BRANCH   1   7
HETATM    7  C   UNL     1      41.220 -15.816   2.250  1.00  0.00     0.259 C 
HETATM    8  N   UNL     1      42.442 -16.399   2.004  1.00  0.00    -0.320 N 
HETATM    9  H   UNL     1      42.991 -16.061   1.217  1.00  0.00     0.169 HD
HETATM   10  O   UNL     1      40.398 -16.118   3.103  1.00  0.00    -0.267 OA
BRANCH   8  11
HETATM   11  C   UNL     1      43.060 -17.442   2.727  1.00  0.00     0.071 A 
HETATM   12  C   UNL     1      43.612 -17.111   3.979  1.00  0.00     0.095 A 
HETATM   13  C   UNL     1      44.203 -18.083   4.789  1.00  0.00     0.042 A 
HETATM   14  C   UNL     1      44.281 -19.396   4.331  1.00  0.00     0.045 A 
HETATM   15  C   UNL     1      43.761 -19.717   3.081  1.00  0.00     0.118 A 
HETATM   16  C   UNL     1      43.150 -18.757   2.276  1.00  0.00     0.074 A 
HETATM   17  F   UNL     1      43.842 -20.984   2.649  1.00  0.00    -0.206 F 
BRANCH  12  18
HETATM   18  O   UNL     1      43.513 -15.810   4.413  1.00  0.00    -0.354 OA
HETATM   19  C   UNL     1      43.503 -15.755   5.841  1.00  0.00     0.210 C 
ENDBRANCH  12  18
ENDBRANCH   8  11
ENDBRANCH   1   7
BRANCH   2  20
HETATM   20  S   UNL     1      42.395 -12.925   2.752  1.00  0.00    -0.070 SA
BRANCH  20  21
HETATM   21  C   UNL     1      41.166 -12.453   3.954  1.00  0.00     0.007 A 
HETATM   22  C   UNL     1      40.434 -11.270   3.813  1.00  0.00     0.019 A 
HETATM   23  C   UNL     1      39.463 -10.924   4.754  1.00  0.00     0.001 A 
HETATM   24  C   UNL     1      39.214 -11.762   5.839  1.00  0.00     0.000 A 
HETATM   25  C   UNL     1      39.934 -12.948   5.983  1.00  0.00     0.001 A 
HETATM   26  C   UNL     1      40.904 -13.295   5.040  1.00  0.00     0.019 A 
ENDBRANCH  20  21
ENDBRANCH   2  20
TORSDOF 5
ENDMDL
MODEL 5
REMARK VINA RESULT:      -8.0      1.771      4.128
REMARK  5 active torsions:
REMARK  status: ('A' for Active; 'I' for Inactive)
REMARK    1  A    between atoms: O_2  and  C_3 
REMARK    2  A    between atoms: C_4  and  N_5 
REMARK       I    between atoms: N_5  and  C_6 
REMARK    3  A    between atoms: C_6  and  C_7 
REMARK    4  A    between atoms: C_8  and  S_9 
REMARK    5  A    between atoms: S_9  and  C_10 
ROOT
HETATM    1  C   UNL     1      40.268 -14.524   1.667  1.00  0.00     0.068 A 
HETATM    2  C   UNL     1      39.833 -13.326   2.223  1.00  0.00     0.113 A 
HETATM    3  N   UNL     1      39.397 -12.296   1.447  1.00  0.00    -0.253 NA
HETATM    4  C   UNL     1      39.385 -12.478   0.108  1.00  0.00     0.118 A 
HETATM    5  C   UNL     1      39.792 -13.645  -0.517  1.00  0.00     0.020 A 
HETATM    6  C   UNL     1      40.242 -14.690   0.280  1.00  0.00     0.021 A 
ENDROOT
BRANCH   1   7
HETATM    7  C   UNL     1      40.764 -15.637   2.488  1.00  0.00     0.259 C 
HETATM    8  N   UNL     1      42.091 -15.927   2.271  1.00  0.00    -0.320 N 
HETATM    9  H   UNL     1      42.606 -15.366   1.596  1.00  0.00     0.169 HD
HETATM   10  O   UNL     1      39.971 -16.227   3.208  1.00  0.00    -0.267 OA
BRANCH   8  11
HETATM   11  C   UNL     1      42.864 -16.936   2.883  1.00  0.00     0.071 A 
HETATM   12  C   UNL     1      43.438 -16.632   4.132  1.00  0.00     0.095 A 
HETATM   13  C   UNL     1      44.180 -17.581   4.839  1.00  0.00     0.042 A 
HETATM   14  C   UNL     1      44.388 -18.839   4.278  1.00  0.00     0.045 A 
HETATM   15  C   UNL     1      43.844 -19.130   3.030  1.00  0.00     0.118 A 
HETATM   16  C   UNL     1      43.083 -18.196   2.329  1.00  0.00     0.074 A 
HETATM   17  F   UNL     1      44.050 -20.344   2.500  1.00  0.00    -0.206 F 
BRANCH  12  18
HETATM   18  O   UNL     1      43.211 -15.386   4.668  1.00  0.00    -0.354 OA
HETATM   19  C   UNL     1      43.563 -15.363   6.054  1.00  0.00     0.210 C 
ENDBRANCH  12  18
ENDBRANCH   8  11
ENDBRANCH   1   7
BRANCH   2  20
HETATM   20  S   UNL     1      39.791 -13.026   3.981  1.00  0.00    -0.070 SA
BRANCH  20  21
HETATM   21  C   UNL     1      41.454 -12.445   4.254  1.00  0.00     0.007 A 
HETATM   22  C   UNL     1      42.360 -12.325   3.196  1.00  0.00     0.019 A 
HETATM   23  C   UNL     1      43.653 -11.851   3.424  1.00  0.00     0.001 A 
HETATM   24  C   UNL     1      44.046 -11.489   4.711  1.00  0.00     0.000 A 
HETATM   25  C   UNL     1      43.146 -11.599   5.771  1.00  0.00     0.001 A 
HETATM   26  C   UNL     1      41.851 -12.070   5.541  1.00  0.00     0.019 A 
ENDBRANCH  20  21
ENDBRANCH   2  20
TORSDOF 5
ENDMDL
MODEL 6
REMARK VINA RESULT:      -7.9      2.333      3.507
REMARK  5 active torsions:
REMARK  status: ('A' for Active; 'I' for Inactive)
REMARK    1  A    between atoms: O_2  and  C_3 
REMARK    2  A    between atoms: C_4  and  N_5 
REMARK       I    between atoms: N_5  and  C_6 
REMARK    3  A    between atoms: C_6  and  C_7 
REMARK    4  A    between atoms: C_8  and  S_9 
REMARK    5  A    between atoms: S_9  and  C_10 
ROOT
HETATM    1  C   UNL     1      42.837 -13.960   6.186  1.00  0.00     0.068 A 
HETATM    2  C   UNL     1      41.773 -13.102   5.925  1.00  0.00     0.113 A 
HETATM    3  N   UNL     1      41.859 -11.766   6.169  1.00  0.00    -0.253 NA
HETATM    4  C   UNL     1      43.024 -11.289   6.663  1.00  0.00     0.118 A 
HETATM    5  C   UNL     1      44.128 -12.079   6.937  1.00  0.00     0.020 A 
HETATM    6  C   UNL     1      44.032 -13.443   6.693  1.00  0.00     0.021 A 
ENDROOT
BRANCH   1   7
HETATM    7  C   UNL     1      42.754 -15.408   5.952  1.00  0.00     0.259 C 
HETATM    8  N   UNL     1      43.463 -15.825   4.848  1.00  0.00    -0.320 N 
HETATM    9  H   UNL     1      43.975 -15.129   4.310  1.00  0.00     0.169 HD
HETATM   10  O   UNL     1      42.039 -16.076   6.685  1.00  0.00    -0.267 OA
BRANCH   8  11
HETATM   11  C   UNL     1      43.580 -17.137   4.345  1.00  0.00     0.071 A 
HETATM   12  C   UNL     1      43.079 -17.373   3.050  1.00  0.00     0.095 A 
HETATM   13  C   UNL     1      43.191 -18.628   2.448  1.00  0.00     0.042 A 
HETATM   14  C   UNL     1      43.775 -19.675   3.157  1.00  0.00     0.045 A 
HETATM   15  C   UNL     1      44.244 -19.449   4.448  1.00  0.00     0.118 A 
HETATM   16  C   UNL     1      44.156 -18.194   5.048  1.00  0.00     0.074 A 
HETATM   17  F   UNL     1      44.804 -20.464   5.122  1.00  0.00    -0.206 F 
BRANCH  12  18
HETATM   18  O   UNL     1      42.516 -16.321   2.367  1.00  0.00    -0.354 OA
HETATM   19  C   UNL     1      43.436 -15.795   1.407  1.00  0.00     0.210 C 
ENDBRANCH  12  18
ENDBRANCH   8  11
ENDBRANCH   1   7
BRANCH   2  20
HETATM   20  S   UNL     1      40.220 -13.655   5.245  1.00  0.00    -0.070 SA
BRANCH  20  21
HETATM   21  C   UNL     1      40.530 -13.442   3.503  1.00  0.00     0.007 A 
HETATM   22  C   UNL     1      41.536 -12.584   3.048  1.00  0.00     0.019 A 
HETATM   23  C   UNL     1      41.778 -12.443   1.680  1.00  0.00     0.001 A 
HETATM   24  C   UNL     1      41.019 -13.163   0.760  1.00  0.00     0.000 A 
HETATM   25  C   UNL     1      40.019 -14.026   1.206  1.00  0.00     0.001 A 
HETATM   26  C   UNL     1      39.779 -14.170   2.575  1.00  0.00     0.019 A 
ENDBRANCH  20  21
ENDBRANCH   2  20
TORSDOF 5
ENDMDL
MODEL 7
REMARK VINA RESULT:      -7.9      2.976      6.852
REMARK  5 active torsions:
REMARK  status: ('A' for Active; 'I' for Inactive)
REMARK    1  A    between atoms: O_2  and  C_3 
REMARK    2  A    between atoms: C_4  and  N_5 
REMARK       I    between atoms: N_5  and  C_6 
REMARK    3  A    between atoms: C_6  and  C_7 
REMARK    4  A    between atoms: C_8  and  S_9 
REMARK    5  A    between atoms: S_9  and  C_10 
ROOT
HETATM    1  C   UNL     1      41.721 -16.349   2.864  1.00  0.00     0.068 A 
HETATM    2  C   UNL     1      42.089 -15.914   4.134  1.00  0.00     0.113 A 
HETATM    3  N   UNL     1      43.139 -16.466   4.800  1.00  0.00    -0.253 NA
HETATM    4  C   UNL     1      43.832 -17.448   4.181  1.00  0.00     0.118 A 
HETATM    5  C   UNL     1      43.533 -17.925   2.916  1.00  0.00     0.020 A 
HETATM    6  C   UNL     1      42.455 -17.363   2.243  1.00  0.00     0.021 A 
ENDROOT
BRANCH   1   7
HETATM    7  C   UNL     1      40.576 -15.782   2.140  1.00  0.00     0.259 C 
HETATM    8  N   UNL     1      40.939 -14.901   1.146  1.00  0.00    -0.320 N 
HETATM    9  H   UNL     1      41.929 -14.727   0.991  1.00  0.00     0.169 HD
HETATM   10  O   UNL     1      39.449 -16.076   2.513  1.00  0.00    -0.267 OA
BRANCH   8  11
HETATM   11  C   UNL     1      40.089 -14.182   0.281  1.00  0.00     0.071 A 
HETATM   12  C   UNL     1      39.694 -12.896   0.696  1.00  0.00     0.095 A 
HETATM   13  C   UNL     1      38.891 -12.088  -0.113  1.00  0.00     0.042 A 
HETATM   14  C   UNL     1      38.442 -12.581  -1.337  1.00  0.00     0.045 A 
HETATM   15  C   UNL     1      38.810 -13.863  -1.734  1.00  0.00     0.118 A 
HETATM   16  C   UNL     1      39.628 -14.667  -0.942  1.00  0.00     0.074 A 
HETATM   17  F   UNL     1      38.373 -14.328  -2.913  1.00  0.00    -0.206 F 
BRANCH  12  18
HETATM   18  O   UNL     1      40.158 -12.429   1.903  1.00  0.00    -0.354 OA
HETATM   19  C   UNL     1      39.081 -12.285   2.833  1.00  0.00     0.210 C 
ENDBRANCH  12  18
ENDBRANCH   8  11
ENDBRANCH   1   7
BRANCH   2  20
HETATM   20  S   UNL     1      41.242 -14.603   4.997  1.00  0.00    -0.070 SA
BRANCH  20  21
HETATM   21  C   UNL     1      42.561 -13.417   5.169  1.00  0.00     0.007 A 
HETATM   22  C   UNL     1      42.912 -12.569   4.114  1.00  0.00     0.019 A 
HETATM   23  C   UNL     1      43.935 -11.633   4.271  1.00  0.00     0.001 A 
HETATM   24  C   UNL     1      44.610 -11.536   5.486  1.00  0.00     0.000 A 
HETATM   25  C   UNL     1      44.262 -12.373   6.545  1.00  0.00     0.001 A 
HETATM   26  C   UNL     1      43.235 -13.307   6.389  1.00  0.00     0.019 A 
ENDBRANCH  20  21
ENDBRANCH   2  20
TORSDOF 5
ENDMDL
MODEL 8
REMARK VINA RESULT:      -7.9      1.661      2.091
REMARK  5 active torsions:
REMARK  status: ('A' for Active; 'I' for Inactive)
REMARK    1  A    between atoms: O_2  and  C_3 
REMARK    2  A    between atoms: C_4  and  N_5 
REMARK       I    between atoms: N_5  and  C_6 
REMARK    3  A    between atoms: C_6  and  C_7 
REMARK    4  A    between atoms: C_8  and  S_9 
REMARK    5  A    between atoms: S_9  and  C_10 
ROOT
HETATM    1  C   UNL     1      42.630 -14.101   3.846  1.00  0.00     0.068 A 
HETATM    2  C   UNL     1      42.299 -13.347   2.725  1.00  0.00     0.113 A 
HETATM    3  N   UNL     1      42.504 -12.002   2.684  1.00  0.00    -0.253 NA
HETATM    4  C   UNL     1      43.058 -11.417   3.770  1.00  0.00     0.118 A 
HETATM    5  C   UNL     1      43.423 -12.102   4.916  1.00  0.00     0.020 A 
HETATM    6  C   UNL     1      43.205 -13.474   4.955  1.00  0.00     0.021 A 
ENDROOT
BRANCH   1   7
HETATM    7  C   UNL     1      42.393 -15.550   3.917  1.00  0.00     0.259 C 
HETATM    8  N   UNL     1      43.483 -16.301   3.541  1.00  0.00    -0.320 N 
HETATM    9  H   UNL     1      44.334 -15.816   3.265  1.00  0.00     0.169 HD
HETATM   10  O   UNL     1      41.277 -15.942   4.225  1.00  0.00    -0.267 OA
BRANCH   8  11
HETATM   11  C   UNL     1      43.583 -17.707   3.486  1.00  0.00     0.071 A 
HETATM   12  C   UNL     1      44.008 -18.363   4.657  1.00  0.00     0.095 A 
HETATM   13  C   UNL     1      44.093 -19.756   4.717  1.00  0.00     0.042 A 
HETATM   14  C   UNL     1      43.789 -20.506   3.583  1.00  0.00     0.045 A 
HETATM   15  C   UNL     1      43.397 -19.855   2.416  1.00  0.00     0.118 A 
HETATM   16  C   UNL     1      43.288 -18.467   2.356  1.00  0.00     0.074 A 
HETATM   17  F   UNL     1      43.107 -20.586   1.331  1.00  0.00    -0.206 F 
BRANCH  12  18
HETATM   18  O   UNL     1      44.293 -17.601   5.766  1.00  0.00    -0.354 OA
HETATM   19  C   UNL     1      43.329 -17.832   6.797  1.00  0.00     0.210 C 
ENDBRANCH  12  18
ENDBRANCH   8  11
ENDBRANCH   1   7
BRANCH   2  20
HETATM   20  S   UNL     1      41.595 -14.056   1.248  1.00  0.00    -0.070 SA
BRANCH  20  21
HETATM   21  C   UNL     1      40.134 -13.052   1.066  1.00  0.00     0.007 A 
HETATM   22  C   UNL     1      39.338 -12.727   2.169  1.00  0.00     0.019 A 
HETATM   23  C   UNL     1      38.207 -11.925   2.013  1.00  0.00     0.001 A 
HETATM   24  C   UNL     1      37.867 -11.437   0.752  1.00  0.00     0.000 A 
HETATM   25  C   UNL     1      38.659 -11.750  -0.352  1.00  0.00     0.001 A 
HETATM   26  C   UNL     1      39.793 -12.551  -0.194  1.00  0.00     0.019 A 
ENDBRANCH  20  21
ENDBRANCH   2  20
TORSDOF 5
ENDMDL
MODEL 9
REMARK VINA RESULT:      -7.8      2.069      2.715
REMARK  5 active torsions:
REMARK  status: ('A' for Active; 'I' for Inactive)
REMARK    1  A    between atoms: O_2  and  C_3 
REMARK    2  A    between atoms: C_4  and  N_5 
REMARK       I    between atoms: N_5  and  C_6 
REMARK    3  A    between atoms: C_6  and  C_7 
REMARK    4  A    between atoms: C_8  and  S_9 
REMARK    5  A    between atoms: S_9  and  C_10 
ROOT
HETATM    1  C   UNL     1      41.163 -12.947   4.786  1.00  0.00     0.068 A 
HETATM    2  C   UNL     1      41.038 -12.139   3.661  1.00  0.00     0.113 A 
HETATM    3  N   UNL     1      40.026 -11.237   3.540  1.00  0.00    -0.253 NA
HETATM    4  C   UNL     1      39.147 -11.136   4.562  1.00  0.00     0.118 A 
HETATM    5  C   UNL     1      39.213 -11.897   5.717  1.00  0.00     0.020 A 
HETATM    6  C   UNL     1      40.244 -12.822   5.832  1.00  0.00     0.021 A 
ENDROOT
BRANCH   1   7
HETATM    7  C   UNL     1      42.234 -13.943   4.924  1.00  0.00     0.259 C 
HETATM    8  N   UNL     1      41.809 -15.235   4.716  1.00  0.00    -0.320 N 
HETATM    9  H   UNL     1      40.831 -15.392   4.484  1.00  0.00     0.169 HD
HETATM   10  O   UNL     1      43.345 -13.560   5.263  1.00  0.00    -0.267 OA
BRANCH   8  11
HETATM   11  C   UNL     1      42.577 -16.416   4.784  1.00  0.00     0.071 A 
HETATM   12  C   UNL     1      42.714 -17.019   6.049  1.00  0.00     0.095 A 
HETATM   13  C   UNL     1      43.416 -18.215   6.210  1.00  0.00     0.042 A 
HETATM   14  C   UNL     1      44.025 -18.802   5.102  1.00  0.00     0.045 A 
HETATM   15  C   UNL     1      43.914 -18.191   3.857  1.00  0.00     0.118 A 
HETATM   16  C   UNL     1      43.196 -17.009   3.684  1.00  0.00     0.074 A 
HETATM   17  F   UNL     1      44.504 -18.763   2.798  1.00  0.00    -0.206 F 
BRANCH  12  18
HETATM   18  O   UNL     1      42.095 -16.425   7.124  1.00  0.00    -0.354 OA
HETATM   19  C   UNL     1      43.064 -15.863   8.014  1.00  0.00     0.210 C 
ENDBRANCH  12  18
ENDBRANCH   8  11
ENDBRANCH   1   7
BRANCH   2  20
HETATM   20  S   UNL     1      42.177 -12.196   2.290  1.00  0.00    -0.070 SA
BRANCH  20  21
HETATM   21  C   UNL     1      41.219 -13.117   1.104  1.00  0.00     0.007 A 
HETATM   22  C   UNL     1      40.787 -14.419   1.379  1.00  0.00     0.019 A 
HETATM   23  C   UNL     1      40.022 -15.121   0.446  1.00  0.00     0.001 A 
HETATM   24  C   UNL     1      39.678 -14.523  -0.765  1.00  0.00     0.000 A 
HETATM   25  C   UNL     1      40.098 -13.223  -1.044  1.00  0.00     0.001 A 
HETATM   26  C   UNL     1      40.862 -12.520  -0.109  1.00  0.00     0.019 A 
ENDBRANCH  20  21
ENDBRANCH   2  20
TORSDOF 5
ENDMDL
MODEL 10
REMARK VINA RESULT:      -7.5      3.933      7.305
REMARK  5 active torsions:
REMARK  status: ('A' for Active; 'I' for Inactive)
REMARK    1  A    between atoms: O_2  and  C_3 
REMARK    2  A    between atoms: C_4  and  N_5 
REMARK       I    between atoms: N_5  and  C_6 
REMARK    3  A    between atoms: C_6  and  C_7 
REMARK    4  A    between atoms: C_8  and  S_9 
REMARK    5  A    between atoms: S_9  and  C_10 
ROOT
HETATM    1  C   UNL     1      42.035 -14.104   3.804  1.00  0.00     0.068 A 
HETATM    2  C   UNL     1      42.211 -15.452   4.097  1.00  0.00     0.113 A 
HETATM    3  N   UNL     1      41.311 -16.392   3.698  1.00  0.00    -0.253 NA
HETATM    4  C   UNL     1      40.239 -15.975   2.987  1.00  0.00     0.118 A 
HETATM    5  C   UNL     1      40.002 -14.653   2.648  1.00  0.00     0.020 A 
HETATM    6  C   UNL     1      40.921 -13.698   3.065  1.00  0.00     0.021 A 
ENDROOT
BRANCH   1   7
HETATM    7  C   UNL     1      42.984 -13.073   4.247  1.00  0.00     0.259 C 
HETATM    8  N   UNL     1      42.884 -12.779   5.589  1.00  0.00    -0.320 N 
HETATM    9  H   UNL     1      42.199 -13.285   6.146  1.00  0.00     0.169 HD
HETATM   10  O   UNL     1      43.698 -12.541   3.410  1.00  0.00    -0.267 OA
BRANCH   8  11
HETATM   11  C   UNL     1      43.636 -11.837   6.322  1.00  0.00     0.071 A 
HETATM   12  C   UNL     1      42.928 -10.767   6.902  1.00  0.00     0.095 A 
HETATM   13  C   UNL     1      43.576  -9.810   7.685  1.00  0.00     0.042 A 
HETATM   14  C   UNL     1      44.955  -9.894   7.862  1.00  0.00     0.045 A 
HETATM   15  C   UNL     1      45.659 -10.936   7.265  1.00  0.00     0.118 A 
HETATM   16  C   UNL     1      45.016 -11.908   6.500  1.00  0.00     0.074 A 
HETATM   17  F   UNL     1      46.986 -11.009   7.442  1.00  0.00    -0.206 F 
BRANCH  12  18
HETATM   18  O   UNL     1      41.566 -10.711   6.720  1.00  0.00    -0.354 OA
HETATM   19  C   UNL     1      41.109  -9.357   6.760  1.00  0.00     0.210 C 
ENDBRANCH  12  18
ENDBRANCH   8  11
ENDBRANCH   1   7
BRANCH   2  20
HETATM   20  S   UNL     1      43.615 -16.077   5.002  1.00  0.00    -0.070 SA
BRANCH  20  21
HETATM   21  C   UNL     1      43.706 -17.737   4.360  1.00  0.00     0.007 A 
HETATM   22  C   UNL     1      43.617 -17.987   2.987  1.00  0.00     0.019 A 
HETATM   23  C   UNL     1      43.708 -19.292   2.499  1.00  0.00     0.001 A 
HETATM   24  C   UNL     1      43.895 -20.354   3.381  1.00  0.00     0.000 A 
HETATM   25  C   UNL     1      43.993 -20.113   4.751  1.00  0.00     0.001 A 
HETATM   26  C   UNL     1      43.904 -18.807   5.238  1.00  0.00     0.019 A 
ENDBRANCH  20  21
ENDBRANCH   2  20
TORSDOF 5
ENDMDL
