MODEL 1
REMARK VINA RESULT:      -9.3      0.000      0.000
REMARK  6 active torsions:
REMARK  status: ('A' for Active; 'I' for Inactive)
REMARK    1  A    between atoms: C_2  and  N_3 
REMARK    2  A    between atoms: C_11  and  C_12 
REMARK    3  A    between atoms: C_14  and  C_15 
REMARK    4  A    between atoms: C_15  and  O_16 
REMARK    5  A    between atoms: O_16  and  C_17 
REMARK    6  A    between atoms: C_25  and  O_26 
ROOT
HETATM    1  N   UNL     1      41.583  -7.926  12.400  1.00  0.00    -0.067 N 
HETATM    2  H   UNL     1      41.200  -8.860  12.596  1.00  0.00     0.280 HD
HETATM    3  C   UNL     1      41.087  -7.548  11.004  1.00  0.00     0.281 C 
HETATM    4  C   UNL     1      41.775  -8.353   9.957  1.00  0.00     0.018 A 
HETATM    5  C   UNL     1      42.920  -9.104  10.148  1.00  0.00    -0.023 A 
HETATM    6  C   UNL     1      43.342  -9.724   8.928  1.00  0.00     0.073 A 
HETATM    7  C   UNL     1      42.508  -9.410   7.882  1.00  0.00     0.088 A 
HETATM    8  N   UNL     1      42.705  -9.849   6.622  1.00  0.00    -0.358 N 
HETATM    9  C   UNL     1      43.565 -10.998   6.406  1.00  0.00     0.219 C 
HETATM   10  N   UNL     1      44.631 -11.000   7.379  1.00  0.00    -0.332 N 
HETATM   11  C   UNL     1      44.494 -10.569   8.670  1.00  0.00     0.256 C 
HETATM   12  O   UNL     1      45.302 -10.871   9.541  1.00  0.00    -0.267 OA
HETATM   13  S   UNL     1      41.225  -8.396   8.347  1.00  0.00    -0.074 SA
HETATM   14  C   UNL     1      43.572  -9.202  11.492  1.00  0.00     0.068 C 
HETATM   15  C   UNL     1      43.110  -8.069  12.424  1.00  0.00     0.240 C 
HETATM   16  H   UNL     1      41.959  -9.740   5.941  1.00  0.00     0.162 HD
HETATM   17  H   UNL     1      45.410 -11.622   7.218  1.00  0.00     0.165 HD
ENDROOT
BRANCH   9  18
HETATM   18  C   UNL     1      42.751 -12.284   6.363  1.00  0.00    -0.016 A 
HETATM   19  C   UNL     1      43.379 -13.506   6.673  1.00  0.00     0.023 A 
HETATM   20  C   UNL     1      42.678 -14.729   6.661  1.00  0.00    -0.000 A 
HETATM   21  C   UNL     1      41.312 -14.730   6.341  1.00  0.00     0.076 A 
HETATM   22  C   UNL     1      40.677 -13.525   6.029  1.00  0.00     0.038 A 
HETATM   23  C   UNL     1      41.388 -12.319   6.040  1.00  0.00     0.014 A 
BRANCH  20  24
HETATM   24  C   UNL     1      43.420 -16.012   6.973  1.00  0.00     0.217 C 
BRANCH  24  25
HETATM   25  O   UNL     1      44.425 -16.222   5.974  1.00  0.00    -0.347 OA
BRANCH  25  26
HETATM   26  C   UNL     1      44.062 -16.958   4.879  1.00  0.00     0.070 A 
HETATM   27  C   UNL     1      44.180 -18.343   5.042  1.00  0.00     0.063 A 
HETATM   28  C   UNL     1      43.842 -19.206   3.999  1.00  0.00     0.075 A 
HETATM   29 CL   UNL     1      43.992 -20.906   4.223  1.00  0.00    -0.081 Cl
HETATM   30  C   UNL     1      43.389 -18.687   2.790  1.00  0.00     0.138 A 
HETATM   31  F   UNL     1      43.058 -19.495   1.773  1.00  0.00    -0.204 F 
HETATM   32  C   UNL     1      43.272 -17.312   2.615  1.00  0.00     0.047 A 
HETATM   33  C   UNL     1      43.611 -16.444   3.658  1.00  0.00     0.040 A 
ENDBRANCH  25  26
ENDBRANCH  24  25
ENDBRANCH  20  24
BRANCH  21  34
HETATM   34  O   UNL     1      40.688 -15.949   6.324  1.00  0.00    -0.355 OA
HETATM   35  C   UNL     1      40.270 -16.445   5.058  1.00  0.00     0.210 C 
ENDBRANCH  21  34
ENDBRANCH   9  18
BRANCH   1  36
HETATM   36  C   UNL     1      41.103  -6.987  13.478  1.00  0.00     0.231 C 
HETATM   37  C   UNL     1      41.827  -7.238  14.788  1.00  0.00     0.034 C 
ENDBRANCH   1  36
TORSDOF 6
ENDMDL
MODEL 2
REMARK VINA RESULT:      -9.1      4.215      8.047
REMARK  6 active torsions:
REMARK  status: ('A' for Active; 'I' for Inactive)
REMARK    1  A    between atoms: C_2  and  N_3 
REMARK    2  A    between atoms: C_11  and  C_12 
REMARK    3  A    between atoms: C_14  and  C_15 
REMARK    4  A    between atoms: C_15  and  O_16 
REMARK    5  A    between atoms: O_16  and  C_17 
REMARK    6  A    between atoms: C_25  and  O_26 
ROOT
HETATM    1  N   UNL     1      41.092 -12.329  -1.701  1.00  0.00    -0.067 N 
HETATM    2  H   UNL     1      42.052 -12.499  -1.374  1.00  0.00     0.280 HD
HETATM    3  C   UNL     1      40.583 -11.120  -0.915  1.00  0.00     0.281 C 
HETATM    4  C   UNL     1      40.331 -11.476   0.508  1.00  0.00     0.018 A 
HETATM    5  C   UNL     1      40.245 -12.762   1.009  1.00  0.00    -0.023 A 
HETATM    6  C   UNL     1      39.956 -12.753   2.412  1.00  0.00     0.073 A 
HETATM    7  C   UNL     1      39.831 -11.474   2.898  1.00  0.00     0.088 A 
HETATM    8  N   UNL     1      39.533 -11.198   4.185  1.00  0.00    -0.358 N 
HETATM    9  C   UNL     1      39.740 -12.227   5.188  1.00  0.00     0.219 C 
HETATM   10  N   UNL     1      39.480 -13.526   4.617  1.00  0.00    -0.332 N 
HETATM   11  C   UNL     1      39.759 -13.867   3.322  1.00  0.00     0.256 C 
HETATM   12  O   UNL     1      39.824 -15.037   2.961  1.00  0.00    -0.267 OA
HETATM   13  S   UNL     1      40.068 -10.291   1.702  1.00  0.00    -0.074 SA
HETATM   14  C   UNL     1      40.444 -13.956   0.127  1.00  0.00     0.068 C 
HETATM   15  C   UNL     1      40.287 -13.589  -1.358  1.00  0.00     0.240 C 
HETATM   16  H   UNL     1      39.640 -10.246   4.520  1.00  0.00     0.162 HD
HETATM   17  H   UNL     1      39.387 -14.305   5.252  1.00  0.00     0.165 HD
ENDROOT
BRANCH   9  18
HETATM   18  C   UNL     1      41.113 -12.087   5.831  1.00  0.00    -0.016 A 
HETATM   19  C   UNL     1      41.941 -13.221   5.938  1.00  0.00     0.023 A 
HETATM   20  C   UNL     1      43.227 -13.155   6.514  1.00  0.00    -0.000 A 
HETATM   21  C   UNL     1      43.700 -11.922   6.988  1.00  0.00     0.076 A 
HETATM   22  C   UNL     1      42.888 -10.790   6.890  1.00  0.00     0.038 A 
HETATM   23  C   UNL     1      41.612 -10.872   6.320  1.00  0.00     0.014 A 
BRANCH  20  24
HETATM   24  C   UNL     1      44.054 -14.419   6.628  1.00  0.00     0.217 C 
BRANCH  24  25
HETATM   25  O   UNL     1      43.180 -15.552   6.586  1.00  0.00    -0.347 OA
BRANCH  25  26
HETATM   26  C   UNL     1      43.425 -16.487   5.617  1.00  0.00     0.070 A 
HETATM   27  C   UNL     1      43.191 -16.046   4.310  1.00  0.00     0.063 A 
HETATM   28  C   UNL     1      43.403 -16.903   3.230  1.00  0.00     0.075 A 
HETATM   29 CL   UNL     1      43.113 -16.338   1.630  1.00  0.00    -0.081 Cl
HETATM   30  C   UNL     1      43.846 -18.203   3.454  1.00  0.00     0.138 A 
HETATM   31  F   UNL     1      44.056 -19.046   2.433  1.00  0.00    -0.204 F 
HETATM   32  C   UNL     1      44.076 -18.654   4.750  1.00  0.00     0.047 A 
HETATM   33  C   UNL     1      43.864 -17.797   5.835  1.00  0.00     0.040 A 
ENDBRANCH  25  26
ENDBRANCH  24  25
ENDBRANCH  20  24
BRANCH  21  34
HETATM   34  O   UNL     1      44.946 -11.923   7.556  1.00  0.00    -0.355 OA
HETATM   35  C   UNL     1      45.840 -10.890   7.159  1.00  0.00     0.210 C 
ENDBRANCH  21  34
ENDBRANCH   9  18
BRANCH   1  36
HETATM   36  C   UNL     1      41.137 -12.096  -3.191  1.00  0.00     0.231 C 
HETATM   37  C   UNL     1      40.866 -10.641  -3.527  1.00  0.00     0.034 C 
ENDBRANCH   1  36
TORSDOF 6
ENDMDL
MODEL 3
REMARK VINA RESULT:      -9.1      5.378      8.844
REMARK  6 active torsions:
REMARK  status: ('A' for Active; 'I' for Inactive)
REMARK    1  A    between atoms: C_2  and  N_3 
REMARK    2  A    between atoms: C_11  and  C_12 
REMARK    3  A    between atoms: C_14  and  C_15 
REMARK    4  A    between atoms: C_15  and  O_16 
REMARK    5  A    between atoms: O_16  and  C_17 
REMARK    6  A    between atoms: C_25  and  O_26 
ROOT
HETATM    1  N   UNL     1      41.725  -9.326  -0.428  1.00  0.00    -0.067 N 
HETATM    2  H   UNL     1      42.655  -9.742  -0.288  1.00  0.00     0.280 HD
HETATM    3  C   UNL     1      40.971  -9.526   0.887  1.00  0.00     0.281 C 
HETATM    4  C   UNL     1      40.608 -10.956   1.084  1.00  0.00     0.018 A 
HETATM    5  C   UNL     1      40.642 -11.932   0.104  1.00  0.00    -0.023 A 
HETATM    6  C   UNL     1      40.195 -13.194   0.616  1.00  0.00     0.073 A 
HETATM    7  C   UNL     1      39.843 -13.110   1.941  1.00  0.00     0.088 A 
HETATM    8  N   UNL     1      39.366 -14.157   2.646  1.00  0.00    -0.358 N 
HETATM    9  C   UNL     1      39.594 -15.501   2.148  1.00  0.00     0.219 C 
HETATM   10  N   UNL     1      39.580 -15.496   0.705  1.00  0.00    -0.332 N 
HETATM   11  C   UNL     1      40.049 -14.468  -0.065  1.00  0.00     0.256 C 
HETATM   12  O   UNL     1      40.313 -14.618  -1.253  1.00  0.00    -0.267 OA
HETATM   13  S   UNL     1      40.052 -11.549   2.579  1.00  0.00    -0.074 SA
HETATM   14  C   UNL     1      41.100 -11.624  -1.288  1.00  0.00     0.068 C 
HETATM   15  C   UNL     1      41.065 -10.112  -1.568  1.00  0.00     0.240 C 
HETATM   16  H   UNL     1      39.303 -14.080   3.657  1.00  0.00     0.162 HD
HETATM   17  H   UNL     1      39.522 -16.388   0.236  1.00  0.00     0.165 HD
ENDROOT
BRANCH   9  18
HETATM   18  C   UNL     1      40.853 -16.099   2.762  1.00  0.00    -0.016 A 
HETATM   19  C   UNL     1      41.186 -15.781   4.093  1.00  0.00     0.023 A 
HETATM   20  C   UNL     1      42.333 -16.310   4.721  1.00  0.00    -0.000 A 
HETATM   21  C   UNL     1      43.163 -17.185   4.004  1.00  0.00     0.076 A 
HETATM   22  C   UNL     1      42.845 -17.506   2.682  1.00  0.00     0.038 A 
HETATM   23  C   UNL     1      41.706 -16.970   2.070  1.00  0.00     0.014 A 
BRANCH  20  24
HETATM   24  C   UNL     1      42.652 -15.903   6.145  1.00  0.00     0.217 C 
BRANCH  24  25
HETATM   25  O   UNL     1      43.740 -14.972   6.130  1.00  0.00    -0.347 OA
BRANCH  25  26
HETATM   26  C   UNL     1      43.422 -13.648   6.263  1.00  0.00     0.070 A 
HETATM   27  C   UNL     1      44.462 -12.845   6.745  1.00  0.00     0.063 A 
HETATM   28  C   UNL     1      44.267 -11.475   6.926  1.00  0.00     0.075 A 
HETATM   29 CL   UNL     1      45.561 -10.505   7.517  1.00  0.00    -0.081 Cl
HETATM   30  C   UNL     1      43.031 -10.906   6.630  1.00  0.00     0.138 A 
HETATM   31  F   UNL     1      42.819  -9.593   6.797  1.00  0.00    -0.204 F 
HETATM   32  C   UNL     1      41.989 -11.696   6.156  1.00  0.00     0.047 A 
HETATM   33  C   UNL     1      42.182 -13.070   5.973  1.00  0.00     0.040 A 
ENDBRANCH  25  26
ENDBRANCH  24  25
ENDBRANCH  20  24
BRANCH  21  34
HETATM   34  O   UNL     1      44.273 -17.650   4.658  1.00  0.00    -0.355 OA
HETATM   35  C   UNL     1      44.355 -19.053   4.879  1.00  0.00     0.210 C 
ENDBRANCH  21  34
ENDBRANCH   9  18
BRANCH   1  36
HETATM   36  C   UNL     1      41.908  -7.875  -0.796  1.00  0.00     0.231 C 
HETATM   37  C   UNL     1      43.207  -7.660  -1.549  1.00  0.00     0.034 C 
ENDBRANCH   1  36
TORSDOF 6
ENDMDL
MODEL 4
REMARK VINA RESULT:      -8.7      5.140      8.437
REMARK  6 active torsions:
REMARK  status: ('A' for Active; 'I' for Inactive)
REMARK    1  A    between atoms: C_2  and  N_3 
REMARK    2  A    between atoms: C_11  and  C_12 
REMARK    3  A    between atoms: C_14  and  C_15 
REMARK    4  A    between atoms: C_15  and  O_16 
REMARK    5  A    between atoms: O_16  and  C_17 
REMARK    6  A    between atoms: C_25  and  O_26 
ROOT
HETATM    1  N   UNL     1      40.890 -10.216  -2.737  1.00  0.00    -0.067 N 
HETATM    2  H   UNL     1      41.849 -10.352  -2.391  1.00  0.00     0.280 HD
HETATM    3  C   UNL     1      40.124  -9.533  -1.604  1.00  0.00     0.281 C 
HETATM    4  C   UNL     1      39.880 -10.477  -0.478  1.00  0.00     0.018 A 
HETATM    5  C   UNL     1      40.020 -11.851  -0.542  1.00  0.00    -0.023 A 
HETATM    6  C   UNL     1      39.671 -12.465   0.704  1.00  0.00     0.073 A 
HETATM    7  C   UNL     1      39.280 -11.535   1.639  1.00  0.00     0.088 A 
HETATM    8  N   UNL     1      38.878 -11.863   2.884  1.00  0.00    -0.358 N 
HETATM    9  C   UNL     1      39.232 -13.167   3.415  1.00  0.00     0.219 C 
HETATM   10  N   UNL     1      39.252 -14.140   2.350  1.00  0.00    -0.332 N 
HETATM   11  C   UNL     1      39.650 -13.870   1.069  1.00  0.00     0.256 C 
HETATM   12  O   UNL     1      39.955 -14.762   0.285  1.00  0.00    -0.267 OA
HETATM   13  S   UNL     1      39.340  -9.944   1.046  1.00  0.00    -0.074 SA
HETATM   14  C   UNL     1      40.483 -12.530  -1.793  1.00  0.00     0.068 C 
HETATM   15  C   UNL     1      40.327 -11.615  -3.019  1.00  0.00     0.240 C 
HETATM   16  H   UNL     1      38.785 -11.129   3.579  1.00  0.00     0.162 HD
HETATM   17  H   UNL     1      39.282 -15.115   2.609  1.00  0.00     0.165 HD
ENDROOT
BRANCH   9  18
HETATM   18  C   UNL     1      40.522 -13.090   4.221  1.00  0.00    -0.016 A 
HETATM   19  C   UNL     1      41.101 -14.279   4.705  1.00  0.00     0.023 A 
HETATM   20  C   UNL     1      42.300 -14.275   5.448  1.00  0.00    -0.000 A 
HETATM   21  C   UNL     1      42.941 -13.054   5.706  1.00  0.00     0.076 A 
HETATM   22  C   UNL     1      42.375 -11.868   5.233  1.00  0.00     0.038 A 
HETATM   23  C   UNL     1      41.182 -11.886   4.501  1.00  0.00     0.014 A 
BRANCH  20  24
HETATM   24  C   UNL     1      42.853 -15.587   5.968  1.00  0.00     0.217 C 
BRANCH  24  25
HETATM   25  O   UNL     1      43.973 -15.971   5.163  1.00  0.00    -0.347 OA
BRANCH  25  26
HETATM   26  C   UNL     1      43.805 -17.059   4.351  1.00  0.00     0.070 A 
HETATM   27  C   UNL     1      44.137 -18.284   4.940  1.00  0.00     0.063 A 
HETATM   28  C   UNL     1      44.011 -19.471   4.217  1.00  0.00     0.075 A 
HETATM   29 CL   UNL     1      44.422 -20.966   4.964  1.00  0.00    -0.081 Cl
HETATM   30  C   UNL     1      43.555 -19.435   2.903  1.00  0.00     0.138 A 
HETATM   31  F   UNL     1      43.425 -20.561   2.187  1.00  0.00    -0.204 F 
HETATM   32  C   UNL     1      43.226 -18.223   2.305  1.00  0.00     0.047 A 
HETATM   33  C   UNL     1      43.353 -17.032   3.027  1.00  0.00     0.040 A 
ENDBRANCH  25  26
ENDBRANCH  24  25
ENDBRANCH  20  24
BRANCH  21  34
HETATM   34  O   UNL     1      44.088 -13.111   6.451  1.00  0.00    -0.355 OA
HETATM   35  C   UNL     1      44.770 -11.884   6.684  1.00  0.00     0.210 C 
ENDBRANCH  21  34
ENDBRANCH   9  18
BRANCH   1  36
HETATM   36  C   UNL     1      40.957  -9.387  -3.995  1.00  0.00     0.231 C 
HETATM   37  C   UNL     1      40.359  -8.010  -3.778  1.00  0.00     0.034 C 
ENDBRANCH   1  36
TORSDOF 6
ENDMDL
MODEL 5
REMARK VINA RESULT:      -8.6      1.779      2.350
REMARK  6 active torsions:
REMARK  status: ('A' for Active; 'I' for Inactive)
REMARK    1  A    between atoms: C_2  and  N_3 
REMARK    2  A    between atoms: C_11  and  C_12 
REMARK    3  A    between atoms: C_14  and  C_15 
REMARK    4  A    between atoms: C_15  and  O_16 
REMARK    5  A    between atoms: O_16  and  C_17 
REMARK    6  A    between atoms: C_25  and  O_26 
ROOT
HETATM    1  N   UNL     1      40.964  -7.438  13.784  1.00  0.00    -0.067 N 
HETATM    2  H   UNL     1      40.237  -8.057  13.400  1.00  0.00     0.280 HD
HETATM    3  C   UNL     1      41.452  -6.583  12.614  1.00  0.00     0.281 C 
HETATM    4  C   UNL     1      42.255  -7.394  11.658  1.00  0.00     0.018 A 
HETATM    5  C   UNL     1      42.775  -8.649  11.913  1.00  0.00    -0.023 A 
HETATM    6  C   UNL     1      43.529  -9.133  10.795  1.00  0.00     0.073 A 
HETATM    7  C   UNL     1      43.548  -8.228   9.762  1.00  0.00     0.088 A 
HETATM    8  N   UNL     1      44.213  -8.438   8.607  1.00  0.00    -0.358 N 
HETATM    9  C   UNL     1      44.589  -9.793   8.251  1.00  0.00     0.219 C 
HETATM   10  N   UNL     1      44.897 -10.545   9.444  1.00  0.00    -0.332 N 
HETATM   11  C   UNL     1      44.259 -10.379  10.643  1.00  0.00     0.256 C 
HETATM   12  O   UNL     1      44.317 -11.226  11.528  1.00  0.00    -0.267 OA
HETATM   13  S   UNL     1      42.667  -6.817  10.110  1.00  0.00    -0.074 SA
HETATM   14  C   UNL     1      42.534  -9.342  13.218  1.00  0.00     0.068 C 
HETATM   15  C   UNL     1      42.081  -8.352  14.304  1.00  0.00     0.240 C 
HETATM   16  H   UNL     1      44.034  -7.822   7.819  1.00  0.00     0.162 HD
HETATM   17  H   UNL     1      45.366 -11.431   9.330  1.00  0.00     0.165 HD
ENDROOT
BRANCH   9  18
HETATM   18  C   UNL     1      43.531 -10.433   7.362  1.00  0.00    -0.016 A 
HETATM   19  C   UNL     1      43.692 -11.772   6.956  1.00  0.00     0.023 A 
HETATM   20  C   UNL     1      42.743 -12.423   6.141  1.00  0.00    -0.000 A 
HETATM   21  C   UNL     1      41.600 -11.722   5.729  1.00  0.00     0.076 A 
HETATM   22  C   UNL     1      41.430 -10.393   6.122  1.00  0.00     0.038 A 
HETATM   23  C   UNL     1      42.383  -9.757   6.928  1.00  0.00     0.014 A 
BRANCH  20  24
HETATM   24  C   UNL     1      42.992 -13.855   5.714  1.00  0.00     0.217 C 
BRANCH  24  25
HETATM   25  O   UNL     1      43.158 -13.894   4.292  1.00  0.00    -0.347 OA
BRANCH  25  26
HETATM   26  C   UNL     1      43.160 -15.129   3.703  1.00  0.00     0.070 A 
HETATM   27  C   UNL     1      43.470 -16.186   4.567  1.00  0.00     0.063 A 
HETATM   28  C   UNL     1      43.505 -17.497   4.091  1.00  0.00     0.075 A 
HETATM   29 CL   UNL     1      43.885 -18.781   5.172  1.00  0.00    -0.081 Cl
HETATM   30  C   UNL     1      43.235 -17.754   2.750  1.00  0.00     0.138 A 
HETATM   31  F   UNL     1      43.264 -19.004   2.268  1.00  0.00    -0.204 F 
HETATM   32  C   UNL     1      42.932 -16.710   1.881  1.00  0.00     0.047 A 
HETATM   33  C   UNL     1      42.896 -15.395   2.356  1.00  0.00     0.040 A 
ENDBRANCH  25  26
ENDBRANCH  24  25
ENDBRANCH  20  24
BRANCH  21  34
HETATM   34  O   UNL     1      40.725 -12.399   4.922  1.00  0.00    -0.355 OA
HETATM   35  C   UNL     1      39.399 -12.572   5.406  1.00  0.00     0.210 C 
ENDBRANCH  21  34
ENDBRANCH   9  18
BRANCH   1  36
HETATM   36  C   UNL     1      40.352  -6.629  14.900  1.00  0.00     0.231 C 
HETATM   37  C   UNL     1      40.601  -7.278  16.248  1.00  0.00     0.034 C 
ENDBRANCH   1  36
TORSDOF 6
ENDMDL
MODEL 6
REMARK VINA RESULT:      -8.5      5.525     10.266
REMARK  6 active torsions:
REMARK  status: ('A' for Active; 'I' for Inactive)
REMARK    1  A    between atoms: C_2  and  N_3 
REMARK    2  A    between atoms: C_11  and  C_12 
REMARK    3  A    between atoms: C_14  and  C_15 
REMARK    4  A    between atoms: C_15  and  O_16 
REMARK    5  A    between atoms: O_16  and  C_17 
REMARK    6  A    between atoms: C_25  and  O_26 
ROOT
HETATM    1  N   UNL     1      39.961 -13.027  -1.223  1.00  0.00    -0.067 N 
HETATM    2  H   UNL     1      40.966 -12.843  -1.109  1.00  0.00     0.280 HD
HETATM    3  C   UNL     1      39.252 -12.186  -0.162  1.00  0.00     0.281 C 
HETATM    4  C   UNL     1      39.481 -12.741   1.201  1.00  0.00     0.018 A 
HETATM    5  C   UNL     1      39.979 -14.001   1.478  1.00  0.00    -0.023 A 
HETATM    6  C   UNL     1      40.040 -14.233   2.890  1.00  0.00     0.073 A 
HETATM    7  C   UNL     1      39.583 -13.152   3.605  1.00  0.00     0.088 A 
HETATM    8  N   UNL     1      39.514 -13.132   4.952  1.00  0.00    -0.358 N 
HETATM    9  C   UNL     1      40.301 -14.089   5.709  1.00  0.00     0.219 C 
HETATM   10  N   UNL     1      40.397 -15.329   4.978  1.00  0.00    -0.332 N 
HETATM   11  C   UNL     1      40.471 -15.415   3.615  1.00  0.00     0.256 C 
HETATM   12  O   UNL     1      40.863 -16.431   3.052  1.00  0.00    -0.267 OA
HETATM   13  S   UNL     1      39.097 -11.864   2.608  1.00  0.00    -0.074 SA
HETATM   14  C   UNL     1      40.380 -14.939   0.383  1.00  0.00     0.068 C 
HETATM   15  C   UNL     1      39.762 -14.526  -0.964  1.00  0.00     0.240 C 
HETATM   16  H   UNL     1      39.349 -12.247   5.422  1.00  0.00     0.162 HD
HETATM   17  H   UNL     1      40.739 -16.139   5.475  1.00  0.00     0.165 HD
ENDROOT
BRANCH   9  18
HETATM   18  C   UNL     1      41.643 -13.490   6.108  1.00  0.00    -0.016 A 
HETATM   19  C   UNL     1      41.734 -12.104   6.345  1.00  0.00     0.023 A 
HETATM   20  C   UNL     1      42.945 -11.491   6.728  1.00  0.00    -0.000 A 
HETATM   21  C   UNL     1      44.092 -12.283   6.886  1.00  0.00     0.076 A 
HETATM   22  C   UNL     1      44.016 -13.658   6.651  1.00  0.00     0.038 A 
HETATM   23  C   UNL     1      42.808 -14.253   6.267  1.00  0.00     0.014 A 
BRANCH  20  24
HETATM   24  C   UNL     1      42.983  -9.991   6.936  1.00  0.00     0.217 C 
BRANCH  24  25
HETATM   25  O   UNL     1      42.052  -9.641   7.967  1.00  0.00    -0.347 OA
BRANCH  25  26
HETATM   26  C   UNL     1      42.577  -9.299   9.183  1.00  0.00     0.070 A 
HETATM   27  C   UNL     1      41.674  -8.684  10.056  1.00  0.00     0.063 A 
HETATM   28  C   UNL     1      42.084  -8.286  11.329  1.00  0.00     0.075 A 
HETATM   29 CL   UNL     1      40.953  -7.534  12.387  1.00  0.00    -0.081 Cl
HETATM   30  C   UNL     1      43.399  -8.498  11.730  1.00  0.00     0.138 A 
HETATM   31  F   UNL     1      43.818  -8.124  12.947  1.00  0.00    -0.204 F 
HETATM   32  C   UNL     1      44.308  -9.104  10.868  1.00  0.00     0.047 A 
HETATM   33  C   UNL     1      43.899  -9.504   9.592  1.00  0.00     0.040 A 
ENDBRANCH  25  26
ENDBRANCH  24  25
ENDBRANCH  20  24
BRANCH  21  34
HETATM   34  O   UNL     1      45.243 -11.630   7.236  1.00  0.00    -0.355 OA
HETATM   35  C   UNL     1      46.119 -11.249   6.181  1.00  0.00     0.210 C 
ENDBRANCH  21  34
ENDBRANCH   9  18
BRANCH   1  36
HETATM   36  C   UNL     1      39.573 -12.658  -2.634  1.00  0.00     0.231 C 
HETATM   37  C   UNL     1      38.851 -13.802  -3.321  1.00  0.00     0.034 C 
ENDBRANCH   1  36
TORSDOF 6
ENDMDL
MODEL 7
REMARK VINA RESULT:      -8.4      3.409      5.024
REMARK  6 active torsions:
REMARK  status: ('A' for Active; 'I' for Inactive)
REMARK    1  A    between atoms: C_2  and  N_3 
REMARK    2  A    between atoms: C_11  and  C_12 
REMARK    3  A    between atoms: C_14  and  C_15 
REMARK    4  A    between atoms: C_15  and  O_16 
REMARK    5  A    between atoms: O_16  and  C_17 
REMARK    6  A    between atoms: C_25  and  O_26 
ROOT
HETATM    1  N   UNL     1      45.018 -10.019   7.478  1.00  0.00    -0.067 N 
HETATM    2  H   UNL     1      45.193  -9.795   6.490  1.00  0.00     0.280 HD
HETATM    3  C   UNL     1      44.701 -11.514   7.525  1.00  0.00     0.281 C 
HETATM    4  C   UNL     1      43.363 -11.795   6.936  1.00  0.00     0.018 A 
HETATM    5  C   UNL     1      42.389 -10.849   6.674  1.00  0.00    -0.023 A 
HETATM    6  C   UNL     1      41.205 -11.459   6.145  1.00  0.00     0.073 A 
HETATM    7  C   UNL     1      41.337 -12.823   6.040  1.00  0.00     0.088 A 
HETATM    8  N   UNL     1      40.352 -13.628   5.592  1.00  0.00    -0.358 N 
HETATM    9  C   UNL     1      39.267 -13.048   4.822  1.00  0.00     0.219 C 
HETATM   10  N   UNL     1      38.992 -11.713   5.294  1.00  0.00    -0.332 N 
HETATM   11  C   UNL     1      39.946 -10.849   5.757  1.00  0.00     0.256 C 
HETATM   12  O   UNL     1      39.737  -9.644   5.849  1.00  0.00    -0.267 OA
HETATM   13  S   UNL     1      42.860 -13.376   6.554  1.00  0.00    -0.074 SA
HETATM   14  C   UNL     1      42.624  -9.395   6.940  1.00  0.00     0.068 C 
HETATM   15  C   UNL     1      43.803  -9.184   7.904  1.00  0.00     0.240 C 
HETATM   16  H   UNL     1      40.573 -14.592   5.362  1.00  0.00     0.162 HD
HETATM   17  H   UNL     1      38.135 -11.276   4.987  1.00  0.00     0.165 HD
ENDROOT
BRANCH   9  18
HETATM   18  C   UNL     1      39.555 -13.140   3.329  1.00  0.00    -0.016 A 
HETATM   19  C   UNL     1      40.436 -14.133   2.859  1.00  0.00     0.023 A 
HETATM   20  C   UNL     1      40.735 -14.276   1.488  1.00  0.00    -0.000 A 
HETATM   21  C   UNL     1      40.132 -13.410   0.563  1.00  0.00     0.076 A 
HETATM   22  C   UNL     1      39.258 -12.419   1.017  1.00  0.00     0.038 A 
HETATM   23  C   UNL     1      38.974 -12.286   2.382  1.00  0.00     0.014 A 
BRANCH  20  24
HETATM   24  C   UNL     1      41.716 -15.344   1.051  1.00  0.00     0.217 C 
BRANCH  24  25
HETATM   25  O   UNL     1      42.909 -15.229   1.835  1.00  0.00    -0.347 OA
BRANCH  25  26
HETATM   26  C   UNL     1      43.226 -16.291   2.637  1.00  0.00     0.070 A 
HETATM   27  C   UNL     1      43.220 -17.532   1.991  1.00  0.00     0.063 A 
HETATM   28  C   UNL     1      43.526 -18.696   2.697  1.00  0.00     0.075 A 
HETATM   29 CL   UNL     1      43.515 -20.211   1.880  1.00  0.00    -0.081 Cl
HETATM   30  C   UNL     1      43.837 -18.621   4.051  1.00  0.00     0.138 A 
HETATM   31  F   UNL     1      44.134 -19.725   4.752  1.00  0.00    -0.204 F 
HETATM   32  C   UNL     1      43.842 -17.393   4.705  1.00  0.00     0.047 A 
HETATM   33  C   UNL     1      43.534 -16.226   4.000  1.00  0.00     0.040 A 
ENDBRANCH  25  26
ENDBRANCH  24  25
ENDBRANCH  20  24
BRANCH  21  34
HETATM   34  O   UNL     1      40.477 -13.582  -0.751  1.00  0.00    -0.355 OA
HETATM   35  C   UNL     1      39.464 -14.058  -1.630  1.00  0.00     0.210 C 
ENDBRANCH  21  34
ENDBRANCH   9  18
BRANCH   1  36
HETATM   36  C   UNL     1      46.246  -9.644   8.270  1.00  0.00     0.231 C 
HETATM   37  C   UNL     1      45.897  -9.350   9.717  1.00  0.00     0.034 C 
ENDBRANCH   1  36
TORSDOF 6
ENDMDL
MODEL 8
REMARK VINA RESULT:      -8.3      3.254      3.971
REMARK  6 active torsions:
REMARK  status: ('A' for Active; 'I' for Inactive)
REMARK    1  A    between atoms: C_2  and  N_3 
REMARK    2  A    between atoms: C_11  and  C_12 
REMARK    3  A    between atoms: C_14  and  C_15 
REMARK    4  A    between atoms: C_15  and  O_16 
REMARK    5  A    between atoms: O_16  and  C_17 
REMARK    6  A    between atoms: C_25  and  O_26 
ROOT
HETATM    1  N   UNL     1      41.917  -8.596  11.697  1.00  0.00    -0.067 N 
HETATM    2  H   UNL     1      41.806  -9.570  12.011  1.00  0.00     0.280 HD
HETATM    3  C   UNL     1      41.205  -8.503  10.348  1.00  0.00     0.281 C 
HETATM    4  C   UNL     1      41.966  -9.223   9.290  1.00  0.00     0.018 A 
HETATM    5  C   UNL     1      43.278  -9.646   9.396  1.00  0.00    -0.023 A 
HETATM    6  C   UNL     1      43.720 -10.272   8.185  1.00  0.00     0.073 A 
HETATM    7  C   UNL     1      42.733 -10.285   7.229  1.00  0.00     0.088 A 
HETATM    8  N   UNL     1      42.908 -10.796   5.993  1.00  0.00    -0.358 N 
HETATM    9  C   UNL     1      44.007 -11.716   5.763  1.00  0.00     0.219 C 
HETATM   10  N   UNL     1      45.130 -11.353   6.595  1.00  0.00    -0.332 N 
HETATM   11  C   UNL     1      45.017 -10.833   7.855  1.00  0.00     0.256 C 
HETATM   12  O   UNL     1      45.959 -10.833   8.640  1.00  0.00    -0.267 OA
HETATM   13  S   UNL     1      41.287  -9.572   7.768  1.00  0.00    -0.074 SA
HETATM   14  C   UNL     1      44.065  -9.437  10.653  1.00  0.00     0.068 C 
HETATM   15  C   UNL     1      43.425  -8.359  11.543  1.00  0.00     0.240 C 
HETATM   16  H   UNL     1      42.095 -10.946   5.404  1.00  0.00     0.162 HD
HETATM   17  H   UNL     1      46.021 -11.780   6.388  1.00  0.00     0.165 HD
ENDROOT
BRANCH   9  18
HETATM   18  C   UNL     1      43.547 -13.159   5.924  1.00  0.00    -0.016 A 
HETATM   19  C   UNL     1      43.075 -13.859   4.796  1.00  0.00     0.023 A 
HETATM   20  C   UNL     1      42.645 -15.199   4.878  1.00  0.00    -0.000 A 
HETATM   21  C   UNL     1      42.696 -15.860   6.114  1.00  0.00     0.076 A 
HETATM   22  C   UNL     1      43.159 -15.176   7.241  1.00  0.00     0.038 A 
HETATM   23  C   UNL     1      43.579 -13.843   7.146  1.00  0.00     0.014 A 
BRANCH  20  24
HETATM   24  C   UNL     1      42.118 -15.885   3.633  1.00  0.00     0.217 C 
BRANCH  24  25
HETATM   25  O   UNL     1      40.727 -15.575   3.486  1.00  0.00    -0.347 OA
BRANCH  25  26
HETATM   26  C   UNL     1      40.369 -14.858   2.377  1.00  0.00     0.070 A 
HETATM   27  C   UNL     1      39.854 -13.586   2.647  1.00  0.00     0.063 A 
HETATM   28  C   UNL     1      39.450 -12.753   1.603  1.00  0.00     0.075 A 
HETATM   29 CL   UNL     1      38.822 -11.190   1.960  1.00  0.00    -0.081 Cl
HETATM   30  C   UNL     1      39.557 -13.192   0.287  1.00  0.00     0.138 A 
HETATM   31  F   UNL     1      39.176 -12.411  -0.734  1.00  0.00    -0.204 F 
HETATM   32  C   UNL     1      40.063 -14.457   0.007  1.00  0.00     0.047 A 
HETATM   33  C   UNL     1      40.468 -15.294   1.052  1.00  0.00     0.040 A 
ENDBRANCH  25  26
ENDBRANCH  24  25
ENDBRANCH  20  24
BRANCH  21  34
HETATM   34  O   UNL     1      42.244 -17.152   6.137  1.00  0.00    -0.355 OA
HETATM   35  C   UNL     1      43.200 -18.167   6.421  1.00  0.00     0.210 C 
ENDBRANCH  21  34
ENDBRANCH   9  18
BRANCH   1  36
HETATM   36  C   UNL     1      41.324  -7.693  12.748  1.00  0.00     0.231 C 
HETATM   37  C   UNL     1      41.382  -6.239  12.319  1.00  0.00     0.034 C 
ENDBRANCH   1  36
TORSDOF 6
ENDMDL
MODEL 9
REMARK VINA RESULT:      -8.2     18.267     20.424
REMARK  6 active torsions:
REMARK  status: ('A' for Active; 'I' for Inactive)
REMARK    1  A    between atoms: C_2  and  N_3 
REMARK    2  A    between atoms: C_11  and  C_12 
REMARK    3  A    between atoms: C_14  and  C_15 
REMARK    4  A    between atoms: C_15  and  O_16 
REMARK    5  A    between atoms: O_16  and  C_17 
REMARK    6  A    between atoms: C_25  and  O_26 
ROOT
HETATM    1  N   UNL     1      42.844 -31.472   2.240  1.00  0.00    -0.067 N 
HETATM    2  H   UNL     1      43.593 -32.025   2.676  1.00  0.00     0.280 HD
HETATM    3  C   UNL     1      43.057 -31.588   0.730  1.00  0.00     0.281 C 
HETATM    4  C   UNL     1      44.257 -30.818   0.299  1.00  0.00     0.018 A 
HETATM    5  C   UNL     1      44.915 -29.869   1.060  1.00  0.00    -0.023 A 
HETATM    6  C   UNL     1      46.005 -29.290   0.334  1.00  0.00     0.073 A 
HETATM    7  C   UNL     1      46.115 -29.818  -0.930  1.00  0.00     0.088 A 
HETATM    8  N   UNL     1      47.047 -29.420  -1.820  1.00  0.00    -0.358 N 
HETATM    9  C   UNL     1      48.221 -28.716  -1.338  1.00  0.00     0.219 C 
HETATM   10  N   UNL     1      47.870 -27.902  -0.199  1.00  0.00    -0.332 N 
HETATM   11  C   UNL     1      46.936 -28.251   0.737  1.00  0.00     0.256 C 
HETATM   12  O   UNL     1      46.887 -27.708   1.835  1.00  0.00    -0.267 OA
HETATM   13  S   UNL     1      44.939 -31.003  -1.250  1.00  0.00    -0.074 SA
HETATM   14  C   UNL     1      44.477 -29.549   2.455  1.00  0.00     0.068 C 
HETATM   15  C   UNL     1      43.038 -30.026   2.716  1.00  0.00     0.240 C 
HETATM   16  H   UNL     1      47.194 -29.974  -2.658  1.00  0.00     0.162 HD
HETATM   17  H   UNL     1      48.540 -27.210   0.104  1.00  0.00     0.165 HD
ENDROOT
BRANCH   9  18
HETATM   18  C   UNL     1      49.368 -29.687  -1.086  1.00  0.00    -0.016 A 
HETATM   19  C   UNL     1      49.672 -30.063   0.236  1.00  0.00     0.023 A 
HETATM   20  C   UNL     1      50.714 -30.965   0.534  1.00  0.00    -0.000 A 
HETATM   21  C   UNL     1      51.466 -31.512  -0.517  1.00  0.00     0.076 A 
HETATM   22  C   UNL     1      51.176 -31.145  -1.833  1.00  0.00     0.038 A 
HETATM   23  C   UNL     1      50.141 -30.245  -2.113  1.00  0.00     0.014 A 
BRANCH  20  24
HETATM   24  C   UNL     1      51.011 -31.304   1.981  1.00  0.00     0.217 C 
BRANCH  24  25
HETATM   25  O   UNL     1      50.466 -30.279   2.819  1.00  0.00    -0.347 OA
BRANCH  25  26
HETATM   26  C   UNL     1      49.485 -30.655   3.696  1.00  0.00     0.070 A 
HETATM   27  C   UNL     1      49.813 -31.748   4.504  1.00  0.00     0.063 A 
HETATM   28  C   UNL     1      48.898 -32.231   5.441  1.00  0.00     0.075 A 
HETATM   29 CL   UNL     1      49.325 -33.577   6.427  1.00  0.00    -0.081 Cl
HETATM   30  C   UNL     1      47.652 -31.624   5.568  1.00  0.00     0.138 A 
HETATM   31  F   UNL     1      46.756 -32.070   6.460  1.00  0.00    -0.204 F 
HETATM   32  C   UNL     1      47.314 -30.539   4.766  1.00  0.00     0.047 A 
HETATM   33  C   UNL     1      48.229 -30.053   3.827  1.00  0.00     0.040 A 
ENDBRANCH  25  26
ENDBRANCH  24  25
ENDBRANCH  20  24
BRANCH  21  34
HETATM   34  O   UNL     1      52.479 -32.364  -0.166  1.00  0.00    -0.355 OA
HETATM   35  C   UNL     1      53.477 -32.622  -1.147  1.00  0.00     0.210 C 
ENDBRANCH  21  34
ENDBRANCH   9  18
BRANCH   1  36
HETATM   36  C   UNL     1      41.520 -32.028   2.700  1.00  0.00     0.231 C 
HETATM   37  C   UNL     1      40.388 -31.559   1.806  1.00  0.00     0.034 C 
ENDBRANCH   1  36
TORSDOF 6
ENDMDL
MODEL 10
REMARK VINA RESULT:      -8.1      6.345      9.641
REMARK  6 active torsions:
REMARK  status: ('A' for Active; 'I' for Inactive)
REMARK    1  A    between atoms: C_2  and  N_3 
REMARK    2  A    between atoms: C_11  and  C_12 
REMARK    3  A    between atoms: C_14  and  C_15 
REMARK    4  A    between atoms: C_15  and  O_16 
REMARK    5  A    between atoms: O_16  and  C_17 
REMARK    6  A    between atoms: C_25  and  O_26 
ROOT
HETATM    1  N   UNL     1      43.603 -17.695   3.393  1.00  0.00    -0.067 N 
HETATM    2  H   UNL     1      44.246 -16.935   3.134  1.00  0.00     0.280 HD
HETATM    3  C   UNL     1      42.411 -17.584   2.442  1.00  0.00     0.281 C 
HETATM    4  C   UNL     1      41.577 -16.394   2.767  1.00  0.00     0.018 A 
HETATM    5  C   UNL     1      41.649 -15.662   3.937  1.00  0.00    -0.023 A 
HETATM    6  C   UNL     1      40.683 -14.604   3.946  1.00  0.00     0.073 A 
HETATM    7  C   UNL     1      39.929 -14.593   2.797  1.00  0.00     0.088 A 
HETATM    8  N   UNL     1      38.934 -13.709   2.575  1.00  0.00    -0.358 N 
HETATM    9  C   UNL     1      38.894 -12.486   3.355  1.00  0.00     0.219 C 
HETATM   10  N   UNL     1      39.393 -12.740   4.686  1.00  0.00    -0.332 N 
HETATM   11  C   UNL     1      40.399 -13.620   4.975  1.00  0.00     0.256 C 
HETATM   12  O   UNL     1      41.005 -13.582   6.041  1.00  0.00    -0.267 OA
HETATM   13  S   UNL     1      40.373 -15.820   1.709  1.00  0.00    -0.074 SA
HETATM   14  C   UNL     1      42.641 -15.999   5.008  1.00  0.00     0.068 C 
HETATM   15  C   UNL     1      43.179 -17.430   4.844  1.00  0.00     0.240 C 
HETATM   16  H   UNL     1      38.546 -13.633   1.640  1.00  0.00     0.162 HD
HETATM   17  H   UNL     1      39.231 -12.032   5.388  1.00  0.00     0.165 HD
ENDROOT
BRANCH   9  18
HETATM   18  C   UNL     1      39.603 -11.354   2.624  1.00  0.00    -0.016 A 
HETATM   19  C   UNL     1      40.087 -11.575   1.320  1.00  0.00     0.023 A 
HETATM   20  C   UNL     1      40.743 -10.565   0.587  1.00  0.00    -0.000 A 
HETATM   21  C   UNL     1      40.911  -9.299   1.167  1.00  0.00     0.076 A 
HETATM   22  C   UNL     1      40.437  -9.067   2.461  1.00  0.00     0.038 A 
HETATM   23  C   UNL     1      39.793 -10.082   3.179  1.00  0.00     0.014 A 
BRANCH  20  24
HETATM   24  C   UNL     1      41.269 -10.877  -0.799  1.00  0.00     0.217 C 
BRANCH  24  25
HETATM   25  O   UNL     1      40.190 -10.789  -1.737  1.00  0.00    -0.347 OA
BRANCH  25  26
HETATM   26  C   UNL     1      39.653 -11.970  -2.174  1.00  0.00     0.070 A 
HETATM   27  C   UNL     1      38.290 -11.911  -2.482  1.00  0.00     0.063 A 
HETATM   28  C   UNL     1      37.621 -13.048  -2.938  1.00  0.00     0.075 A 
HETATM   29 CL   UNL     1      35.944 -12.952  -3.313  1.00  0.00    -0.081 Cl
HETATM   30  C   UNL     1      38.315 -14.246  -3.085  1.00  0.00     0.138 A 
HETATM   31  F   UNL     1      37.695 -15.352  -3.521  1.00  0.00    -0.204 F 
HETATM   32  C   UNL     1      39.669 -14.317  -2.777  1.00  0.00     0.047 A 
HETATM   33  C   UNL     1      40.341 -13.179  -2.319  1.00  0.00     0.040 A 
ENDBRANCH  25  26
ENDBRANCH  24  25
ENDBRANCH  20  24
BRANCH  21  34
HETATM   34  O   UNL     1      41.574  -8.364   0.417  1.00  0.00    -0.355 OA
HETATM   35  C   UNL     1      40.931  -7.109   0.230  1.00  0.00     0.210 C 
ENDBRANCH  21  34
ENDBRANCH   9  18
BRANCH   1  36
HETATM   36  C   UNL     1      44.345 -19.002   3.269  1.00  0.00     0.231 C 
HETATM   37  C   UNL     1      44.189 -19.843   4.522  1.00  0.00     0.034 C 
ENDBRANCH   1  36
TORSDOF 6
ENDMDL
