MODEL 1
REMARK VINA RESULT:      -8.1      0.000      0.000
REMARK  3 active torsions:
REMARK  status: ('A' for Active; 'I' for Inactive)
REMARK    1  A    between atoms: C_5  and  N_6 
REMARK       I    between atoms: N_6  and  C_7 
REMARK    2  A    between atoms: C_7  and  C_8 
REMARK    3  A    between atoms: C_9  and  C_10 
ROOT
HETATM    1  C   UNL     1      40.281 -13.950   2.314  1.00  0.00     0.062 C 
HETATM    2  C   UNL     1      40.211 -12.866   3.400  1.00  0.00     0.199 C 
HETATM    3  N   UNL     1      39.439 -11.722   2.927  1.00  0.00    -0.092 N 
HETATM    4  C   UNL     1      39.121 -11.494   1.618  1.00  0.00     0.735 A 
HETATM    5  N   UNL     1      39.495 -12.397   0.689  1.00  0.00    -0.191 N 
HETATM    6  N   UNL     1      38.917 -10.766   3.708  1.00  0.00     0.012 NA
HETATM    7  N   UNL     1      38.329  -9.929   2.858  1.00  0.00     0.033 NA
HETATM    8  N   UNL     1      38.449 -10.371   1.552  1.00  0.00     0.030 NA
HETATM    9  C   UNL     1      39.999 -13.655   1.017  1.00  0.00     0.037 C 
HETATM   10  C   UNL     1      40.219 -14.584  -0.151  1.00  0.00     0.070 C 
HETATM   11  H   UNL     1      39.226 -12.235  -0.280  1.00  0.00     0.184 HD
ENDROOT
BRANCH   1  12
HETATM   12  C   UNL     1      40.669 -15.295   2.841  1.00  0.00     0.256 C 
HETATM   13  N   UNL     1      42.024 -15.552   2.801  1.00  0.00    -0.323 N 
HETATM   14  H   UNL     1      42.633 -14.822   2.456  1.00  0.00     0.169 HD
HETATM   15  O   UNL     1      39.793 -16.082   3.171  1.00  0.00    -0.267 OA
BRANCH  13  16
HETATM   16  C   UNL     1      42.679 -16.730   3.226  1.00  0.00     0.035 A 
HETATM   17  C   UNL     1      42.988 -17.799   2.385  1.00  0.00     0.030 A 
HETATM   18  C   UNL     1      43.630 -18.936   2.885  1.00  0.00     0.009 A 
HETATM   19  C   UNL     1      43.971 -19.028   4.237  1.00  0.00    -0.062 A 
HETATM   20  C   UNL     1      44.616 -20.273   4.768  1.00  0.00     0.048 C 
HETATM   21  C   UNL     1      43.653 -17.962   5.084  1.00  0.00     0.009 A 
HETATM   22  C   UNL     1      43.025 -16.819   4.580  1.00  0.00     0.030 A 
ENDBRANCH  13  16
ENDBRANCH   1  12
BRANCH   2  23
HETATM   23  C   UNL     1      41.583 -12.392   3.858  1.00  0.00    -0.011 A 
HETATM   24  C   UNL     1      42.433 -11.667   3.022  1.00  0.00     0.125 A 
HETATM   25  N   UNL     1      43.672 -11.250   3.368  1.00  0.00    -0.272 NA
HETATM   26  C   UNL     1      44.094 -11.568   4.610  1.00  0.00     0.116 A 
HETATM   27  C   UNL     1      43.333 -12.277   5.522  1.00  0.00     0.020 A 
HETATM   28  C   UNL     1      42.060 -12.692   5.140  1.00  0.00     0.012 A 
ENDBRANCH   2  23
TORSDOF 3
ENDMDL
MODEL 2
REMARK VINA RESULT:      -8.0      2.453      4.719
REMARK  3 active torsions:
REMARK  status: ('A' for Active; 'I' for Inactive)
REMARK    1  A    between atoms: C_5  and  N_6 
REMARK       I    between atoms: N_6  and  C_7 
REMARK    2  A    between atoms: C_7  and  C_8 
REMARK    3  A    between atoms: C_9  and  C_10 
ROOT
HETATM    1  C   UNL     1      40.475 -12.478   1.042  1.00  0.00     0.062 C 
HETATM    2  C   UNL     1      40.836 -12.298  -0.440  1.00  0.00     0.199 C 
HETATM    3  N   UNL     1      40.955 -10.880  -0.766  1.00  0.00    -0.092 N 
HETATM    4  C   UNL     1      40.486  -9.866   0.020  1.00  0.00     0.735 A 
HETATM    5  N   UNL     1      39.913 -10.170   1.203  1.00  0.00    -0.191 N 
HETATM    6  N   UNL     1      41.561 -10.386  -1.856  1.00  0.00     0.012 NA
HETATM    7  N   UNL     1      41.406  -9.069  -1.750  1.00  0.00     0.033 NA
HETATM    8  N   UNL     1      40.737  -8.732  -0.586  1.00  0.00     0.030 NA
HETATM    9  C   UNL     1      39.967 -11.444   1.764  1.00  0.00     0.037 C 
HETATM   10  C   UNL     1      39.404 -11.557   3.159  1.00  0.00     0.070 C 
HETATM   11  H   UNL     1      39.595  -9.406   1.797  1.00  0.00     0.184 HD
ENDROOT
BRANCH   1  12
HETATM   12  C   UNL     1      40.748 -13.856   1.557  1.00  0.00     0.256 C 
HETATM   13  N   UNL     1      42.053 -14.066   1.950  1.00  0.00    -0.323 N 
HETATM   14  H   UNL     1      42.697 -13.289   1.888  1.00  0.00     0.169 HD
HETATM   15  O   UNL     1      39.861 -14.697   1.511  1.00  0.00    -0.267 OA
BRANCH  13  16
HETATM   16  C   UNL     1      42.602 -15.260   2.471  1.00  0.00     0.035 A 
HETATM   17  C   UNL     1      42.881 -16.392   1.704  1.00  0.00     0.030 A 
HETATM   18  C   UNL     1      43.415 -17.540   2.298  1.00  0.00     0.009 A 
HETATM   19  C   UNL     1      43.677 -17.579   3.670  1.00  0.00    -0.062 A 
HETATM   20  C   UNL     1      44.204 -18.833   4.300  1.00  0.00     0.048 C 
HETATM   21  C   UNL     1      43.388 -16.450   4.442  1.00  0.00     0.009 A 
HETATM   22  C   UNL     1      42.869 -15.297   3.845  1.00  0.00     0.030 A 
ENDBRANCH  13  16
ENDBRANCH   1  12
BRANCH   2  23
HETATM   23  C   UNL     1      39.832 -12.947  -1.382  1.00  0.00    -0.011 A 
HETATM   24  C   UNL     1      40.223 -13.839  -2.381  1.00  0.00     0.125 A 
HETATM   25  N   UNL     1      39.377 -14.418  -3.262  1.00  0.00    -0.272 NA
HETATM   26  C   UNL     1      38.071 -14.097  -3.150  1.00  0.00     0.116 A 
HETATM   27  C   UNL     1      37.573 -13.229  -2.195  1.00  0.00     0.020 A 
HETATM   28  C   UNL     1      38.466 -12.649  -1.298  1.00  0.00     0.012 A 
ENDBRANCH   2  23
TORSDOF 3
ENDMDL
MODEL 3
REMARK VINA RESULT:      -8.0      1.674      2.140
REMARK  3 active torsions:
REMARK  status: ('A' for Active; 'I' for Inactive)
REMARK    1  A    between atoms: C_5  and  N_6 
REMARK       I    between atoms: N_6  and  C_7 
REMARK    2  A    between atoms: C_7  and  C_8 
REMARK    3  A    between atoms: C_9  and  C_10 
ROOT
HETATM    1  C   UNL     1      41.712 -13.317   3.213  1.00  0.00     0.062 C 
HETATM    2  C   UNL     1      41.648 -13.028   4.720  1.00  0.00     0.199 C 
HETATM    3  N   UNL     1      40.548 -12.118   5.017  1.00  0.00    -0.092 N 
HETATM    4  C   UNL     1      39.894 -11.367   4.081  1.00  0.00     0.735 A 
HETATM    5  N   UNL     1      40.240 -11.495   2.784  1.00  0.00    -0.191 N 
HETATM    6  N   UNL     1      40.016 -11.918   6.231  1.00  0.00     0.012 NA
HETATM    7  N   UNL     1      39.073 -11.002   6.032  1.00  0.00     0.033 NA
HETATM    8  N   UNL     1      38.987 -10.649   4.696  1.00  0.00     0.030 NA
HETATM    9  C   UNL     1      41.080 -12.508   2.322  1.00  0.00     0.037 C 
HETATM   10  C   UNL     1      41.231 -12.583   0.823  1.00  0.00     0.070 C 
HETATM   11  H   UNL     1      39.726 -10.956   2.090  1.00  0.00     0.184 HD
ENDROOT
BRANCH   1  12
HETATM   12  C   UNL     1      42.508 -14.538   2.875  1.00  0.00     0.256 C 
HETATM   13  N   UNL     1      42.067 -15.691   3.491  1.00  0.00    -0.323 N 
HETATM   14  H   UNL     1      41.249 -15.628   4.081  1.00  0.00     0.169 HD
HETATM   15  O   UNL     1      43.509 -14.426   2.181  1.00  0.00    -0.267 OA
BRANCH  13  16
HETATM   16  C   UNL     1      42.619 -16.986   3.365  1.00  0.00     0.035 A 
HETATM   17  C   UNL     1      42.471 -17.792   2.235  1.00  0.00     0.030 A 
HETATM   18  C   UNL     1      43.041 -19.069   2.193  1.00  0.00     0.009 A 
HETATM   19  C   UNL     1      43.765 -19.565   3.280  1.00  0.00    -0.062 A 
HETATM   20  C   UNL     1      44.329 -20.954   3.238  1.00  0.00     0.048 C 
HETATM   21  C   UNL     1      43.906 -18.764   4.416  1.00  0.00     0.009 A 
HETATM   22  C   UNL     1      43.349 -17.481   4.452  1.00  0.00     0.030 A 
ENDBRANCH  13  16
ENDBRANCH   1  12
BRANCH   2  23
HETATM   23  C   UNL     1      42.943 -12.449   5.271  1.00  0.00    -0.011 A 
HETATM   24  C   UNL     1      43.762 -11.612   4.513  1.00  0.00     0.125 A 
HETATM   25  N   UNL     1      44.936 -11.097   4.943  1.00  0.00    -0.272 NA
HETATM   26  C   UNL     1      45.322 -11.429   6.193  1.00  0.00     0.116 A 
HETATM   27  C   UNL     1      44.586 -12.245   7.033  1.00  0.00     0.020 A 
HETATM   28  C   UNL     1      43.380 -12.760   6.565  1.00  0.00     0.012 A 
ENDBRANCH   2  23
TORSDOF 3
ENDMDL
MODEL 4
REMARK VINA RESULT:      -7.5      2.554      6.478
REMARK  3 active torsions:
REMARK  status: ('A' for Active; 'I' for Inactive)
REMARK    1  A    between atoms: C_5  and  N_6 
REMARK       I    between atoms: N_6  and  C_7 
REMARK    2  A    between atoms: C_7  and  C_8 
REMARK    3  A    between atoms: C_9  and  C_10 
ROOT
HETATM    1  C   UNL     1      41.606 -13.641   4.266  1.00  0.00     0.062 C 
HETATM    2  C   UNL     1      41.575 -15.017   4.948  1.00  0.00     0.199 C 
HETATM    3  N   UNL     1      42.266 -14.963   6.233  1.00  0.00    -0.092 N 
HETATM    4  C   UNL     1      43.104 -13.955   6.616  1.00  0.00     0.735 A 
HETATM    5  N   UNL     1      43.283 -12.905   5.788  1.00  0.00    -0.191 N 
HETATM    6  N   UNL     1      42.150 -15.873   7.211  1.00  0.00     0.012 NA
HETATM    7  N   UNL     1      42.966 -15.436   8.166  1.00  0.00     0.033 NA
HETATM    8  N   UNL     1      43.567 -14.241   7.808  1.00  0.00     0.030 NA
HETATM    9  C   UNL     1      42.495 -12.690   4.659  1.00  0.00     0.037 C 
HETATM   10  C   UNL     1      42.742 -11.386   3.942  1.00  0.00     0.070 C 
HETATM   11  H   UNL     1      43.885 -12.143   6.096  1.00  0.00     0.184 HD
ENDROOT
BRANCH   1  12
HETATM   12  C   UNL     1      40.585 -13.491   3.184  1.00  0.00     0.256 C 
HETATM   13  N   UNL     1      41.090 -13.612   1.906  1.00  0.00    -0.323 N 
HETATM   14  H   UNL     1      42.076 -13.814   1.804  1.00  0.00     0.169 HD
HETATM   15  O   UNL     1      39.438 -13.191   3.483  1.00  0.00    -0.267 OA
BRANCH  13  16
HETATM   16  C   UNL     1      40.369 -13.515   0.694  1.00  0.00     0.035 A 
HETATM   17  C   UNL     1      39.893 -12.317   0.161  1.00  0.00     0.030 A 
HETATM   18  C   UNL     1      39.178 -12.307  -1.041  1.00  0.00     0.009 A 
HETATM   19  C   UNL     1      38.922 -13.495  -1.730  1.00  0.00    -0.062 A 
HETATM   20  C   UNL     1      38.112 -13.474  -2.992  1.00  0.00     0.048 C 
HETATM   21  C   UNL     1      39.388 -14.698  -1.193  1.00  0.00     0.009 A 
HETATM   22  C   UNL     1      40.117 -14.706   0.001  1.00  0.00     0.030 A 
ENDBRANCH  13  16
ENDBRANCH   1  12
BRANCH   2  23
HETATM   23  C   UNL     1      42.186 -16.119   4.095  1.00  0.00    -0.011 A 
HETATM   24  C   UNL     1      43.463 -16.625   4.341  1.00  0.00     0.125 A 
HETATM   25  N   UNL     1      44.063 -17.579   3.595  1.00  0.00    -0.272 NA
HETATM   26  C   UNL     1      43.362 -18.061   2.547  1.00  0.00     0.116 A 
HETATM   27  C   UNL     1      42.088 -17.636   2.215  1.00  0.00     0.020 A 
HETATM   28  C   UNL     1      41.493 -16.653   3.002  1.00  0.00     0.012 A 
ENDBRANCH   2  23
TORSDOF 3
ENDMDL
MODEL 5
REMARK VINA RESULT:      -7.2     15.668     17.651
REMARK  3 active torsions:
REMARK  status: ('A' for Active; 'I' for Inactive)
REMARK    1  A    between atoms: C_5  and  N_6 
REMARK       I    between atoms: N_6  and  C_7 
REMARK    2  A    between atoms: C_7  and  C_8 
REMARK    3  A    between atoms: C_9  and  C_10 
ROOT
HETATM    1  C   UNL     1      46.264 -29.729  -0.134  1.00  0.00     0.062 C 
HETATM    2  C   UNL     1      45.197 -30.835  -0.112  1.00  0.00     0.199 C 
HETATM    3  N   UNL     1      44.792 -31.177  -1.471  1.00  0.00    -0.092 N 
HETATM    4  C   UNL     1      45.054 -30.410  -2.571  1.00  0.00     0.735 A 
HETATM    5  N   UNL     1      45.775 -29.280  -2.420  1.00  0.00    -0.191 N 
HETATM    6  N   UNL     1      44.140 -32.294  -1.825  1.00  0.00     0.012 NA
HETATM    7  N   UNL     1      43.961 -32.170  -3.137  1.00  0.00     0.033 NA
HETATM    8  N   UNL     1      44.526 -31.000  -3.614  1.00  0.00     0.030 NA
HETATM    9  C   UNL     1      46.449 -28.964  -1.242  1.00  0.00     0.037 C 
HETATM   10  C   UNL     1      47.325 -27.738  -1.312  1.00  0.00     0.070 C 
HETATM   11  H   UNL     1      45.992 -28.730  -3.250  1.00  0.00     0.184 HD
ENDROOT
BRANCH   1  12
HETATM   12  C   UNL     1      47.031 -29.619   1.146  1.00  0.00     0.256 C 
HETATM   13  N   UNL     1      48.010 -30.577   1.305  1.00  0.00    -0.323 N 
HETATM   14  H   UNL     1      48.148 -31.241   0.555  1.00  0.00     0.169 HD
HETATM   15  O   UNL     1      46.695 -28.783   1.973  1.00  0.00    -0.267 OA
BRANCH  13  16
HETATM   16  C   UNL     1      48.886 -30.723   2.405  1.00  0.00     0.035 A 
HETATM   17  C   UNL     1      48.527 -31.314   3.616  1.00  0.00     0.030 A 
HETATM   18  C   UNL     1      49.451 -31.412   4.662  1.00  0.00     0.009 A 
HETATM   19  C   UNL     1      50.749 -30.916   4.517  1.00  0.00    -0.062 A 
HETATM   20  C   UNL     1      51.713 -30.985   5.664  1.00  0.00     0.048 C 
HETATM   21  C   UNL     1      51.108 -30.314   3.308  1.00  0.00     0.009 A 
HETATM   22  C   UNL     1      50.189 -30.231   2.258  1.00  0.00     0.030 A 
ENDBRANCH  13  16
ENDBRANCH   1  12
BRANCH   2  23
HETATM   23  C   UNL     1      43.967 -30.460   0.700  1.00  0.00    -0.011 A 
HETATM   24  C   UNL     1      43.226 -29.307   0.434  1.00  0.00     0.125 A 
HETATM   25  N   UNL     1      42.146 -28.912   1.144  1.00  0.00    -0.272 NA
HETATM   26  C   UNL     1      41.776 -29.699   2.175  1.00  0.00     0.116 A 
HETATM   27  C   UNL     1      42.433 -30.866   2.525  1.00  0.00     0.020 A 
HETATM   28  C   UNL     1      43.542 -31.250   1.775  1.00  0.00     0.012 A 
ENDBRANCH   2  23
TORSDOF 3
ENDMDL
MODEL 6
REMARK VINA RESULT:      -7.1      3.686      5.578
REMARK  3 active torsions:
REMARK  status: ('A' for Active; 'I' for Inactive)
REMARK    1  A    between atoms: C_5  and  N_6 
REMARK       I    between atoms: N_6  and  C_7 
REMARK    2  A    between atoms: C_7  and  C_8 
REMARK    3  A    between atoms: C_9  and  C_10 
ROOT
HETATM    1  C   UNL     1      38.777 -12.704  -1.507  1.00  0.00     0.062 C 
HETATM    2  C   UNL     1      38.426 -11.220  -1.319  1.00  0.00     0.199 C 
HETATM    3  N   UNL     1      37.166 -10.907  -1.985  1.00  0.00    -0.092 N 
HETATM    4  C   UNL     1      36.566 -11.708  -2.916  1.00  0.00     0.735 A 
HETATM    5  N   UNL     1      37.134 -12.893  -3.220  1.00  0.00    -0.191 N 
HETATM    6  N   UNL     1      36.420  -9.817  -1.756  1.00  0.00     0.012 NA
HETATM    7  N   UNL     1      35.394  -9.937  -2.593  1.00  0.00     0.033 NA
HETATM    8  N   UNL     1      35.473 -11.111  -3.323  1.00  0.00     0.030 NA
HETATM    9  C   UNL     1      38.181 -13.441  -2.482  1.00  0.00     0.037 C 
HETATM   10  C   UNL     1      38.583 -14.840  -2.877  1.00  0.00     0.070 C 
HETATM   11  H   UNL     1      36.663 -13.497  -3.891  1.00  0.00     0.184 HD
ENDROOT
BRANCH   1  12
HETATM   12  C   UNL     1      39.792 -13.203  -0.528  1.00  0.00     0.256 C 
HETATM   13  N   UNL     1      39.258 -13.863   0.558  1.00  0.00    -0.323 N 
HETATM   14  H   UNL     1      38.254 -13.980   0.593  1.00  0.00     0.169 HD
HETATM   15  O   UNL     1      40.971 -12.924  -0.698  1.00  0.00    -0.267 OA
BRANCH  13  16
HETATM   16  C   UNL     1      39.967 -14.437   1.637  1.00  0.00     0.035 A 
HETATM   17  C   UNL     1      40.242 -13.773   2.833  1.00  0.00     0.030 A 
HETATM   18  C   UNL     1      40.960 -14.409   3.851  1.00  0.00     0.009 A 
HETATM   19  C   UNL     1      41.420 -15.718   3.691  1.00  0.00    -0.062 A 
HETATM   20  C   UNL     1      42.230 -16.369   4.773  1.00  0.00     0.048 C 
HETATM   21  C   UNL     1      41.156 -16.382   2.490  1.00  0.00     0.009 A 
HETATM   22  C   UNL     1      40.424 -15.751   1.478  1.00  0.00     0.030 A 
ENDBRANCH  13  16
ENDBRANCH   1  12
BRANCH   2  23
HETATM   23  C   UNL     1      39.510 -10.282  -1.828  1.00  0.00    -0.011 A 
HETATM   24  C   UNL     1      40.080  -9.298  -1.018  1.00  0.00     0.125 A 
HETATM   25  N   UNL     1      41.022  -8.421  -1.430  1.00  0.00    -0.272 NA
HETATM   26  C   UNL     1      41.423  -8.519  -2.715  1.00  0.00     0.116 A 
HETATM   27  C   UNL     1      40.931  -9.459  -3.604  1.00  0.00     0.020 A 
HETATM   28  C   UNL     1      39.963 -10.352  -3.152  1.00  0.00     0.012 A 
ENDBRANCH   2  23
TORSDOF 3
ENDMDL
MODEL 7
REMARK VINA RESULT:      -7.0      3.291      5.864
REMARK  3 active torsions:
REMARK  status: ('A' for Active; 'I' for Inactive)
REMARK    1  A    between atoms: C_5  and  N_6 
REMARK       I    between atoms: N_6  and  C_7 
REMARK    2  A    between atoms: C_7  and  C_8 
REMARK    3  A    between atoms: C_9  and  C_10 
ROOT
HETATM    1  C   UNL     1      41.504 -13.041   4.657  1.00  0.00     0.062 C 
HETATM    2  C   UNL     1      42.413 -11.807   4.541  1.00  0.00     0.199 C 
HETATM    3  N   UNL     1      43.511 -11.894   5.497  1.00  0.00    -0.092 N 
HETATM    4  C   UNL     1      43.543 -12.751   6.560  1.00  0.00     0.735 A 
HETATM    5  N   UNL     1      42.523 -13.618   6.730  1.00  0.00    -0.191 N 
HETATM    6  N   UNL     1      44.639 -11.171   5.446  1.00  0.00     0.012 NA
HETATM    7  N   UNL     1      45.328 -11.558   6.516  1.00  0.00     0.033 NA
HETATM    8  N   UNL     1      44.656 -12.542   7.219  1.00  0.00     0.030 NA
HETATM    9  C   UNL     1      41.545 -13.833   5.761  1.00  0.00     0.037 C 
HETATM   10  C   UNL     1      40.574 -14.948   6.064  1.00  0.00     0.070 C 
HETATM   11  H   UNL     1      42.570 -14.275   7.507  1.00  0.00     0.184 HD
ENDROOT
BRANCH   1  12
HETATM   12  C   UNL     1      40.627 -13.247   3.462  1.00  0.00     0.256 C 
HETATM   13  N   UNL     1      41.311 -13.514   2.295  1.00  0.00    -0.323 N 
HETATM   14  H   UNL     1      42.319 -13.577   2.342  1.00  0.00     0.169 HD
HETATM   15  O   UNL     1      39.421 -13.079   3.572  1.00  0.00    -0.267 OA
BRANCH  13  16
HETATM   16  C   UNL     1      40.754 -13.749   1.018  1.00  0.00     0.035 A 
HETATM   17  C   UNL     1      40.107 -14.929   0.652  1.00  0.00     0.030 A 
HETATM   18  C   UNL     1      39.590 -15.087  -0.638  1.00  0.00     0.009 A 
HETATM   19  C   UNL     1      39.713 -14.069  -1.587  1.00  0.00    -0.062 A 
HETATM   20  C   UNL     1      39.196 -14.272  -2.980  1.00  0.00     0.048 C 
HETATM   21  C   UNL     1      40.370 -12.889  -1.227  1.00  0.00     0.009 A 
HETATM   22  C   UNL     1      40.873 -12.726   0.069  1.00  0.00     0.030 A 
ENDBRANCH  13  16
ENDBRANCH   1  12
BRANCH   2  23
HETATM   23  C   UNL     1      41.668 -10.497   4.748  1.00  0.00    -0.011 A 
HETATM   24  C   UNL     1      41.135 -10.135   5.987  1.00  0.00     0.125 A 
HETATM   25  N   UNL     1      40.439  -8.999   6.216  1.00  0.00    -0.272 NA
HETATM   26  C   UNL     1      40.257  -8.175   5.163  1.00  0.00     0.116 A 
HETATM   27  C   UNL     1      40.746  -8.431   3.894  1.00  0.00     0.020 A 
HETATM   28  C   UNL     1      41.462  -9.607   3.686  1.00  0.00     0.012 A 
ENDBRANCH   2  23
TORSDOF 3
ENDMDL
MODEL 8
REMARK VINA RESULT:      -7.0     16.518     17.888
REMARK  3 active torsions:
REMARK  status: ('A' for Active; 'I' for Inactive)
REMARK    1  A    between atoms: C_5  and  N_6 
REMARK       I    between atoms: N_6  and  C_7 
REMARK    2  A    between atoms: C_7  and  C_8 
REMARK    3  A    between atoms: C_9  and  C_10 
ROOT
HETATM    1  C   UNL     1      46.155 -29.804   0.281  1.00  0.00     0.062 C 
HETATM    2  C   UNL     1      46.758 -29.193  -0.993  1.00  0.00     0.199 C 
HETATM    3  N   UNL     1      45.723 -28.999  -2.003  1.00  0.00    -0.092 N 
HETATM    4  C   UNL     1      44.487 -29.581  -1.963  1.00  0.00     0.735 A 
HETATM    5  N   UNL     1      44.164 -30.352  -0.905  1.00  0.00    -0.191 N 
HETATM    6  N   UNL     1      45.833 -28.210  -3.081  1.00  0.00     0.012 NA
HETATM    7  N   UNL     1      44.677 -28.361  -3.721  1.00  0.00     0.033 NA
HETATM    8  N   UNL     1      43.829 -29.214  -3.034  1.00  0.00     0.030 NA
HETATM    9  C   UNL     1      44.940 -30.414   0.252  1.00  0.00     0.037 C 
HETATM   10  C   UNL     1      44.342 -31.209   1.386  1.00  0.00     0.070 C 
HETATM   11  H   UNL     1      43.230 -30.757  -0.867  1.00  0.00     0.184 HD
ENDROOT
BRANCH   1  12
HETATM   12  C   UNL     1      47.025 -29.643   1.487  1.00  0.00     0.256 C 
HETATM   13  N   UNL     1      47.915 -30.677   1.686  1.00  0.00    -0.323 N 
HETATM   14  H   UNL     1      47.930 -31.426   1.008  1.00  0.00     0.169 HD
HETATM   15  O   UNL     1      46.836 -28.696   2.237  1.00  0.00    -0.267 OA
BRANCH  13  16
HETATM   16  C   UNL     1      48.854 -30.800   2.736  1.00  0.00     0.035 A 
HETATM   17  C   UNL     1      48.568 -31.365   3.979  1.00  0.00     0.030 A 
HETATM   18  C   UNL     1      49.551 -31.440   4.970  1.00  0.00     0.009 A 
HETATM   19  C   UNL     1      50.839 -30.948   4.739  1.00  0.00    -0.062 A 
HETATM   20  C   UNL     1      51.868 -30.993   5.828  1.00  0.00     0.048 C 
HETATM   21  C   UNL     1      51.125 -30.372   3.499  1.00  0.00     0.009 A 
HETATM   22  C   UNL     1      50.146 -30.311   2.502  1.00  0.00     0.030 A 
ENDBRANCH  13  16
ENDBRANCH   1  12
BRANCH   2  23
HETATM   23  C   UNL     1      47.884 -30.030  -1.581  1.00  0.00    -0.011 A 
HETATM   24  C   UNL     1      47.650 -31.268  -2.182  1.00  0.00     0.125 A 
HETATM   25  N   UNL     1      48.617 -32.064  -2.691  1.00  0.00    -0.272 NA
HETATM   26  C   UNL     1      49.886 -31.613  -2.600  1.00  0.00     0.116 A 
HETATM   27  C   UNL     1      50.231 -30.400  -2.029  1.00  0.00     0.020 A 
HETATM   28  C   UNL     1      49.215 -29.599  -1.516  1.00  0.00     0.012 A 
ENDBRANCH   2  23
TORSDOF 3
ENDMDL
MODEL 9
REMARK VINA RESULT:      -6.9      7.501     10.463
REMARK  3 active torsions:
REMARK  status: ('A' for Active; 'I' for Inactive)
REMARK    1  A    between atoms: C_5  and  N_6 
REMARK       I    between atoms: N_6  and  C_7 
REMARK    2  A    between atoms: C_7  and  C_8 
REMARK    3  A    between atoms: C_9  and  C_10 
ROOT
HETATM    1  C   UNL     1      41.125  -8.806   9.525  1.00  0.00     0.062 C 
HETATM    2  C   UNL     1      42.243  -8.089   8.752  1.00  0.00     0.199 C 
HETATM    3  N   UNL     1      41.761  -7.659   7.443  1.00  0.00    -0.092 N 
HETATM    4  C   UNL     1      40.616  -8.118   6.854  1.00  0.00     0.735 A 
HETATM    5  N   UNL     1      39.840  -8.991   7.529  1.00  0.00    -0.191 N 
HETATM    6  N   UNL     1      42.354  -6.745   6.663  1.00  0.00     0.012 NA
HETATM    7  N   UNL     1      41.592  -6.694   5.575  1.00  0.00     0.033 NA
HETATM    8  N   UNL     1      40.505  -7.546   5.681  1.00  0.00     0.030 NA
HETATM    9  C   UNL     1      40.029  -9.284   8.878  1.00  0.00     0.037 C 
HETATM   10  C   UNL     1      38.972 -10.164   9.499  1.00  0.00     0.070 C 
HETATM   11  H   UNL     1      38.973  -9.303   7.095  1.00  0.00     0.184 HD
ENDROOT
BRANCH   1  12
HETATM   12  C   UNL     1      41.384  -8.896  10.995  1.00  0.00     0.256 C 
HETATM   13  N   UNL     1      41.221  -7.707  11.674  1.00  0.00    -0.323 N 
HETATM   14  H   UNL     1      40.922  -6.898  11.146  1.00  0.00     0.169 HD
HETATM   15  O   UNL     1      41.795  -9.948  11.466  1.00  0.00    -0.267 OA
BRANCH  13  16
HETATM   16  C   UNL     1      41.398  -7.487  13.059  1.00  0.00     0.035 A 
HETATM   17  C   UNL     1      40.354  -7.459  13.985  1.00  0.00     0.030 A 
HETATM   18  C   UNL     1      40.612  -7.226  15.340  1.00  0.00     0.009 A 
HETATM   19  C   UNL     1      41.916  -7.013  15.794  1.00  0.00    -0.062 A 
HETATM   20  C   UNL     1      42.170  -6.717  17.242  1.00  0.00     0.048 C 
HETATM   21  C   UNL     1      42.962  -7.031  14.867  1.00  0.00     0.009 A 
HETATM   22  C   UNL     1      42.705  -7.279  13.514  1.00  0.00     0.030 A 
ENDBRANCH  13  16
ENDBRANCH   1  12
BRANCH   2  23
HETATM   23  C   UNL     1      43.488  -8.944   8.573  1.00  0.00    -0.011 A 
HETATM   24  C   UNL     1      43.415 -10.310   8.295  1.00  0.00     0.125 A 
HETATM   25  N   UNL     1      44.489 -11.120   8.158  1.00  0.00    -0.272 NA
HETATM   26  C   UNL     1      45.703 -10.549   8.306  1.00  0.00     0.116 A 
HETATM   27  C   UNL     1      45.892  -9.205   8.577  1.00  0.00     0.020 A 
HETATM   28  C   UNL     1      44.768  -8.393   8.710  1.00  0.00     0.012 A 
ENDBRANCH   2  23
TORSDOF 3
ENDMDL
MODEL 10
REMARK VINA RESULT:      -6.8     15.827     17.338
REMARK  3 active torsions:
REMARK  status: ('A' for Active; 'I' for Inactive)
REMARK    1  A    between atoms: C_5  and  N_6 
REMARK       I    between atoms: N_6  and  C_7 
REMARK    2  A    between atoms: C_7  and  C_8 
REMARK    3  A    between atoms: C_9  and  C_10 
ROOT
HETATM    1  C   UNL     1      44.131 -30.944  -0.742  1.00  0.00     0.062 C 
HETATM    2  C   UNL     1      44.767 -29.545  -0.729  1.00  0.00     0.199 C 
HETATM    3  N   UNL     1      44.850 -29.011  -2.084  1.00  0.00    -0.092 N 
HETATM    4  C   UNL     1      44.710 -29.760  -3.218  1.00  0.00     0.735 A 
HETATM    5  N   UNL     1      44.429 -31.074  -3.101  1.00  0.00    -0.191 N 
HETATM    6  N   UNL     1      45.045 -27.722  -2.396  1.00  0.00     0.012 NA
HETATM    7  N   UNL     1      45.077 -27.705  -3.725  1.00  0.00     0.033 NA
HETATM    8  N   UNL     1      44.870 -28.969  -4.250  1.00  0.00     0.030 NA
HETATM    9  C   UNL     1      44.061 -31.664  -1.893  1.00  0.00     0.037 C 
HETATM   10  C   UNL     1      43.636 -33.108  -1.987  1.00  0.00     0.070 C 
HETATM   11  H   UNL     1      44.295 -31.618  -3.952  1.00  0.00     0.184 HD
ENDROOT
BRANCH   1  12
HETATM   12  C   UNL     1      43.622 -31.378   0.595  1.00  0.00     0.256 C 
HETATM   13  N   UNL     1      42.434 -30.786   0.970  1.00  0.00    -0.323 N 
HETATM   14  H   UNL     1      41.998 -30.147   0.319  1.00  0.00     0.169 HD
HETATM   15  O   UNL     1      44.307 -32.124   1.281  1.00  0.00    -0.267 OA
BRANCH  13  16
HETATM   16  C   UNL     1      41.720 -30.999   2.172  1.00  0.00     0.035 A 
HETATM   17  C   UNL     1      42.009 -30.356   3.376  1.00  0.00     0.030 A 
HETATM   18  C   UNL     1      41.260 -30.629   4.525  1.00  0.00     0.009 A 
HETATM   19  C   UNL     1      40.212 -31.552   4.493  1.00  0.00    -0.062 A 
HETATM   20  C   UNL     1      39.450 -31.870   5.745  1.00  0.00     0.048 C 
HETATM   21  C   UNL     1      39.927 -32.205   3.291  1.00  0.00     0.009 A 
HETATM   22  C   UNL     1      40.666 -31.920   2.138  1.00  0.00     0.030 A 
ENDBRANCH  13  16
ENDBRANCH   1  12
BRANCH   2  23
HETATM   23  C   UNL     1      46.150 -29.526  -0.095  1.00  0.00    -0.011 A 
HETATM   24  C   UNL     1      47.181 -30.355  -0.540  1.00  0.00     0.125 A 
HETATM   25  N   UNL     1      48.416 -30.399   0.007  1.00  0.00    -0.272 NA
HETATM   26  C   UNL     1      48.645 -29.580   1.055  1.00  0.00     0.116 A 
HETATM   27  C   UNL     1      47.699 -28.714   1.575  1.00  0.00     0.020 A 
HETATM   28  C   UNL     1      46.436 -28.687   0.990  1.00  0.00     0.012 A 
ENDBRANCH   2  23
TORSDOF 3
ENDMDL
