MODEL 1
REMARK VINA RESULT:      -8.4      0.000      0.000
REMARK  7 active torsions:
REMARK  status: ('A' for Active; 'I' for Inactive)
REMARK    1  A    between atoms: O_2  and  C_3 
REMARK    2  A    between atoms: C_6  and  C_7 
REMARK       I    between atoms: C_7  and  N_8 
REMARK    3  A    between atoms: N_8  and  C_9 
REMARK    4  A    between atoms: C_9  and  C_10 
REMARK    5  A    between atoms: C_10  and  N_11 
REMARK       I    between atoms: N_11  and  C_12 
REMARK    6  A    between atoms: C_12  and  C_13 
REMARK    7  A    between atoms: C_15  and  C_16 
ROOT
HETATM    1  N   UNL     1      41.410 -14.121   3.205  1.00  0.00    -0.355 N 
HETATM    2  C   UNL     1      41.452 -14.594   4.498  1.00  0.00     0.251 C 
HETATM    3  O   UNL     1      40.698 -14.197   5.381  1.00  0.00    -0.268 OA
HETATM    4  H   UNL     1      42.174 -14.315   2.571  1.00  0.00     0.162 HD
ENDROOT
BRANCH   1   5
HETATM    5  C   UNL     1      40.469 -13.086   2.810  1.00  0.00     0.142 C 
BRANCH   5   6
HETATM    6  C   UNL     1      41.045 -11.674   2.969  1.00  0.00     0.142 C 
BRANCH   6   7
HETATM    7  N   UNL     1      41.718 -11.478   4.239  1.00  0.00    -0.355 N 
HETATM    8  C   UNL     1      43.079 -11.259   4.300  1.00  0.00     0.251 C 
HETATM    9  O   UNL     1      43.787 -11.191   3.301  1.00  0.00    -0.268 OA
HETATM   10  H   UNL     1      41.143 -11.325   5.055  1.00  0.00     0.162 HD
BRANCH   8  11
HETATM   11  C   UNL     1      43.670 -11.073   5.655  1.00  0.00     0.032 A 
HETATM   12  C   UNL     1      42.929 -10.576   6.735  1.00  0.00     0.020 A 
HETATM   13  C   UNL     1      43.520 -10.443   7.999  1.00  0.00     0.038 A 
HETATM   14  C   UNL     1      44.850 -10.814   8.197  1.00  0.00     0.068 A 
HETATM   15  C   UNL     1      45.586 -11.316   7.120  1.00  0.00     0.038 A 
HETATM   16  C   UNL     1      45.002 -11.451   5.859  1.00  0.00     0.020 A 
BRANCH  14  17
HETATM   17  O   UNL     1      45.539 -10.743   9.376  1.00  0.00    -0.356 OA
HETATM   18  C   UNL     1      45.198  -9.682  10.258  1.00  0.00     0.210 C 
ENDBRANCH  14  17
ENDBRANCH   8  11
ENDBRANCH   6   7
ENDBRANCH   5   6
ENDBRANCH   1   5
BRANCH   2  19
HETATM   19  C   UNL     1      42.506 -15.601   4.806  1.00  0.00     0.032 A 
HETATM   20  C   UNL     1      42.566 -16.760   4.018  1.00  0.00     0.029 A 
HETATM   21  C   UNL     1      43.538 -17.742   4.260  1.00  0.00    -0.023 A 
HETATM   22  C   UNL     1      44.450 -17.543   5.304  1.00  0.00     0.012 A 
HETATM   23  C   UNL     1      44.407 -16.383   6.081  1.00  0.00     0.002 A 
HETATM   24  C   UNL     1      43.439 -15.409   5.831  1.00  0.00     0.017 A 
BRANCH  21  25
HETATM   25  C   UNL     1      43.606 -18.952   3.454  1.00  0.00    -0.002 A 
HETATM   26  C   UNL     1      44.011 -20.186   3.924  1.00  0.00     0.153 A 
HETATM   27  O   UNL     1      43.956 -21.121   2.941  1.00  0.00    -0.334 OA
HETATM   28  C   UNL     1      43.508 -20.493   1.826  1.00  0.00     0.142 A 
HETATM   29  C   UNL     1      43.273 -19.163   2.085  1.00  0.00     0.038 A 
ENDBRANCH  21  25
ENDBRANCH   2  19
TORSDOF 7
ENDMDL
MODEL 2
REMARK VINA RESULT:      -8.4      2.625      4.113
REMARK  7 active torsions:
REMARK  status: ('A' for Active; 'I' for Inactive)
REMARK    1  A    between atoms: O_2  and  C_3 
REMARK    2  A    between atoms: C_6  and  C_7 
REMARK       I    between atoms: C_7  and  N_8 
REMARK    3  A    between atoms: N_8  and  C_9 
REMARK    4  A    between atoms: C_9  and  C_10 
REMARK    5  A    between atoms: C_10  and  N_11 
REMARK       I    between atoms: N_11  and  C_12 
REMARK    6  A    between atoms: C_12  and  C_13 
REMARK    7  A    between atoms: C_15  and  C_16 
ROOT
HETATM    1  N   UNL     1      43.680 -13.741   5.923  1.00  0.00    -0.355 N 
HETATM    2  C   UNL     1      42.696 -14.615   5.513  1.00  0.00     0.251 C 
HETATM    3  O   UNL     1      41.688 -14.844   6.172  1.00  0.00    -0.268 OA
HETATM    4  H   UNL     1      44.580 -13.742   5.460  1.00  0.00     0.162 HD
ENDROOT
BRANCH   1   5
HETATM    5  C   UNL     1      43.590 -13.047   7.196  1.00  0.00     0.142 C 
BRANCH   5   6
HETATM    6  C   UNL     1      43.711 -11.526   7.048  1.00  0.00     0.142 C 
BRANCH   6   7
HETATM    7  N   UNL     1      43.326 -10.809   8.249  1.00  0.00    -0.355 N 
HETATM    8  C   UNL     1      44.240 -10.550   9.250  1.00  0.00     0.251 C 
HETATM    9  O   UNL     1      45.419 -10.879   9.176  1.00  0.00    -0.268 OA
HETATM   10  H   UNL     1      42.426 -10.351   8.253  1.00  0.00     0.162 HD
BRANCH   8  11
HETATM   11  C   UNL     1      43.739  -9.810  10.442  1.00  0.00     0.032 A 
HETATM   12  C   UNL     1      43.556  -8.421  10.441  1.00  0.00     0.020 A 
HETATM   13  C   UNL     1      43.057  -7.770  11.577  1.00  0.00     0.038 A 
HETATM   14  C   UNL     1      42.728  -8.502  12.719  1.00  0.00     0.068 A 
HETATM   15  C   UNL     1      42.905  -9.888  12.717  1.00  0.00     0.038 A 
HETATM   16  C   UNL     1      43.401 -10.541  11.587  1.00  0.00     0.020 A 
BRANCH  14  17
HETATM   17  O   UNL     1      42.227  -7.992  13.885  1.00  0.00    -0.356 OA
HETATM   18  C   UNL     1      41.191  -8.732  14.519  1.00  0.00     0.210 C 
ENDBRANCH  14  17
ENDBRANCH   8  11
ENDBRANCH   6   7
ENDBRANCH   5   6
ENDBRANCH   1   5
BRANCH   2  19
HETATM   19  C   UNL     1      42.930 -15.327   4.225  1.00  0.00     0.032 A 
HETATM   20  C   UNL     1      43.120 -16.716   4.260  1.00  0.00     0.029 A 
HETATM   21  C   UNL     1      43.341 -17.439   3.079  1.00  0.00    -0.023 A 
HETATM   22  C   UNL     1      43.368 -16.748   1.861  1.00  0.00     0.012 A 
HETATM   23  C   UNL     1      43.161 -15.366   1.818  1.00  0.00     0.002 A 
HETATM   24  C   UNL     1      42.938 -14.655   2.997  1.00  0.00     0.017 A 
BRANCH  21  25
HETATM   25  C   UNL     1      43.547 -18.880   3.103  1.00  0.00    -0.002 A 
HETATM   26  C   UNL     1      43.316 -19.723   2.033  1.00  0.00     0.153 A 
HETATM   27  O   UNL     1      43.612 -21.008   2.356  1.00  0.00    -0.334 OA
HETATM   28  C   UNL     1      44.043 -21.001   3.642  1.00  0.00     0.142 A 
HETATM   29  C   UNL     1      44.028 -19.722   4.146  1.00  0.00     0.038 A 
ENDBRANCH  21  25
ENDBRANCH   2  19
TORSDOF 7
ENDMDL
MODEL 3
REMARK VINA RESULT:      -8.2      3.280      6.214
REMARK  7 active torsions:
REMARK  status: ('A' for Active; 'I' for Inactive)
REMARK    1  A    between atoms: O_2  and  C_3 
REMARK    2  A    between atoms: C_6  and  C_7 
REMARK       I    between atoms: C_7  and  N_8 
REMARK    3  A    between atoms: N_8  and  C_9 
REMARK    4  A    between atoms: C_9  and  C_10 
REMARK    5  A    between atoms: C_10  and  N_11 
REMARK       I    between atoms: N_11  and  C_12 
REMARK    6  A    between atoms: C_12  and  C_13 
REMARK    7  A    between atoms: C_15  and  C_16 
ROOT
HETATM    1  N   UNL     1      40.818 -14.527   5.010  1.00  0.00    -0.355 N 
HETATM    2  C   UNL     1      42.178 -14.535   4.789  1.00  0.00     0.251 C 
HETATM    3  O   UNL     1      42.956 -13.790   5.377  1.00  0.00    -0.268 OA
HETATM    4  H   UNL     1      40.199 -14.999   4.364  1.00  0.00     0.162 HD
ENDROOT
BRANCH   1   5
HETATM    5  C   UNL     1      40.212 -13.600   5.951  1.00  0.00     0.142 C 
BRANCH   5   6
HETATM    6  C   UNL     1      39.389 -12.509   5.256  1.00  0.00     0.142 C 
BRANCH   6   7
HETATM    7  N   UNL     1      39.140 -12.794   3.856  1.00  0.00    -0.355 N 
HETATM    8  C   UNL     1      39.760 -12.072   2.858  1.00  0.00     0.251 C 
HETATM    9  O   UNL     1      40.567 -11.177   3.088  1.00  0.00    -0.268 OA
HETATM   10  H   UNL     1      38.645 -13.646   3.633  1.00  0.00     0.162 HD
BRANCH   8  11
HETATM   11  C   UNL     1      39.430 -12.445   1.453  1.00  0.00     0.032 A 
HETATM   12  C   UNL     1      38.592 -11.665   0.647  1.00  0.00     0.020 A 
HETATM   13  C   UNL     1      38.331 -12.040  -0.677  1.00  0.00     0.038 A 
HETATM   14  C   UNL     1      38.912 -13.192  -1.210  1.00  0.00     0.068 A 
HETATM   15  C   UNL     1      39.753 -13.966  -0.406  1.00  0.00     0.038 A 
HETATM   16  C   UNL     1      40.018 -13.595   0.914  1.00  0.00     0.020 A 
BRANCH  14  17
HETATM   17  O   UNL     1      38.747 -13.662  -2.483  1.00  0.00    -0.356 OA
HETATM   18  C   UNL     1      38.763 -15.074  -2.656  1.00  0.00     0.210 C 
ENDBRANCH  14  17
ENDBRANCH   8  11
ENDBRANCH   6   7
ENDBRANCH   5   6
ENDBRANCH   1   5
BRANCH   2  19
HETATM   19  C   UNL     1      42.680 -15.476   3.749  1.00  0.00     0.032 A 
HETATM   20  C   UNL     1      42.937 -16.803   4.125  1.00  0.00     0.029 A 
HETATM   21  C   UNL     1      43.408 -17.735   3.188  1.00  0.00    -0.023 A 
HETATM   22  C   UNL     1      43.617 -17.315   1.868  1.00  0.00     0.012 A 
HETATM   23  C   UNL     1      43.346 -15.999   1.484  1.00  0.00     0.002 A 
HETATM   24  C   UNL     1      42.874 -15.080   2.421  1.00  0.00     0.017 A 
BRANCH  21  25
HETATM   25  C   UNL     1      43.685 -19.113   3.566  1.00  0.00    -0.002 A 
HETATM   26  C   UNL     1      43.630 -20.189   2.703  1.00  0.00     0.153 A 
HETATM   27  O   UNL     1      43.952 -21.342   3.344  1.00  0.00    -0.334 OA
HETATM   28  C   UNL     1      44.224 -21.013   4.632  1.00  0.00     0.142 A 
HETATM   29  C   UNL     1      44.079 -19.658   4.821  1.00  0.00     0.038 A 
ENDBRANCH  21  25
ENDBRANCH   2  19
TORSDOF 7
ENDMDL
MODEL 4
REMARK VINA RESULT:      -8.0      1.807      8.647
REMARK  7 active torsions:
REMARK  status: ('A' for Active; 'I' for Inactive)
REMARK    1  A    between atoms: O_2  and  C_3 
REMARK    2  A    between atoms: C_6  and  C_7 
REMARK       I    between atoms: C_7  and  N_8 
REMARK    3  A    between atoms: N_8  and  C_9 
REMARK    4  A    between atoms: C_9  and  C_10 
REMARK    5  A    between atoms: C_10  and  N_11 
REMARK       I    between atoms: N_11  and  C_12 
REMARK    6  A    between atoms: C_12  and  C_13 
REMARK    7  A    between atoms: C_15  and  C_16 
ROOT
HETATM    1  N   UNL     1      41.718 -11.650   6.438  1.00  0.00    -0.355 N 
HETATM    2  C   UNL     1      43.018 -11.451   6.027  1.00  0.00     0.251 C 
HETATM    3  O   UNL     1      43.399 -11.670   4.882  1.00  0.00    -0.268 OA
HETATM    4  H   UNL     1      41.497 -11.661   7.425  1.00  0.00     0.162 HD
ENDROOT
BRANCH   1   5
HETATM    5  C   UNL     1      40.710 -12.166   5.527  1.00  0.00     0.142 C 
BRANCH   5   6
HETATM    6  C   UNL     1      40.213 -13.560   5.927  1.00  0.00     0.142 C 
BRANCH   6   7
HETATM    7  N   UNL     1      40.912 -14.628   5.237  1.00  0.00    -0.355 N 
HETATM    8  C   UNL     1      42.075 -15.166   5.747  1.00  0.00     0.251 C 
HETATM    9  O   UNL     1      42.568 -14.800   6.809  1.00  0.00    -0.268 OA
HETATM   10  H   UNL     1      40.431 -15.088   4.476  1.00  0.00     0.162 HD
BRANCH   8  11
HETATM   11  C   UNL     1      42.714 -16.257   4.958  1.00  0.00     0.032 A 
HETATM   12  C   UNL     1      43.748 -17.048   5.473  1.00  0.00     0.020 A 
HETATM   13  C   UNL     1      44.302 -18.081   4.703  1.00  0.00     0.038 A 
HETATM   14  C   UNL     1      43.821 -18.336   3.418  1.00  0.00     0.068 A 
HETATM   15  C   UNL     1      42.786 -17.549   2.908  1.00  0.00     0.038 A 
HETATM   16  C   UNL     1      42.229 -16.520   3.672  1.00  0.00     0.020 A 
BRANCH  14  17
HETATM   17  O   UNL     1      44.266 -19.313   2.572  1.00  0.00    -0.356 OA
HETATM   18  C   UNL     1      43.292 -20.215   2.060  1.00  0.00     0.210 C 
ENDBRANCH  14  17
ENDBRANCH   8  11
ENDBRANCH   6   7
ENDBRANCH   5   6
ENDBRANCH   1   5
BRANCH   2  19
HETATM   19  C   UNL     1      43.983 -10.989   7.065  1.00  0.00     0.032 A 
HETATM   20  C   UNL     1      43.476 -10.598   8.313  1.00  0.00     0.029 A 
HETATM   21  C   UNL     1      44.336 -10.157   9.329  1.00  0.00    -0.023 A 
HETATM   22  C   UNL     1      45.713 -10.115   9.074  1.00  0.00     0.012 A 
HETATM   23  C   UNL     1      46.225 -10.520   7.839  1.00  0.00     0.002 A 
HETATM   24  C   UNL     1      45.363 -10.961   6.835  1.00  0.00     0.017 A 
BRANCH  21  25
HETATM   25  C   UNL     1      43.823  -9.742  10.626  1.00  0.00    -0.002 A 
HETATM   26  C   UNL     1      43.450 -10.608  11.636  1.00  0.00     0.153 A 
HETATM   27  O   UNL     1      43.025  -9.924  12.729  1.00  0.00    -0.334 OA
HETATM   28  C   UNL     1      43.127  -8.604  12.431  1.00  0.00     0.142 A 
HETATM   29  C   UNL     1      43.615  -8.437  11.157  1.00  0.00     0.038 A 
ENDBRANCH  21  25
ENDBRANCH   2  19
TORSDOF 7
ENDMDL
MODEL 5
REMARK VINA RESULT:      -8.0      3.186      6.397
REMARK  7 active torsions:
REMARK  status: ('A' for Active; 'I' for Inactive)
REMARK    1  A    between atoms: O_2  and  C_3 
REMARK    2  A    between atoms: C_6  and  C_7 
REMARK       I    between atoms: C_7  and  N_8 
REMARK    3  A    between atoms: N_8  and  C_9 
REMARK    4  A    between atoms: C_9  and  C_10 
REMARK    5  A    between atoms: C_10  and  N_11 
REMARK       I    between atoms: N_11  and  C_12 
REMARK    6  A    between atoms: C_12  and  C_13 
REMARK    7  A    between atoms: C_15  and  C_16 
ROOT
HETATM    1  N   UNL     1      42.637 -12.914   4.617  1.00  0.00    -0.355 N 
HETATM    2  C   UNL     1      42.176 -14.151   4.222  1.00  0.00     0.251 C 
HETATM    3  O   UNL     1      41.165 -14.303   3.545  1.00  0.00    -0.268 OA
HETATM    4  H   UNL     1      43.342 -12.845   5.339  1.00  0.00     0.162 HD
ENDROOT
BRANCH   1   5
HETATM    5  C   UNL     1      41.924 -11.697   4.269  1.00  0.00     0.142 C 
BRANCH   5   6
HETATM    6  C   UNL     1      42.425 -11.072   2.962  1.00  0.00     0.142 C 
BRANCH   6   7
HETATM    7  N   UNL     1      41.992 -11.803   1.785  1.00  0.00    -0.355 N 
HETATM    8  C   UNL     1      40.782 -11.531   1.181  1.00  0.00     0.251 C 
HETATM    9  O   UNL     1      40.022 -10.654   1.578  1.00  0.00    -0.268 OA
HETATM   10  H   UNL     1      42.674 -12.382   1.317  1.00  0.00     0.162 HD
BRANCH   8  11
HETATM   11  C   UNL     1      40.433 -12.342  -0.020  1.00  0.00     0.032 A 
HETATM   12  C   UNL     1      39.945 -13.651   0.075  1.00  0.00     0.020 A 
HETATM   13  C   UNL     1      39.605 -14.367  -1.081  1.00  0.00     0.038 A 
HETATM   14  C   UNL     1      39.740 -13.778  -2.338  1.00  0.00     0.068 A 
HETATM   15  C   UNL     1      40.221 -12.470  -2.431  1.00  0.00     0.038 A 
HETATM   16  C   UNL     1      40.560 -11.752  -1.282  1.00  0.00     0.020 A 
BRANCH  14  17
HETATM   17  O   UNL     1      39.436 -14.361  -3.537  1.00  0.00    -0.356 OA
HETATM   18  C   UNL     1      38.076 -14.711  -3.757  1.00  0.00     0.210 C 
ENDBRANCH  14  17
ENDBRANCH   8  11
ENDBRANCH   6   7
ENDBRANCH   5   6
ENDBRANCH   1   5
BRANCH   2  19
HETATM   19  C   UNL     1      42.947 -15.334   4.698  1.00  0.00     0.032 A 
HETATM   20  C   UNL     1      42.922 -16.499   3.918  1.00  0.00     0.029 A 
HETATM   21  C   UNL     1      43.630 -17.643   4.315  1.00  0.00    -0.023 A 
HETATM   22  C   UNL     1      44.366 -17.599   5.506  1.00  0.00     0.012 A 
HETATM   23  C   UNL     1      44.410 -16.435   6.278  1.00  0.00     0.002 A 
HETATM   24  C   UNL     1      43.705 -15.301   5.874  1.00  0.00     0.017 A 
BRANCH  21  25
HETATM   25  C   UNL     1      43.606 -18.861   3.519  1.00  0.00    -0.002 A 
HETATM   26  C   UNL     1      44.003 -20.103   3.973  1.00  0.00     0.153 A 
HETATM   27  O   UNL     1      43.853 -21.044   3.005  1.00  0.00    -0.334 OA
HETATM   28  C   UNL     1      43.350 -20.411   1.916  1.00  0.00     0.142 A 
HETATM   29  C   UNL     1      43.175 -19.072   2.178  1.00  0.00     0.038 A 
ENDBRANCH  21  25
ENDBRANCH   2  19
TORSDOF 7
ENDMDL
MODEL 6
REMARK VINA RESULT:      -8.0      2.903     10.142
REMARK  7 active torsions:
REMARK  status: ('A' for Active; 'I' for Inactive)
REMARK    1  A    between atoms: O_2  and  C_3 
REMARK    2  A    between atoms: C_6  and  C_7 
REMARK       I    between atoms: C_7  and  N_8 
REMARK    3  A    between atoms: N_8  and  C_9 
REMARK    4  A    between atoms: C_9  and  C_10 
REMARK    5  A    between atoms: C_10  and  N_11 
REMARK       I    between atoms: N_11  and  C_12 
REMARK    6  A    between atoms: C_12  and  C_13 
REMARK    7  A    between atoms: C_15  and  C_16 
ROOT
HETATM    1  N   UNL     1      43.559 -11.170   7.638  1.00  0.00    -0.355 N 
HETATM    2  C   UNL     1      44.389 -10.597   8.578  1.00  0.00     0.251 C 
HETATM    3  O   UNL     1      45.462 -11.089   8.912  1.00  0.00    -0.268 OA
HETATM    4  H   UNL     1      42.604 -10.853   7.548  1.00  0.00     0.162 HD
ENDROOT
BRANCH   1   5
HETATM    5  C   UNL     1      43.904 -12.427   6.995  1.00  0.00     0.142 C 
BRANCH   5   6
HETATM    6  C   UNL     1      42.707 -13.077   6.292  1.00  0.00     0.142 C 
BRANCH   6   7
HETATM    7  N   UNL     1      42.969 -14.441   5.873  1.00  0.00    -0.355 N 
HETATM    8  C   UNL     1      43.087 -14.768   4.538  1.00  0.00     0.251 C 
HETATM    9  O   UNL     1      43.005 -13.937   3.640  1.00  0.00    -0.268 OA
HETATM   10  H   UNL     1      43.242 -15.105   6.584  1.00  0.00     0.162 HD
BRANCH   8  11
HETATM   11  C   UNL     1      43.354 -16.199   4.217  1.00  0.00     0.032 A 
HETATM   12  C   UNL     1      43.966 -17.070   5.127  1.00  0.00     0.020 A 
HETATM   13  C   UNL     1      44.173 -18.415   4.792  1.00  0.00     0.038 A 
HETATM   14  C   UNL     1      43.762 -18.902   3.550  1.00  0.00     0.068 A 
HETATM   15  C   UNL     1      43.147 -18.033   2.646  1.00  0.00     0.038 A 
HETATM   16  C   UNL     1      42.937 -16.692   2.976  1.00  0.00     0.020 A 
BRANCH  14  17
HETATM   17  O   UNL     1      43.897 -20.188   3.106  1.00  0.00    -0.356 OA
HETATM   18  C   UNL     1      43.642 -20.422   1.726  1.00  0.00     0.210 C 
ENDBRANCH  14  17
ENDBRANCH   8  11
ENDBRANCH   6   7
ENDBRANCH   5   6
ENDBRANCH   1   5
BRANCH   2  19
HETATM   19  C   UNL     1      43.900  -9.347   9.226  1.00  0.00     0.032 A 
HETATM   20  C   UNL     1      43.542  -9.400  10.581  1.00  0.00     0.029 A 
HETATM   21  C   UNL     1      43.078  -8.254  11.244  1.00  0.00    -0.023 A 
HETATM   22  C   UNL     1      42.979  -7.055  10.527  1.00  0.00     0.012 A 
HETATM   23  C   UNL     1      43.350  -6.993   9.181  1.00  0.00     0.002 A 
HETATM   24  C   UNL     1      43.815  -8.136   8.530  1.00  0.00     0.017 A 
BRANCH  21  25
HETATM   25  C   UNL     1      42.697  -8.296  12.648  1.00  0.00    -0.002 A 
HETATM   26  C   UNL     1      43.148  -7.414  13.610  1.00  0.00     0.153 A 
HETATM   27  O   UNL     1      42.607  -7.700  14.822  1.00  0.00    -0.334 OA
HETATM   28  C   UNL     1      41.794  -8.772  14.647  1.00  0.00     0.142 A 
HETATM   29  C   UNL     1      41.809  -9.175  13.332  1.00  0.00     0.038 A 
ENDBRANCH  21  25
ENDBRANCH   2  19
TORSDOF 7
ENDMDL
MODEL 7
REMARK VINA RESULT:      -7.9      3.055      7.415
REMARK  7 active torsions:
REMARK  status: ('A' for Active; 'I' for Inactive)
REMARK    1  A    between atoms: O_2  and  C_3 
REMARK    2  A    between atoms: C_6  and  C_7 
REMARK       I    between atoms: C_7  and  N_8 
REMARK    3  A    between atoms: N_8  and  C_9 
REMARK    4  A    between atoms: C_9  and  C_10 
REMARK    5  A    between atoms: C_10  and  N_11 
REMARK       I    between atoms: N_11  and  C_12 
REMARK    6  A    between atoms: C_12  and  C_13 
REMARK    7  A    between atoms: C_15  and  C_16 
ROOT
HETATM    1  N   UNL     1      41.331 -13.419   4.752  1.00  0.00    -0.355 N 
HETATM    2  C   UNL     1      41.899 -13.335   3.499  1.00  0.00     0.251 C 
HETATM    3  O   UNL     1      42.931 -12.710   3.273  1.00  0.00    -0.268 OA
HETATM    4  H   UNL     1      40.384 -13.760   4.854  1.00  0.00     0.162 HD
ENDROOT
BRANCH   1   5
HETATM    5  C   UNL     1      41.917 -12.738   5.893  1.00  0.00     0.142 C 
BRANCH   5   6
HETATM    6  C   UNL     1      43.063 -13.534   6.530  1.00  0.00     0.142 C 
BRANCH   6   7
HETATM    7  N   UNL     1      43.369 -14.756   5.811  1.00  0.00    -0.355 N 
HETATM    8  C   UNL     1      42.931 -15.982   6.269  1.00  0.00     0.251 C 
HETATM    9  O   UNL     1      42.247 -16.109   7.279  1.00  0.00    -0.268 OA
HETATM   10  H   UNL     1      43.750 -14.670   4.880  1.00  0.00     0.162 HD
BRANCH   8  11
HETATM   11  C   UNL     1      43.304 -17.175   5.458  1.00  0.00     0.032 A 
HETATM   12  C   UNL     1      43.598 -18.415   6.039  1.00  0.00     0.020 A 
HETATM   13  C   UNL     1      43.918 -19.517   5.235  1.00  0.00     0.038 A 
HETATM   14  C   UNL     1      43.937 -19.392   3.845  1.00  0.00     0.068 A 
HETATM   15  C   UNL     1      43.638 -18.156   3.267  1.00  0.00     0.038 A 
HETATM   16  C   UNL     1      43.317 -17.055   4.064  1.00  0.00     0.020 A 
BRANCH  14  17
HETATM   17  O   UNL     1      44.224 -20.386   2.951  1.00  0.00    -0.356 OA
HETATM   18  C   UNL     1      43.418 -20.452   1.781  1.00  0.00     0.210 C 
ENDBRANCH  14  17
ENDBRANCH   8  11
ENDBRANCH   6   7
ENDBRANCH   5   6
ENDBRANCH   1   5
BRANCH   2  19
HETATM   19  C   UNL     1      41.172 -14.012   2.389  1.00  0.00     0.032 A 
HETATM   20  C   UNL     1      41.179 -13.404   1.124  1.00  0.00     0.029 A 
HETATM   21  C   UNL     1      40.513 -13.996   0.041  1.00  0.00    -0.023 A 
HETATM   22  C   UNL     1      39.841 -15.208   0.245  1.00  0.00     0.012 A 
HETATM   23  C   UNL     1      39.845 -15.827   1.498  1.00  0.00     0.002 A 
HETATM   24  C   UNL     1      40.513 -15.233   2.569  1.00  0.00     0.017 A 
BRANCH  21  25
HETATM   25  C   UNL     1      40.508 -13.373  -1.274  1.00  0.00    -0.002 A 
HETATM   26  C   UNL     1      40.037 -13.974  -2.425  1.00  0.00     0.153 A 
HETATM   27  O   UNL     1      40.151 -13.139  -3.490  1.00  0.00    -0.334 OA
HETATM   28  C   UNL     1      40.695 -11.985  -3.028  1.00  0.00     0.142 A 
HETATM   29  C   UNL     1      40.929 -12.073  -1.676  1.00  0.00     0.038 A 
ENDBRANCH  21  25
ENDBRANCH   2  19
TORSDOF 7
ENDMDL
MODEL 8
REMARK VINA RESULT:      -7.7      2.285      3.749
REMARK  7 active torsions:
REMARK  status: ('A' for Active; 'I' for Inactive)
REMARK    1  A    between atoms: O_2  and  C_3 
REMARK    2  A    between atoms: C_6  and  C_7 
REMARK       I    between atoms: C_7  and  N_8 
REMARK    3  A    between atoms: N_8  and  C_9 
REMARK    4  A    between atoms: C_9  and  C_10 
REMARK    5  A    between atoms: C_10  and  N_11 
REMARK       I    between atoms: N_11  and  C_12 
REMARK    6  A    between atoms: C_12  and  C_13 
REMARK    7  A    between atoms: C_15  and  C_16 
ROOT
HETATM    1  N   UNL     1      41.484 -14.646   0.731  1.00  0.00    -0.355 N 
HETATM    2  C   UNL     1      40.975 -15.678   1.490  1.00  0.00     0.251 C 
HETATM    3  O   UNL     1      39.784 -15.971   1.507  1.00  0.00    -0.268 OA
HETATM    4  H   UNL     1      42.421 -14.307   0.905  1.00  0.00     0.162 HD
ENDROOT
BRANCH   1   5
HETATM    5  C   UNL     1      40.619 -13.815  -0.089  1.00  0.00     0.142 C 
BRANCH   5   6
HETATM    6  C   UNL     1      40.416 -12.414   0.501  1.00  0.00     0.142 C 
BRANCH   6   7
HETATM    7  N   UNL     1      41.032 -12.255   1.805  1.00  0.00    -0.355 N 
HETATM    8  C   UNL     1      41.900 -11.215   2.063  1.00  0.00     0.251 C 
HETATM    9  O   UNL     1      42.179 -10.359   1.230  1.00  0.00    -0.268 OA
HETATM   10  H   UNL     1      40.671 -12.815   2.564  1.00  0.00     0.162 HD
BRANCH   8  11
HETATM   11  C   UNL     1      42.478 -11.147   3.435  1.00  0.00     0.032 A 
HETATM   12  C   UNL     1      43.664 -11.806   3.782  1.00  0.00     0.020 A 
HETATM   13  C   UNL     1      44.186 -11.692   5.078  1.00  0.00     0.038 A 
HETATM   14  C   UNL     1      43.533 -10.911   6.033  1.00  0.00     0.068 A 
HETATM   15  C   UNL     1      42.354 -10.249   5.683  1.00  0.00     0.038 A 
HETATM   16  C   UNL     1      41.830 -10.359   4.393  1.00  0.00     0.020 A 
BRANCH  14  17
HETATM   17  O   UNL     1      43.940 -10.711   7.323  1.00  0.00    -0.356 OA
HETATM   18  C   UNL     1      45.329 -10.857   7.590  1.00  0.00     0.210 C 
ENDBRANCH  14  17
ENDBRANCH   8  11
ENDBRANCH   6   7
ENDBRANCH   5   6
ENDBRANCH   1   5
BRANCH   2  19
HETATM   19  C   UNL     1      41.943 -16.416   2.349  1.00  0.00     0.032 A 
HETATM   20  C   UNL     1      42.058 -16.037   3.694  1.00  0.00     0.029 A 
HETATM   21  C   UNL     1      42.952 -16.697   4.551  1.00  0.00    -0.023 A 
HETATM   22  C   UNL     1      43.727 -17.744   4.037  1.00  0.00     0.012 A 
HETATM   23  C   UNL     1      43.604 -18.138   2.702  1.00  0.00     0.002 A 
HETATM   24  C   UNL     1      42.710 -17.478   1.858  1.00  0.00     0.017 A 
BRANCH  21  25
HETATM   25  C   UNL     1      43.085 -16.309   5.947  1.00  0.00    -0.002 A 
HETATM   26  C   UNL     1      43.597 -17.121   6.941  1.00  0.00     0.153 A 
HETATM   27  O   UNL     1      43.606 -16.476   8.136  1.00  0.00    -0.334 OA
HETATM   28  C   UNL     1      43.104 -15.235   7.918  1.00  0.00     0.142 A 
HETATM   29  C   UNL     1      42.773 -15.079   6.592  1.00  0.00     0.038 A 
ENDBRANCH  21  25
ENDBRANCH   2  19
TORSDOF 7
ENDMDL
MODEL 9
REMARK VINA RESULT:      -7.4      2.379      5.243
REMARK  7 active torsions:
REMARK  status: ('A' for Active; 'I' for Inactive)
REMARK    1  A    between atoms: O_2  and  C_3 
REMARK    2  A    between atoms: C_6  and  C_7 
REMARK       I    between atoms: C_7  and  N_8 
REMARK    3  A    between atoms: N_8  and  C_9 
REMARK    4  A    between atoms: C_9  and  C_10 
REMARK    5  A    between atoms: C_10  and  N_11 
REMARK       I    between atoms: N_11  and  C_12 
REMARK    6  A    between atoms: C_12  and  C_13 
REMARK    7  A    between atoms: C_15  and  C_16 
ROOT
HETATM    1  N   UNL     1      43.558 -13.422   5.588  1.00  0.00    -0.355 N 
HETATM    2  C   UNL     1      42.703 -14.481   5.371  1.00  0.00     0.251 C 
HETATM    3  O   UNL     1      41.818 -14.800   6.158  1.00  0.00    -0.268 OA
HETATM    4  H   UNL     1      44.394 -13.325   5.028  1.00  0.00     0.162 HD
ENDROOT
BRANCH   1   5
HETATM    5  C   UNL     1      43.475 -12.623   6.799  1.00  0.00     0.142 C 
BRANCH   5   6
HETATM    6  C   UNL     1      42.835 -11.251   6.558  1.00  0.00     0.142 C 
BRANCH   6   7
HETATM    7  N   UNL     1      41.939 -11.239   5.417  1.00  0.00    -0.355 N 
HETATM    8  C   UNL     1      40.581 -11.422   5.573  1.00  0.00     0.251 C 
HETATM    9  O   UNL     1      40.052 -11.578   6.668  1.00  0.00    -0.268 OA
HETATM   10  H   UNL     1      42.309 -10.914   4.535  1.00  0.00     0.162 HD
BRANCH   8  11
HETATM   11  C   UNL     1      39.752 -11.394   4.335  1.00  0.00     0.032 A 
HETATM   12  C   UNL     1      39.127 -10.228   3.877  1.00  0.00     0.020 A 
HETATM   13  C   UNL     1      38.378 -10.243   2.692  1.00  0.00     0.038 A 
HETATM   14  C   UNL     1      38.257 -11.419   1.951  1.00  0.00     0.068 A 
HETATM   15  C   UNL     1      38.886 -12.581   2.407  1.00  0.00     0.038 A 
HETATM   16  C   UNL     1      39.634 -12.571   3.586  1.00  0.00     0.020 A 
BRANCH  14  17
HETATM   17  O   UNL     1      37.566 -11.565   0.780  1.00  0.00    -0.356 OA
HETATM   18  C   UNL     1      36.785 -10.457   0.351  1.00  0.00     0.210 C 
ENDBRANCH  14  17
ENDBRANCH   8  11
ENDBRANCH   6   7
ENDBRANCH   5   6
ENDBRANCH   1   5
BRANCH   2  19
HETATM   19  C   UNL     1      42.927 -15.275   4.130  1.00  0.00     0.032 A 
HETATM   20  C   UNL     1      43.137 -16.657   4.257  1.00  0.00     0.029 A 
HETATM   21  C   UNL     1      43.352 -17.456   3.124  1.00  0.00    -0.023 A 
HETATM   22  C   UNL     1      43.351 -16.848   1.862  1.00  0.00     0.012 A 
HETATM   23  C   UNL     1      43.124 -15.476   1.728  1.00  0.00     0.002 A 
HETATM   24  C   UNL     1      42.908 -14.689   2.860  1.00  0.00     0.017 A 
BRANCH  21  25
HETATM   25  C   UNL     1      43.578 -18.888   3.242  1.00  0.00    -0.002 A 
HETATM   26  C   UNL     1      43.482 -19.786   2.197  1.00  0.00     0.153 A 
HETATM   27  O   UNL     1      43.762 -21.048   2.615  1.00  0.00    -0.334 OA
HETATM   28  C   UNL     1      44.046 -20.970   3.939  1.00  0.00     0.142 A 
HETATM   29  C   UNL     1      43.953 -19.669   4.374  1.00  0.00     0.038 A 
ENDBRANCH  21  25
ENDBRANCH   2  19
TORSDOF 7
ENDMDL
MODEL 10
REMARK VINA RESULT:      -7.4      2.657      4.412
REMARK  7 active torsions:
REMARK  status: ('A' for Active; 'I' for Inactive)
REMARK    1  A    between atoms: O_2  and  C_3 
REMARK    2  A    between atoms: C_6  and  C_7 
REMARK       I    between atoms: C_7  and  N_8 
REMARK    3  A    between atoms: N_8  and  C_9 
REMARK    4  A    between atoms: C_9  and  C_10 
REMARK    5  A    between atoms: C_10  and  N_11 
REMARK       I    between atoms: N_11  and  C_12 
REMARK    6  A    between atoms: C_12  and  C_13 
REMARK    7  A    between atoms: C_15  and  C_16 
ROOT
HETATM    1  N   UNL     1      42.222 -12.027   5.514  1.00  0.00    -0.355 N 
HETATM    2  C   UNL     1      42.774 -12.581   4.380  1.00  0.00     0.251 C 
HETATM    3  O   UNL     1      43.728 -12.086   3.788  1.00  0.00    -0.268 OA
HETATM    4  H   UNL     1      41.320 -12.344   5.843  1.00  0.00     0.162 HD
ENDROOT
BRANCH   1   5
HETATM    5  C   UNL     1      42.732 -10.786   6.072  1.00  0.00     0.142 C 
BRANCH   5   6
HETATM    6  C   UNL     1      43.858 -11.014   7.087  1.00  0.00     0.142 C 
BRANCH   6   7
HETATM    7  N   UNL     1      43.453 -10.734   8.452  1.00  0.00    -0.355 N 
HETATM    8  C   UNL     1      44.004  -9.686   9.159  1.00  0.00     0.251 C 
HETATM    9  O   UNL     1      44.835  -8.923   8.679  1.00  0.00    -0.268 OA
HETATM   10  H   UNL     1      42.634 -11.209   8.804  1.00  0.00     0.162 HD
BRANCH   8  11
HETATM   11  C   UNL     1      43.520  -9.488  10.555  1.00  0.00     0.032 A 
HETATM   12  C   UNL     1      43.253 -10.561  11.415  1.00  0.00     0.020 A 
HETATM   13  C   UNL     1      42.824 -10.327  12.728  1.00  0.00     0.038 A 
HETATM   14  C   UNL     1      42.669  -9.022  13.196  1.00  0.00     0.068 A 
HETATM   15  C   UNL     1      42.941  -7.953  12.339  1.00  0.00     0.038 A 
HETATM   16  C   UNL     1      43.370  -8.180  11.029  1.00  0.00     0.020 A 
BRANCH  14  17
HETATM   17  O   UNL     1      42.268  -8.659  14.452  1.00  0.00    -0.356 OA
HETATM   18  C   UNL     1      40.908  -8.273  14.608  1.00  0.00     0.210 C 
ENDBRANCH  14  17
ENDBRANCH   8  11
ENDBRANCH   6   7
ENDBRANCH   5   6
ENDBRANCH   1   5
BRANCH   2  19
HETATM   19  C   UNL     1      42.123 -13.815   3.855  1.00  0.00     0.032 A 
HETATM   20  C   UNL     1      42.868 -15.003   3.844  1.00  0.00     0.029 A 
HETATM   21  C   UNL     1      42.307 -16.196   3.364  1.00  0.00    -0.023 A 
HETATM   22  C   UNL     1      40.986 -16.179   2.897  1.00  0.00     0.012 A 
HETATM   23  C   UNL     1      40.234 -15.002   2.923  1.00  0.00     0.002 A 
HETATM   24  C   UNL     1      40.798 -13.821   3.405  1.00  0.00     0.017 A 
BRANCH  21  25
HETATM   25  C   UNL     1      43.071 -17.434   3.341  1.00  0.00    -0.002 A 
HETATM   26  C   UNL     1      43.899 -17.865   4.359  1.00  0.00     0.153 A 
HETATM   27  O   UNL     1      44.463 -19.061   4.052  1.00  0.00    -0.334 OA
HETATM   28  C   UNL     1      43.995 -19.414   2.829  1.00  0.00     0.142 A 
HETATM   29  C   UNL     1      43.135 -18.455   2.349  1.00  0.00     0.038 A 
ENDBRANCH  21  25
ENDBRANCH   2  19
TORSDOF 7
ENDMDL
