MODEL 1
REMARK VINA RESULT:      -9.6      0.000      0.000
REMARK  5 active torsions:
REMARK  status: ('A' for Active; 'I' for Inactive)
REMARK    1  A    between atoms: C_7  and  C_8 
REMARK    2  A    between atoms: C_8  and  O_9 
REMARK    3  A    between atoms: N_12  and  C_13 
REMARK    4  A    between atoms: C_13  and  C_14 
REMARK    5  A    between atoms: C_14  and  C_15 
ROOT
HETATM    1  C   UNL     1      40.939 -14.021   4.224  1.00  0.00     0.199 A 
HETATM    2  C   UNL     1      41.369 -15.497   4.458  1.00  0.00     0.269 A 
HETATM    3  O   UNL     1      40.743 -16.492   4.113  1.00  0.00    -0.269 OA
HETATM    4  N   UNL     1      42.530 -15.478   5.257  1.00  0.00    -0.314 N 
HETATM    5  C   UNL     1      42.890 -14.156   5.572  1.00  0.00     0.047 A 
HETATM    6  C   UNL     1      41.998 -13.258   4.975  1.00  0.00     0.017 A 
HETATM    7  C   UNL     1      43.936 -13.709   6.364  1.00  0.00     0.030 A 
HETATM    8  C   UNL     1      44.076 -12.331   6.558  1.00  0.00     0.002 A 
HETATM    9  C   UNL     1      43.176 -11.428   5.971  1.00  0.00     0.001 A 
HETATM   10  C   UNL     1      42.126 -11.888   5.177  1.00  0.00     0.013 A 
ENDROOT
BRANCH   1  11
HETATM   11  C   UNL     1      40.964 -13.551   2.788  1.00  0.00     0.025 A 
HETATM   12  C   UNL     1      41.957 -13.834   1.846  1.00  0.00     0.016 A 
HETATM   13  C   UNL     1      43.210 -14.632   1.944  1.00  0.00     0.069 C 
HETATM   14  N   UNL     1      41.609 -13.236   0.663  1.00  0.00    -0.359 N 
HETATM   15  H   UNL     1      42.148 -13.278  -0.190  1.00  0.00     0.166 HD
HETATM   16  C   UNL     1      40.405 -12.592   0.780  1.00  0.00     0.043 A 
HETATM   17  C   UNL     1      39.970 -12.761   2.095  1.00  0.00     0.003 A 
HETATM   18  C   UNL     1      39.680 -11.883  -0.185  1.00  0.00     0.030 A 
HETATM   19  C   UNL     1      38.731 -12.183   2.452  1.00  0.00     0.014 A 
HETATM   20  C   UNL     1      37.990 -11.471   1.499  1.00  0.00     0.001 A 
HETATM   21  C   UNL     1      38.460 -11.324   0.198  1.00  0.00     0.002 A 
ENDBRANCH   1  11
BRANCH   1  22
HETATM   22  O   UNL     1      39.672 -13.830   4.856  1.00  0.00    -0.371 OA
HETATM   23  H   UNL     1      39.447 -12.903   4.656  1.00  0.00     0.212 HD
ENDBRANCH   1  22
BRANCH   4  24
HETATM   24  C   UNL     1      43.011 -16.649   5.963  1.00  0.00     0.137 C 
BRANCH  24  25
HETATM   25  C   UNL     1      44.315 -17.228   5.406  1.00  0.00     0.058 C 
BRANCH  25  26
HETATM   26  C   UNL     1      44.019 -18.394   4.490  1.00  0.00    -0.057 A 
HETATM   27  C   UNL     1      44.167 -19.709   4.956  1.00  0.00     0.007 A 
HETATM   28  C   UNL     1      43.968 -20.791   4.096  1.00  0.00     0.001 A 
HETATM   29  C   UNL     1      43.615 -20.569   2.767  1.00  0.00     0.000 A 
HETATM   30  C   UNL     1      43.459 -19.267   2.296  1.00  0.00     0.001 A 
HETATM   31  C   UNL     1      43.661 -18.183   3.153  1.00  0.00     0.007 A 
ENDBRANCH  25  26
ENDBRANCH  24  25
ENDBRANCH   4  24
TORSDOF 5
ENDMDL
MODEL 2
REMARK VINA RESULT:      -9.5      1.330      2.222
REMARK  5 active torsions:
REMARK  status: ('A' for Active; 'I' for Inactive)
REMARK    1  A    between atoms: C_7  and  C_8 
REMARK    2  A    between atoms: C_8  and  O_9 
REMARK    3  A    between atoms: N_12  and  C_13 
REMARK    4  A    between atoms: C_13  and  C_14 
REMARK    5  A    between atoms: C_14  and  C_15 
ROOT
HETATM    1  C   UNL     1      40.662 -13.966   5.649  1.00  0.00     0.199 A 
HETATM    2  C   UNL     1      41.057 -15.471   5.640  1.00  0.00     0.269 A 
HETATM    3  O   UNL     1      40.287 -16.416   5.515  1.00  0.00    -0.269 OA
HETATM    4  N   UNL     1      42.432 -15.550   5.939  1.00  0.00    -0.314 N 
HETATM    5  C   UNL     1      42.965 -14.266   6.150  1.00  0.00     0.047 A 
HETATM    6  C   UNL     1      41.971 -13.296   5.974  1.00  0.00     0.017 A 
HETATM    7  C   UNL     1      44.257 -13.912   6.504  1.00  0.00     0.030 A 
HETATM    8  C   UNL     1      44.544 -12.556   6.689  1.00  0.00     0.002 A 
HETATM    9  C   UNL     1      43.547 -11.582   6.527  1.00  0.00     0.001 A 
HETATM   10  C   UNL     1      42.249 -11.948   6.171  1.00  0.00     0.013 A 
ENDROOT
BRANCH   1  11
HETATM   11  C   UNL     1      40.174 -13.409   4.332  1.00  0.00     0.025 A 
HETATM   12  C   UNL     1      39.429 -12.238   4.158  1.00  0.00     0.016 A 
HETATM   13  C   UNL     1      38.923 -11.239   5.138  1.00  0.00     0.069 C 
HETATM   14  N   UNL     1      39.194 -12.075   2.819  1.00  0.00    -0.359 N 
HETATM   15  H   UNL     1      38.679 -11.309   2.408  1.00  0.00     0.166 HD
HETATM   16  C   UNL     1      39.782 -13.079   2.096  1.00  0.00     0.043 A 
HETATM   17  C   UNL     1      40.401 -13.938   3.005  1.00  0.00     0.003 A 
HETATM   18  C   UNL     1      39.809 -13.278   0.710  1.00  0.00     0.030 A 
HETATM   19  C   UNL     1      41.088 -15.056   2.482  1.00  0.00     0.014 A 
HETATM   20  C   UNL     1      41.127 -15.271   1.098  1.00  0.00     0.001 A 
HETATM   21  C   UNL     1      40.495 -14.392   0.225  1.00  0.00     0.002 A 
ENDBRANCH   1  11
BRANCH   1  22
HETATM   22  O   UNL     1      39.740 -13.764   6.721  1.00  0.00    -0.371 OA
HETATM   23  H   UNL     1      39.600 -14.659   7.082  1.00  0.00     0.212 HD
ENDBRANCH   1  22
BRANCH   4  24
HETATM   24  C   UNL     1      43.070 -16.781   6.360  1.00  0.00     0.137 C 
BRANCH  24  25
HETATM   25  C   UNL     1      44.304 -17.163   5.535  1.00  0.00     0.058 C 
BRANCH  25  26
HETATM   26  C   UNL     1      43.932 -18.181   4.481  1.00  0.00    -0.057 A 
HETATM   27  C   UNL     1      44.177 -19.545   4.703  1.00  0.00     0.007 A 
HETATM   28  C   UNL     1      43.906 -20.484   3.707  1.00  0.00     0.001 A 
HETATM   29  C   UNL     1      43.384 -20.071   2.482  1.00  0.00     0.000 A 
HETATM   30  C   UNL     1      43.131 -18.719   2.255  1.00  0.00     0.001 A 
HETATM   31  C   UNL     1      43.405 -17.777   3.249  1.00  0.00     0.007 A 
ENDBRANCH  25  26
ENDBRANCH  24  25
ENDBRANCH   4  24
TORSDOF 5
ENDMDL
MODEL 3
REMARK VINA RESULT:      -9.2      2.216      3.094
REMARK  5 active torsions:
REMARK  status: ('A' for Active; 'I' for Inactive)
REMARK    1  A    between atoms: C_7  and  C_8 
REMARK    2  A    between atoms: C_8  and  O_9 
REMARK    3  A    between atoms: N_12  and  C_13 
REMARK    4  A    between atoms: C_13  and  C_14 
REMARK    5  A    between atoms: C_14  and  C_15 
ROOT
HETATM    1  C   UNL     1      40.199 -13.500   3.142  1.00  0.00     0.199 A 
HETATM    2  C   UNL     1      40.854 -14.439   2.089  1.00  0.00     0.269 A 
HETATM    3  O   UNL     1      40.806 -14.300   0.872  1.00  0.00    -0.269 OA
HETATM    4  N   UNL     1      41.389 -15.544   2.781  1.00  0.00    -0.314 N 
HETATM    5  C   UNL     1      41.143 -15.426   4.161  1.00  0.00     0.047 A 
HETATM    6  C   UNL     1      40.462 -14.233   4.430  1.00  0.00     0.017 A 
HETATM    7  C   UNL     1      41.464 -16.313   5.176  1.00  0.00     0.030 A 
HETATM    8  C   UNL     1      41.084 -15.988   6.482  1.00  0.00     0.002 A 
HETATM    9  C   UNL     1      40.390 -14.800   6.754  1.00  0.00     0.001 A 
HETATM   10  C   UNL     1      40.070 -13.914   5.725  1.00  0.00     0.013 A 
ENDROOT
BRANCH   1  11
HETATM   11  C   UNL     1      40.812 -12.123   3.262  1.00  0.00     0.025 A 
HETATM   12  C   UNL     1      42.176 -11.821   3.216  1.00  0.00     0.016 A 
HETATM   13  C   UNL     1      43.372 -12.691   3.039  1.00  0.00     0.069 C 
HETATM   14  N   UNL     1      42.320 -10.466   3.353  1.00  0.00    -0.359 N 
HETATM   15  H   UNL     1      43.202  -9.972   3.353  1.00  0.00     0.166 HD
HETATM   16  C   UNL     1      41.098  -9.855   3.458  1.00  0.00     0.043 A 
HETATM   17  C   UNL     1      40.128 -10.857   3.411  1.00  0.00     0.003 A 
HETATM   18  C   UNL     1      40.793  -8.494   3.585  1.00  0.00     0.030 A 
HETATM   19  C   UNL     1      38.775 -10.459   3.494  1.00  0.00     0.014 A 
HETATM   20  C   UNL     1      38.450  -9.102   3.621  1.00  0.00     0.001 A 
HETATM   21  C   UNL     1      39.447  -8.134   3.665  1.00  0.00     0.002 A 
ENDBRANCH   1  11
BRANCH   1  22
HETATM   22  O   UNL     1      38.795 -13.469   2.884  1.00  0.00    -0.371 OA
HETATM   23  H   UNL     1      38.735 -13.320   1.923  1.00  0.00     0.212 HD
ENDBRANCH   1  22
BRANCH   4  24
HETATM   24  C   UNL     1      41.758 -16.778   2.117  1.00  0.00     0.137 C 
BRANCH  24  25
HETATM   25  C   UNL     1      43.267 -17.040   2.072  1.00  0.00     0.058 C 
BRANCH  25  26
HETATM   26  C   UNL     1      43.596 -18.319   2.807  1.00  0.00    -0.057 A 
HETATM   27  C   UNL     1      43.379 -19.561   2.191  1.00  0.00     0.007 A 
HETATM   28  C   UNL     1      43.609 -20.748   2.888  1.00  0.00     0.001 A 
HETATM   29  C   UNL     1      44.062 -20.705   4.205  1.00  0.00     0.000 A 
HETATM   30  C   UNL     1      44.288 -19.477   4.825  1.00  0.00     0.001 A 
HETATM   31  C   UNL     1      44.054 -18.288   4.130  1.00  0.00     0.007 A 
ENDBRANCH  25  26
ENDBRANCH  24  25
ENDBRANCH   4  24
TORSDOF 5
ENDMDL
MODEL 4
REMARK VINA RESULT:      -8.9      1.907      3.059
REMARK  5 active torsions:
REMARK  status: ('A' for Active; 'I' for Inactive)
REMARK    1  A    between atoms: C_7  and  C_8 
REMARK    2  A    between atoms: C_8  and  O_9 
REMARK    3  A    between atoms: N_12  and  C_13 
REMARK    4  A    between atoms: C_13  and  C_14 
REMARK    5  A    between atoms: C_14  and  C_15 
ROOT
HETATM    1  C   UNL     1      40.086 -13.552   2.179  1.00  0.00     0.199 A 
HETATM    2  C   UNL     1      40.772 -14.894   1.791  1.00  0.00     0.269 A 
HETATM    3  O   UNL     1      40.199 -15.925   1.459  1.00  0.00    -0.269 OA
HETATM    4  N   UNL     1      42.153 -14.745   2.023  1.00  0.00    -0.314 N 
HETATM    5  C   UNL     1      42.433 -13.462   2.527  1.00  0.00     0.047 A 
HETATM    6  C   UNL     1      41.255 -12.713   2.622  1.00  0.00     0.017 A 
HETATM    7  C   UNL     1      43.652 -12.934   2.922  1.00  0.00     0.030 A 
HETATM    8  C   UNL     1      43.675 -11.629   3.426  1.00  0.00     0.002 A 
HETATM    9  C   UNL     1      42.494 -10.880   3.534  1.00  0.00     0.001 A 
HETATM   10  C   UNL     1      41.272 -11.421   3.135  1.00  0.00     0.013 A 
ENDROOT
BRANCH   1  11
HETATM   11  C   UNL     1      39.394 -12.820   1.052  1.00  0.00     0.025 A 
HETATM   12  C   UNL     1      38.499 -11.755   1.188  1.00  0.00     0.016 A 
HETATM   13  C   UNL     1      37.985 -11.049   2.394  1.00  0.00     0.069 C 
HETATM   14  N   UNL     1      38.102 -11.365  -0.063  1.00  0.00    -0.359 N 
HETATM   15  H   UNL     1      37.457 -10.613  -0.261  1.00  0.00     0.166 HD
HETATM   16  C   UNL     1      38.726 -12.114  -1.026  1.00  0.00     0.043 A 
HETATM   17  C   UNL     1      39.539 -13.040  -0.370  1.00  0.00     0.003 A 
HETATM   18  C   UNL     1      38.626 -12.030  -2.420  1.00  0.00     0.030 A 
HETATM   19  C   UNL     1      40.295 -13.926  -1.170  1.00  0.00     0.014 A 
HETATM   20  C   UNL     1      40.209 -13.855  -2.567  1.00  0.00     0.001 A 
HETATM   21  C   UNL     1      39.386 -12.919  -3.182  1.00  0.00     0.002 A 
ENDBRANCH   1  11
BRANCH   1  22
HETATM   22  O   UNL     1      39.228 -13.808   3.292  1.00  0.00    -0.371 OA
HETATM   23  H   UNL     1      38.630 -13.038   3.310  1.00  0.00     0.212 HD
ENDBRANCH   1  22
BRANCH   4  24
HETATM   24  C   UNL     1      43.057 -15.875   2.112  1.00  0.00     0.137 C 
BRANCH  24  25
HETATM   25  C   UNL     1      43.162 -16.486   3.513  1.00  0.00     0.058 C 
BRANCH  25  26
HETATM   26  C   UNL     1      43.346 -17.984   3.416  1.00  0.00    -0.057 A 
HETATM   27  C   UNL     1      43.933 -18.691   4.476  1.00  0.00     0.007 A 
HETATM   28  C   UNL     1      44.175 -20.061   4.366  1.00  0.00     0.001 A 
HETATM   29  C   UNL     1      43.828 -20.738   3.198  1.00  0.00     0.000 A 
HETATM   30  C   UNL     1      43.238 -20.046   2.142  1.00  0.00     0.001 A 
HETATM   31  C   UNL     1      42.999 -18.675   2.249  1.00  0.00     0.007 A 
ENDBRANCH  25  26
ENDBRANCH  24  25
ENDBRANCH   4  24
TORSDOF 5
ENDMDL
MODEL 5
REMARK VINA RESULT:      -8.8      1.855      2.578
REMARK  5 active torsions:
REMARK  status: ('A' for Active; 'I' for Inactive)
REMARK    1  A    between atoms: C_7  and  C_8 
REMARK    2  A    between atoms: C_8  and  O_9 
REMARK    3  A    between atoms: N_12  and  C_13 
REMARK    4  A    between atoms: C_13  and  C_14 
REMARK    5  A    between atoms: C_14  and  C_15 
ROOT
HETATM    1  C   UNL     1      40.260 -14.571   2.400  1.00  0.00     0.199 A 
HETATM    2  C   UNL     1      41.312 -15.655   2.771  1.00  0.00     0.269 A 
HETATM    3  O   UNL     1      41.632 -16.614   2.078  1.00  0.00    -0.269 OA
HETATM    4  N   UNL     1      41.723 -15.410   4.096  1.00  0.00    -0.314 N 
HETATM    5  C   UNL     1      41.046 -14.296   4.624  1.00  0.00     0.047 A 
HETATM    6  C   UNL     1      40.187 -13.753   3.662  1.00  0.00     0.017 A 
HETATM    7  C   UNL     1      41.131 -13.756   5.897  1.00  0.00     0.030 A 
HETATM    8  C   UNL     1      40.328 -12.651   6.201  1.00  0.00     0.002 A 
HETATM    9  C   UNL     1      39.455 -12.113   5.243  1.00  0.00     0.001 A 
HETATM   10  C   UNL     1      39.377 -12.665   3.965  1.00  0.00     0.013 A 
ENDROOT
BRANCH   1  11
HETATM   11  C   UNL     1      40.646 -13.643   1.272  1.00  0.00     0.025 A 
HETATM   12  C   UNL     1      41.505 -12.543   1.366  1.00  0.00     0.016 A 
HETATM   13  C   UNL     1      42.261 -11.981   2.519  1.00  0.00     0.069 C 
HETATM   14  N   UNL     1      41.604 -11.968   0.127  1.00  0.00    -0.359 N 
HETATM   15  H   UNL     1      42.162 -11.155  -0.094  1.00  0.00     0.166 HD
HETATM   16  C   UNL     1      40.866 -12.666  -0.793  1.00  0.00     0.043 A 
HETATM   17  C   UNL     1      40.247 -13.718  -0.117  1.00  0.00     0.003 A 
HETATM   18  C   UNL     1      40.712 -12.438  -2.166  1.00  0.00     0.030 A 
HETATM   19  C   UNL     1      39.430 -14.589  -0.873  1.00  0.00     0.014 A 
HETATM   20  C   UNL     1      39.266 -14.377  -2.248  1.00  0.00     0.001 A 
HETATM   21  C   UNL     1      39.899 -13.315  -2.885  1.00  0.00     0.002 A 
ENDBRANCH   1  11
BRANCH   1  22
HETATM   22  O   UNL     1      39.012 -15.231   2.182  1.00  0.00    -0.371 OA
HETATM   23  H   UNL     1      39.060 -15.524   1.253  1.00  0.00     0.212 HD
ENDBRANCH   1  22
BRANCH   4  24
HETATM   24  C   UNL     1      42.418 -16.401   4.894  1.00  0.00     0.137 C 
BRANCH  24  25
HETATM   25  C   UNL     1      43.797 -16.789   4.354  1.00  0.00     0.058 C 
BRANCH  25  26
HETATM   26  C   UNL     1      43.881 -18.287   4.166  1.00  0.00    -0.057 A 
HETATM   27  C   UNL     1      43.794 -18.841   2.880  1.00  0.00     0.007 A 
HETATM   28  C   UNL     1      43.795 -20.226   2.704  1.00  0.00     0.001 A 
HETATM   29  C   UNL     1      43.889 -21.069   3.809  1.00  0.00     0.000 A 
HETATM   30  C   UNL     1      43.983 -20.529   5.091  1.00  0.00     0.001 A 
HETATM   31  C   UNL     1      43.977 -19.144   5.270  1.00  0.00     0.007 A 
ENDBRANCH  25  26
ENDBRANCH  24  25
ENDBRANCH   4  24
TORSDOF 5
ENDMDL
MODEL 6
REMARK VINA RESULT:      -8.7     15.462     17.258
REMARK  5 active torsions:
REMARK  status: ('A' for Active; 'I' for Inactive)
REMARK    1  A    between atoms: C_7  and  C_8 
REMARK    2  A    between atoms: C_8  and  O_9 
REMARK    3  A    between atoms: N_12  and  C_13 
REMARK    4  A    between atoms: C_13  and  C_14 
REMARK    5  A    between atoms: C_14  and  C_15 
ROOT
HETATM    1  C   UNL     1      47.787 -28.951   0.149  1.00  0.00     0.199 A 
HETATM    2  C   UNL     1      47.724 -28.906   1.703  1.00  0.00     0.269 A 
HETATM    3  O   UNL     1      46.930 -28.256   2.372  1.00  0.00    -0.269 OA
HETATM    4  N   UNL     1      48.826 -29.635   2.192  1.00  0.00    -0.314 N 
HETATM    5  C   UNL     1      49.599 -30.135   1.129  1.00  0.00     0.047 A 
HETATM    6  C   UNL     1      49.023 -29.777  -0.096  1.00  0.00     0.017 A 
HETATM    7  C   UNL     1      50.778 -30.860   1.182  1.00  0.00     0.030 A 
HETATM    8  C   UNL     1      51.385 -31.224  -0.025  1.00  0.00     0.002 A 
HETATM    9  C   UNL     1      50.817 -30.856  -1.254  1.00  0.00     0.001 A 
HETATM   10  C   UNL     1      49.631 -30.124  -1.297  1.00  0.00     0.013 A 
ENDROOT
BRANCH   1  11
HETATM   11  C   UNL     1      46.630 -29.641  -0.534  1.00  0.00     0.025 A 
HETATM   12  C   UNL     1      46.006 -30.819  -0.112  1.00  0.00     0.016 A 
HETATM   13  C   UNL     1      46.260 -31.701   1.060  1.00  0.00     0.069 C 
HETATM   14  N   UNL     1      44.998 -31.110  -0.993  1.00  0.00    -0.359 N 
HETATM   15  H   UNL     1      44.382 -31.908  -0.928  1.00  0.00     0.166 HD
HETATM   16  C   UNL     1      44.911 -30.150  -1.967  1.00  0.00     0.043 A 
HETATM   17  C   UNL     1      45.917 -29.215  -1.719  1.00  0.00     0.003 A 
HETATM   18  C   UNL     1      44.012 -30.049  -3.036  1.00  0.00     0.030 A 
HETATM   19  C   UNL     1      46.017 -28.116  -2.601  1.00  0.00     0.014 A 
HETATM   20  C   UNL     1      45.125 -27.997  -3.676  1.00  0.00     0.001 A 
HETATM   21  C   UNL     1      44.137 -28.952  -3.889  1.00  0.00     0.002 A 
ENDBRANCH   1  11
BRANCH   1  22
HETATM   22  O   UNL     1      48.001 -27.618  -0.317  1.00  0.00    -0.371 OA
HETATM   23  H   UNL     1      48.948 -27.458  -0.146  1.00  0.00     0.212 HD
ENDBRANCH   1  22
BRANCH   4  24
HETATM   24  C   UNL     1      49.292 -29.521   3.561  1.00  0.00     0.137 C 
BRANCH  24  25
HETATM   25  C   UNL     1      48.728 -30.586   4.507  1.00  0.00     0.058 C 
BRANCH  25  26
HETATM   26  C   UNL     1      49.856 -31.334   5.181  1.00  0.00    -0.057 A 
HETATM   27  C   UNL     1      49.583 -32.482   5.939  1.00  0.00     0.007 A 
HETATM   28  C   UNL     1      50.607 -33.136   6.627  1.00  0.00     0.001 A 
HETATM   29  C   UNL     1      51.912 -32.651   6.560  1.00  0.00     0.000 A 
HETATM   30  C   UNL     1      52.194 -31.515   5.804  1.00  0.00     0.001 A 
HETATM   31  C   UNL     1      51.170 -30.857   5.119  1.00  0.00     0.007 A 
ENDBRANCH  25  26
ENDBRANCH  24  25
ENDBRANCH   4  24
TORSDOF 5
ENDMDL
MODEL 7
REMARK VINA RESULT:      -8.6      2.100      6.922
REMARK  5 active torsions:
REMARK  status: ('A' for Active; 'I' for Inactive)
REMARK    1  A    between atoms: C_7  and  C_8 
REMARK    2  A    between atoms: C_8  and  O_9 
REMARK    3  A    between atoms: N_12  and  C_13 
REMARK    4  A    between atoms: C_13  and  C_14 
REMARK    5  A    between atoms: C_14  and  C_15 
ROOT
HETATM    1  C   UNL     1      42.047 -14.932   2.373  1.00  0.00     0.199 A 
HETATM    2  C   UNL     1      40.562 -14.827   1.924  1.00  0.00     0.269 A 
HETATM    3  O   UNL     1      39.891 -15.730   1.439  1.00  0.00    -0.269 OA
HETATM    4  N   UNL     1      40.177 -13.477   2.047  1.00  0.00    -0.314 N 
HETATM    5  C   UNL     1      41.251 -12.699   2.515  1.00  0.00     0.047 A 
HETATM    6  C   UNL     1      42.371 -13.508   2.740  1.00  0.00     0.017 A 
HETATM    7  C   UNL     1      41.300 -11.331   2.730  1.00  0.00     0.030 A 
HETATM    8  C   UNL     1      42.504 -10.774   3.174  1.00  0.00     0.002 A 
HETATM    9  C   UNL     1      43.632 -11.580   3.388  1.00  0.00     0.001 A 
HETATM   10  C   UNL     1      43.573 -12.956   3.167  1.00  0.00     0.013 A 
ENDROOT
BRANCH   1  11
HETATM   11  C   UNL     1      42.305 -15.791   3.589  1.00  0.00     0.025 A 
HETATM   12  C   UNL     1      41.823 -15.557   4.880  1.00  0.00     0.016 A 
HETATM   13  C   UNL     1      40.961 -14.474   5.429  1.00  0.00     0.069 C 
HETATM   14  N   UNL     1      42.270 -16.565   5.694  1.00  0.00    -0.359 N 
HETATM   15  H   UNL     1      42.069 -16.647   6.680  1.00  0.00     0.166 HD
HETATM   16  C   UNL     1      43.005 -17.475   4.981  1.00  0.00     0.043 A 
HETATM   17  C   UNL     1      43.056 -17.025   3.661  1.00  0.00     0.003 A 
HETATM   18  C   UNL     1      43.618 -18.656   5.416  1.00  0.00     0.030 A 
HETATM   19  C   UNL     1      43.764 -17.817   2.729  1.00  0.00     0.014 A 
HETATM   20  C   UNL     1      44.383 -19.003   3.145  1.00  0.00     0.001 A 
HETATM   21  C   UNL     1      44.310 -19.416   4.471  1.00  0.00     0.002 A 
ENDBRANCH   1  11
BRANCH   1  22
HETATM   22  O   UNL     1      42.820 -15.322   1.236  1.00  0.00    -0.371 OA
HETATM   23  H   UNL     1      42.376 -16.128   0.916  1.00  0.00     0.212 HD
ENDBRANCH   1  22
BRANCH   4  24
HETATM   24  C   UNL     1      38.996 -12.939   1.401  1.00  0.00     0.137 C 
BRANCH  24  25
HETATM   25  C   UNL     1      39.289 -12.113   0.144  1.00  0.00     0.058 C 
BRANCH  25  26
HETATM   26  C   UNL     1      38.896 -12.889  -1.093  1.00  0.00    -0.057 A 
HETATM   27  C   UNL     1      37.687 -12.607  -1.746  1.00  0.00     0.007 A 
HETATM   28  C   UNL     1      37.280 -13.367  -2.844  1.00  0.00     0.001 A 
HETATM   29  C   UNL     1      38.080 -14.413  -3.301  1.00  0.00     0.000 A 
HETATM   30  C   UNL     1      39.286 -14.697  -2.664  1.00  0.00     0.001 A 
HETATM   31  C   UNL     1      39.693 -13.940  -1.563  1.00  0.00     0.007 A 
ENDBRANCH  25  26
ENDBRANCH  24  25
ENDBRANCH   4  24
TORSDOF 5
ENDMDL
MODEL 8
REMARK VINA RESULT:      -8.6      2.000      6.468
REMARK  5 active torsions:
REMARK  status: ('A' for Active; 'I' for Inactive)
REMARK    1  A    between atoms: C_7  and  C_8 
REMARK    2  A    between atoms: C_8  and  O_9 
REMARK    3  A    between atoms: N_12  and  C_13 
REMARK    4  A    between atoms: C_13  and  C_14 
REMARK    5  A    between atoms: C_14  and  C_15 
ROOT
HETATM    1  C   UNL     1      41.494 -15.616   4.808  1.00  0.00     0.199 A 
HETATM    2  C   UNL     1      40.704 -14.978   3.630  1.00  0.00     0.269 A 
HETATM    3  O   UNL     1      39.810 -14.145   3.730  1.00  0.00    -0.269 OA
HETATM    4  N   UNL     1      41.105 -15.632   2.448  1.00  0.00    -0.314 N 
HETATM    5  C   UNL     1      42.057 -16.627   2.735  1.00  0.00     0.047 A 
HETATM    6  C   UNL     1      42.336 -16.648   4.106  1.00  0.00     0.017 A 
HETATM    7  C   UNL     1      42.668 -17.516   1.866  1.00  0.00     0.030 A 
HETATM    8  C   UNL     1      43.570 -18.445   2.395  1.00  0.00     0.002 A 
HETATM    9  C   UNL     1      43.841 -18.478   3.772  1.00  0.00     0.001 A 
HETATM   10  C   UNL     1      43.220 -17.579   4.639  1.00  0.00     0.013 A 
ENDROOT
BRANCH   1  11
HETATM   11  C   UNL     1      42.427 -14.687   5.550  1.00  0.00     0.025 A 
HETATM   12  C   UNL     1      42.878 -14.848   6.864  1.00  0.00     0.016 A 
HETATM   13  C   UNL     1      42.609 -15.908   7.874  1.00  0.00     0.069 C 
HETATM   14  N   UNL     1      43.712 -13.803   7.162  1.00  0.00    -0.359 N 
HETATM   15  H   UNL     1      44.181 -13.669   8.046  1.00  0.00     0.166 HD
HETATM   16  C   UNL     1      43.855 -12.972   6.083  1.00  0.00     0.043 A 
HETATM   17  C   UNL     1      43.063 -13.486   5.055  1.00  0.00     0.003 A 
HETATM   18  C   UNL     1      44.629 -11.813   5.951  1.00  0.00     0.030 A 
HETATM   19  C   UNL     1      43.058 -12.791   3.825  1.00  0.00     0.014 A 
HETATM   20  C   UNL     1      43.828 -11.629   3.674  1.00  0.00     0.001 A 
HETATM   21  C   UNL     1      44.602 -11.148   4.724  1.00  0.00     0.002 A 
ENDBRANCH   1  11
BRANCH   1  22
HETATM   22  O   UNL     1      40.552 -16.266   5.663  1.00  0.00    -0.371 OA
HETATM   23  H   UNL     1      41.079 -16.524   6.441  1.00  0.00     0.212 HD
ENDBRANCH   1  22
BRANCH   4  24
HETATM   24  C   UNL     1      40.345 -15.556   1.216  1.00  0.00     0.137 C 
BRANCH  24  25
HETATM   25  C   UNL     1      40.793 -14.439   0.269  1.00  0.00     0.058 C 
BRANCH  25  26
HETATM   26  C   UNL     1      39.677 -14.089  -0.689  1.00  0.00    -0.057 A 
HETATM   27  C   UNL     1      39.349 -14.963  -1.736  1.00  0.00     0.007 A 
HETATM   28  C   UNL     1      38.371 -14.614  -2.670  1.00  0.00     0.001 A 
HETATM   29  C   UNL     1      37.711 -13.392  -2.563  1.00  0.00     0.000 A 
HETATM   30  C   UNL     1      38.025 -12.519  -1.523  1.00  0.00     0.001 A 
HETATM   31  C   UNL     1      39.005 -12.865  -0.590  1.00  0.00     0.007 A 
ENDBRANCH  25  26
ENDBRANCH  24  25
ENDBRANCH   4  24
TORSDOF 5
ENDMDL
MODEL 9
REMARK VINA RESULT:      -8.5      2.337      3.949
REMARK  5 active torsions:
REMARK  status: ('A' for Active; 'I' for Inactive)
REMARK    1  A    between atoms: C_7  and  C_8 
REMARK    2  A    between atoms: C_8  and  O_9 
REMARK    3  A    between atoms: N_12  and  C_13 
REMARK    4  A    between atoms: C_13  and  C_14 
REMARK    5  A    between atoms: C_14  and  C_15 
ROOT
HETATM    1  C   UNL     1      42.205 -13.000   3.274  1.00  0.00     0.199 A 
HETATM    2  C   UNL     1      42.581 -13.837   4.529  1.00  0.00     0.269 A 
HETATM    3  O   UNL     1      43.340 -13.489   5.426  1.00  0.00    -0.269 OA
HETATM    4  N   UNL     1      42.002 -15.113   4.376  1.00  0.00    -0.314 N 
HETATM    5  C   UNL     1      41.304 -15.194   3.158  1.00  0.00     0.047 A 
HETATM    6  C   UNL     1      41.376 -13.973   2.478  1.00  0.00     0.017 A 
HETATM    7  C   UNL     1      40.636 -16.279   2.614  1.00  0.00     0.030 A 
HETATM    8  C   UNL     1      40.037 -16.126   1.359  1.00  0.00     0.002 A 
HETATM    9  C   UNL     1      40.118 -14.907   0.669  1.00  0.00     0.001 A 
HETATM   10  C   UNL     1      40.794 -13.821   1.224  1.00  0.00     0.013 A 
ENDROOT
BRANCH   1  11
HETATM   11  C   UNL     1      41.356 -11.777   3.532  1.00  0.00     0.025 A 
HETATM   12  C   UNL     1      41.216 -10.676   2.681  1.00  0.00     0.016 A 
HETATM   13  C   UNL     1      41.807 -10.381   1.347  1.00  0.00     0.069 C 
HETATM   14  N   UNL     1      40.356  -9.786   3.269  1.00  0.00    -0.359 N 
HETATM   15  H   UNL     1      40.074  -8.901   2.871  1.00  0.00     0.166 HD
HETATM   16  C   UNL     1      39.897 -10.271   4.466  1.00  0.00     0.043 A 
HETATM   17  C   UNL     1      40.503 -11.512   4.670  1.00  0.00     0.003 A 
HETATM   18  C   UNL     1      38.992  -9.699   5.368  1.00  0.00     0.030 A 
HETATM   19  C   UNL     1      40.170 -12.214   5.850  1.00  0.00     0.014 A 
HETATM   20  C   UNL     1      39.265 -11.657   6.764  1.00  0.00     0.001 A 
HETATM   21  C   UNL     1      38.685 -10.417   6.524  1.00  0.00     0.002 A 
ENDBRANCH   1  11
BRANCH   1  22
HETATM   22  O   UNL     1      43.411 -12.707   2.568  1.00  0.00    -0.371 OA
HETATM   23  H   UNL     1      43.970 -12.263   3.231  1.00  0.00     0.212 HD
ENDBRANCH   1  22
BRANCH   4  24
HETATM   24  C   UNL     1      42.419 -16.259   5.160  1.00  0.00     0.137 C 
BRANCH  24  25
HETATM   25  C   UNL     1      43.856 -16.714   4.893  1.00  0.00     0.058 C 
BRANCH  25  26
HETATM   26  C   UNL     1      43.861 -18.105   4.299  1.00  0.00    -0.057 A 
HETATM   27  C   UNL     1      43.582 -18.289   2.936  1.00  0.00     0.007 A 
HETATM   28  C   UNL     1      43.511 -19.574   2.395  1.00  0.00     0.001 A 
HETATM   29  C   UNL     1      43.722 -20.685   3.209  1.00  0.00     0.000 A 
HETATM   30  C   UNL     1      44.006 -20.513   4.563  1.00  0.00     0.001 A 
HETATM   31  C   UNL     1      44.074 -19.228   5.107  1.00  0.00     0.007 A 
ENDBRANCH  25  26
ENDBRANCH  24  25
ENDBRANCH   4  24
TORSDOF 5
ENDMDL
MODEL 10
REMARK VINA RESULT:      -8.3      2.050      3.136
REMARK  5 active torsions:
REMARK  status: ('A' for Active; 'I' for Inactive)
REMARK    1  A    between atoms: C_7  and  C_8 
REMARK    2  A    between atoms: C_8  and  O_9 
REMARK    3  A    between atoms: N_12  and  C_13 
REMARK    4  A    between atoms: C_13  and  C_14 
REMARK    5  A    between atoms: C_14  and  C_15 
ROOT
HETATM    1  C   UNL     1      39.652 -13.099   1.501  1.00  0.00     0.199 A 
HETATM    2  C   UNL     1      40.354 -14.446   1.164  1.00  0.00     0.269 A 
HETATM    3  O   UNL     1      39.812 -15.444   0.704  1.00  0.00    -0.269 OA
HETATM    4  N   UNL     1      41.687 -14.353   1.611  1.00  0.00    -0.314 N 
HETATM    5  C   UNL     1      41.920 -13.101   2.208  1.00  0.00     0.047 A 
HETATM    6  C   UNL     1      40.761 -12.317   2.154  1.00  0.00     0.017 A 
HETATM    7  C   UNL     1      43.077 -12.629   2.807  1.00  0.00     0.030 A 
HETATM    8  C   UNL     1      43.057 -11.347   3.365  1.00  0.00     0.002 A 
HETATM    9  C   UNL     1      41.894 -10.564   3.324  1.00  0.00     0.001 A 
HETATM   10  C   UNL     1      40.733 -11.048   2.720  1.00  0.00     0.013 A 
ENDROOT
BRANCH   1  11
HETATM   11  C   UNL     1      39.162 -12.301   0.316  1.00  0.00     0.025 A 
HETATM   12  C   UNL     1      39.735 -12.282  -0.960  1.00  0.00     0.016 A 
HETATM   13  C   UNL     1      40.918 -12.994  -1.518  1.00  0.00     0.069 C 
HETATM   14  N   UNL     1      38.994 -11.446  -1.751  1.00  0.00    -0.359 N 
HETATM   15  H   UNL     1      39.183 -11.247  -2.723  1.00  0.00     0.166 HD
HETATM   16  C   UNL     1      37.931 -10.932  -1.055  1.00  0.00     0.043 A 
HETATM   17  C   UNL     1      38.003 -11.439   0.244  1.00  0.00     0.003 A 
HETATM   18  C   UNL     1      36.920 -10.066  -1.488  1.00  0.00     0.030 A 
HETATM   19  C   UNL     1      36.993 -11.048   1.153  1.00  0.00     0.014 A 
HETATM   20  C   UNL     1      35.973 -10.183   0.737  1.00  0.00     0.001 A 
HETATM   21  C   UNL     1      35.938  -9.699  -0.567  1.00  0.00     0.002 A 
ENDBRANCH   1  11
BRANCH   1  22
HETATM   22  O   UNL     1      38.627 -13.370   2.459  1.00  0.00    -0.371 OA
HETATM   23  H   UNL     1      38.054 -12.582   2.418  1.00  0.00     0.212 HD
ENDBRANCH   1  22
BRANCH   4  24
HETATM   24  C   UNL     1      42.535 -15.515   1.787  1.00  0.00     0.137 C 
BRANCH  24  25
HETATM   25  C   UNL     1      42.583 -16.046   3.223  1.00  0.00     0.058 C 
BRANCH  25  26
HETATM   26  C   UNL     1      43.022 -17.493   3.229  1.00  0.00    -0.057 A 
HETATM   27  C   UNL     1      43.805 -17.986   4.284  1.00  0.00     0.007 A 
HETATM   28  C   UNL     1      44.278 -19.299   4.262  1.00  0.00     0.001 A 
HETATM   29  C   UNL     1      43.969 -20.133   3.188  1.00  0.00     0.000 A 
HETATM   30  C   UNL     1      43.185 -19.655   2.139  1.00  0.00     0.001 A 
HETATM   31  C   UNL     1      42.715 -18.340   2.157  1.00  0.00     0.007 A 
ENDBRANCH  25  26
ENDBRANCH  24  25
ENDBRANCH   4  24
TORSDOF 5
ENDMDL
