MODEL 1
REMARK VINA RESULT:      -8.4      0.000      0.000
REMARK  7 active torsions:
REMARK  status: ('A' for Active; 'I' for Inactive)
REMARK    1  A    between atoms: C_2  and  C_3 
REMARK    2  A    between atoms: C_3  and  C_4 
REMARK    3  A    between atoms: C_3  and  C_12 
REMARK    4  A    between atoms: C_7  and  O_8 
REMARK    5  A    between atoms: C_12  and  C_13 
REMARK       I    between atoms: C_13  and  N_14 
REMARK    6  A    between atoms: N_14  and  C_15 
REMARK    7  A    between atoms: C_22  and  C_23 
REMARK       I    between atoms: C_23  and  N_24 
ROOT
HETATM    1  C   UNL     1      41.650 -15.722   1.650  1.00  0.00     0.222 C 
HETATM    2  N   UNL     1      41.760 -14.482   1.033  1.00  0.00    -0.327 N 
HETATM    3  O   UNL     1      40.618 -16.368   1.757  1.00  0.00    -0.273 OA
HETATM    4  H   UNL     1      42.623 -13.975   1.182  1.00  0.00     0.169 HD
ENDROOT
BRANCH   2   5
HETATM    5  C   UNL     1      40.741 -13.792   0.340  1.00  0.00     0.035 A 
HETATM    6  C   UNL     1      40.054 -14.334  -0.756  1.00  0.00     0.046 A 
HETATM    7  C   UNL     1      39.052 -13.575  -1.396  1.00  0.00     0.030 A 
HETATM    8  C   UNL     1      38.761 -12.306  -0.913  1.00  0.00     0.063 A 
HETATM    9  C   UNL     1      38.180 -13.756  -2.512  1.00  0.00     0.156 A 
HETATM   10  N   UNL     1      37.754 -11.838  -1.709  1.00  0.00    -0.277 N 
HETATM   11  C   UNL     1      39.431 -11.730   0.169  1.00  0.00     0.034 A 
HETATM   12  H   UNL     1      37.281 -10.944  -1.640  1.00  0.00     0.189 HD
HETATM   13  N   UNL     1      37.379 -12.679  -2.687  1.00  0.00    -0.168 NA
HETATM   14  C   UNL     1      40.436 -12.496   0.775  1.00  0.00     0.032 A 
BRANCH   9  15
HETATM   15  C   UNL     1      38.103 -14.918  -3.409  1.00  0.00     0.270 C 
HETATM   16  N   UNL     1      38.100 -16.124  -2.764  1.00  0.00    -0.365 N 
HETATM   17  H   UNL     1      38.127 -16.133  -1.751  1.00  0.00     0.159 HD
HETATM   18  H   UNL     1      38.018 -16.973  -3.298  1.00  0.00     0.159 HD
HETATM   19  O   UNL     1      38.034 -14.854  -4.631  1.00  0.00    -0.266 OA
ENDBRANCH   9  15
ENDBRANCH   2   5
BRANCH   1  20
HETATM   20  C   UNL     1      42.984 -16.168   2.242  1.00  0.00     0.112 C 
BRANCH  20  21
HETATM   21  C   UNL     1      42.993 -16.726   3.681  1.00  0.00     0.027 C 
BRANCH  21  22
HETATM   22  C   UNL     1      43.847 -18.002   3.845  1.00  0.00     0.005 C 
HETATM   23  C   UNL     1      43.690 -18.971   2.678  1.00  0.00     0.006 C 
ENDBRANCH  21  22
BRANCH  21  24
HETATM   24  C   UNL     1      43.268 -15.664   4.737  1.00  0.00    -0.053 A 
HETATM   25  C   UNL     1      43.854 -15.966   5.972  1.00  0.00     0.010 A 
HETATM   26  C   UNL     1      44.062 -14.968   6.929  1.00  0.00     0.037 A 
HETATM   27  C   UNL     1      43.676 -13.652   6.685  1.00  0.00     0.068 A 
HETATM   28  C   UNL     1      43.102 -13.333   5.457  1.00  0.00     0.037 A 
HETATM   29  C   UNL     1      42.903 -14.330   4.492  1.00  0.00     0.010 A 
BRANCH  27  30
HETATM   30  O   UNL     1      43.917 -12.781   7.711  1.00  0.00    -0.356 OA
HETATM   31  C   UNL     1      44.394 -11.491   7.353  1.00  0.00     0.210 C 
ENDBRANCH  27  30
ENDBRANCH  21  24
ENDBRANCH  20  21
ENDBRANCH   1  20
TORSDOF 7
ENDMDL
MODEL 2
REMARK VINA RESULT:      -8.3      5.006      9.344
REMARK  7 active torsions:
REMARK  status: ('A' for Active; 'I' for Inactive)
REMARK    1  A    between atoms: C_2  and  C_3 
REMARK    2  A    between atoms: C_3  and  C_4 
REMARK    3  A    between atoms: C_3  and  C_12 
REMARK    4  A    between atoms: C_7  and  O_8 
REMARK    5  A    between atoms: C_12  and  C_13 
REMARK       I    between atoms: C_13  and  N_14 
REMARK    6  A    between atoms: N_14  and  C_15 
REMARK    7  A    between atoms: C_22  and  C_23 
REMARK       I    between atoms: C_23  and  N_24 
ROOT
HETATM    1  C   UNL     1      43.557 -12.200   3.990  1.00  0.00     0.222 C 
HETATM    2  N   UNL     1      43.542 -12.499   5.347  1.00  0.00    -0.327 N 
HETATM    3  O   UNL     1      43.995 -11.169   3.500  1.00  0.00    -0.273 OA
HETATM    4  H   UNL     1      42.983 -13.293   5.632  1.00  0.00     0.169 HD
ENDROOT
BRANCH   2   5
HETATM    5  C   UNL     1      44.109 -11.729   6.386  1.00  0.00     0.035 A 
HETATM    6  C   UNL     1      43.348 -11.110   7.389  1.00  0.00     0.046 A 
HETATM    7  C   UNL     1      43.996 -10.353   8.388  1.00  0.00     0.030 A 
HETATM    8  C   UNL     1      45.380 -10.249   8.360  1.00  0.00     0.063 A 
HETATM    9  C   UNL     1      43.588  -9.583   9.519  1.00  0.00     0.156 A 
HETATM   10  N   UNL     1      45.707  -9.488   9.447  1.00  0.00    -0.277 N 
HETATM   11  C   UNL     1      46.169 -10.843   7.372  1.00  0.00     0.034 A 
HETATM   12  H   UNL     1      46.636  -9.215   9.748  1.00  0.00     0.189 HD
HETATM   13  N   UNL     1      44.656  -9.062  10.166  1.00  0.00    -0.168 NA
HETATM   14  C   UNL     1      45.502 -11.573   6.379  1.00  0.00     0.032 A 
BRANCH   9  15
HETATM   15  C   UNL     1      42.217  -9.328   9.983  1.00  0.00     0.270 C 
HETATM   16  N   UNL     1      41.813 -10.140  11.008  1.00  0.00    -0.365 N 
HETATM   17  H   UNL     1      42.469 -10.818  11.377  1.00  0.00     0.159 HD
HETATM   18  H   UNL     1      40.899 -10.015  11.410  1.00  0.00     0.159 HD
HETATM   19  O   UNL     1      41.473  -8.467   9.528  1.00  0.00    -0.266 OA
ENDBRANCH   9  15
ENDBRANCH   2   5
BRANCH   1  20
HETATM   20  C   UNL     1      42.897 -13.304   3.171  1.00  0.00     0.112 C 
BRANCH  20  21
HETATM   21  C   UNL     1      42.152 -14.426   3.925  1.00  0.00     0.027 C 
BRANCH  21  22
HETATM   22  C   UNL     1      40.616 -14.352   3.785  1.00  0.00     0.005 C 
HETATM   23  C   UNL     1      40.144 -13.051   3.145  1.00  0.00     0.006 C 
ENDBRANCH  21  22
BRANCH  21  24
HETATM   24  C   UNL     1      42.725 -15.813   3.663  1.00  0.00    -0.053 A 
HETATM   25  C   UNL     1      42.499 -16.505   2.468  1.00  0.00     0.010 A 
HETATM   26  C   UNL     1      43.017 -17.790   2.276  1.00  0.00     0.037 A 
HETATM   27  C   UNL     1      43.756 -18.420   3.276  1.00  0.00     0.068 A 
HETATM   28  C   UNL     1      43.999 -17.738   4.466  1.00  0.00     0.037 A 
HETATM   29  C   UNL     1      43.490 -16.446   4.655  1.00  0.00     0.010 A 
BRANCH  27  30
HETATM   30  O   UNL     1      44.184 -19.681   2.968  1.00  0.00    -0.356 OA
HETATM   31  C   UNL     1      43.485 -20.355   1.931  1.00  0.00     0.210 C 
ENDBRANCH  27  30
ENDBRANCH  21  24
ENDBRANCH  20  21
ENDBRANCH   1  20
TORSDOF 7
ENDMDL
MODEL 3
REMARK VINA RESULT:      -8.3      1.882      3.672
REMARK  7 active torsions:
REMARK  status: ('A' for Active; 'I' for Inactive)
REMARK    1  A    between atoms: C_2  and  C_3 
REMARK    2  A    between atoms: C_3  and  C_4 
REMARK    3  A    between atoms: C_3  and  C_12 
REMARK    4  A    between atoms: C_7  and  O_8 
REMARK    5  A    between atoms: C_12  and  C_13 
REMARK       I    between atoms: C_13  and  N_14 
REMARK    6  A    between atoms: N_14  and  C_15 
REMARK    7  A    between atoms: C_22  and  C_23 
REMARK       I    between atoms: C_23  and  N_24 
ROOT
HETATM    1  C   UNL     1      41.736 -14.515   1.302  1.00  0.00     0.222 C 
HETATM    2  N   UNL     1      41.529 -13.295   0.668  1.00  0.00    -0.327 N 
HETATM    3  O   UNL     1      40.907 -15.407   1.402  1.00  0.00    -0.273 OA
HETATM    4  H   UNL     1      42.225 -12.578   0.822  1.00  0.00     0.169 HD
ENDROOT
BRANCH   2   5
HETATM    5  C   UNL     1      40.378 -12.905  -0.053  1.00  0.00     0.035 A 
HETATM    6  C   UNL     1      39.807 -13.684  -1.070  1.00  0.00     0.046 A 
HETATM    7  C   UNL     1      38.659 -13.217  -1.744  1.00  0.00     0.030 A 
HETATM    8  C   UNL     1      38.113 -11.995  -1.373  1.00  0.00     0.063 A 
HETATM    9  C   UNL     1      37.830 -13.686  -2.808  1.00  0.00     0.156 A 
HETATM   10  N   UNL     1      37.020 -11.829  -2.175  1.00  0.00    -0.277 N 
HETATM   11  C   UNL     1      38.661 -11.188  -0.373  1.00  0.00     0.034 A 
HETATM   12  H   UNL     1      36.370 -11.051  -2.175  1.00  0.00     0.189 HD
HETATM   13  N   UNL     1      36.818 -12.822  -3.057  1.00  0.00    -0.168 NA
HETATM   14  C   UNL     1      39.813 -11.664   0.268  1.00  0.00     0.032 A 
BRANCH   9  15
HETATM   15  C   UNL     1      37.987 -14.921  -3.589  1.00  0.00     0.270 C 
HETATM   16  N   UNL     1      38.214 -16.037  -2.831  1.00  0.00    -0.365 N 
HETATM   17  H   UNL     1      38.234 -15.944  -1.823  1.00  0.00     0.159 HD
HETATM   18  H   UNL     1      38.303 -16.933  -3.281  1.00  0.00     0.159 HD
HETATM   19  O   UNL     1      37.917 -14.989  -4.811  1.00  0.00    -0.266 OA
ENDBRANCH   9  15
ENDBRANCH   2   5
BRANCH   1  20
HETATM   20  C   UNL     1      43.128 -14.588   1.922  1.00  0.00     0.112 C 
BRANCH  20  21
HETATM   21  C   UNL     1      43.245 -15.004   3.404  1.00  0.00     0.027 C 
BRANCH  21  22
HETATM   22  C   UNL     1      42.116 -14.442   4.295  1.00  0.00     0.005 C 
HETATM   23  C   UNL     1      42.619 -13.432   5.321  1.00  0.00     0.006 C 
ENDBRANCH  21  22
BRANCH  21  24
HETATM   24  C   UNL     1      43.493 -16.494   3.594  1.00  0.00    -0.053 A 
HETATM   25  C   UNL     1      43.450 -17.404   2.532  1.00  0.00     0.010 A 
HETATM   26  C   UNL     1      43.653 -18.771   2.750  1.00  0.00     0.037 A 
HETATM   27  C   UNL     1      43.886 -19.262   4.034  1.00  0.00     0.068 A 
HETATM   28  C   UNL     1      43.944 -18.367   5.099  1.00  0.00     0.037 A 
HETATM   29  C   UNL     1      43.751 -16.996   4.880  1.00  0.00     0.010 A 
BRANCH  27  30
HETATM   30  O   UNL     1      44.046 -20.617   4.111  1.00  0.00    -0.356 OA
HETATM   31  C   UNL     1      44.279 -21.157   5.405  1.00  0.00     0.210 C 
ENDBRANCH  27  30
ENDBRANCH  21  24
ENDBRANCH  20  21
ENDBRANCH   1  20
TORSDOF 7
ENDMDL
MODEL 4
REMARK VINA RESULT:      -8.2      1.712      2.215
REMARK  7 active torsions:
REMARK  status: ('A' for Active; 'I' for Inactive)
REMARK    1  A    between atoms: C_2  and  C_3 
REMARK    2  A    between atoms: C_3  and  C_4 
REMARK    3  A    between atoms: C_3  and  C_12 
REMARK    4  A    between atoms: C_7  and  O_8 
REMARK    5  A    between atoms: C_12  and  C_13 
REMARK       I    between atoms: C_13  and  N_14 
REMARK    6  A    between atoms: N_14  and  C_15 
REMARK    7  A    between atoms: C_22  and  C_23 
REMARK       I    between atoms: C_23  and  N_24 
ROOT
HETATM    1  C   UNL     1      43.075 -16.864   2.330  1.00  0.00     0.222 C 
HETATM    2  N   UNL     1      41.690 -16.748   2.289  1.00  0.00    -0.327 N 
HETATM    3  O   UNL     1      43.866 -16.017   1.941  1.00  0.00    -0.273 OA
HETATM    4  H   UNL     1      41.158 -17.590   2.462  1.00  0.00     0.169 HD
ENDROOT
BRANCH   2   5
HETATM    5  C   UNL     1      40.952 -15.611   1.892  1.00  0.00     0.035 A 
HETATM    6  C   UNL     1      40.556 -15.375   0.567  1.00  0.00     0.046 A 
HETATM    7  C   UNL     1      39.824 -14.210   0.255  1.00  0.00     0.030 A 
HETATM    8  C   UNL     1      39.501 -13.327   1.277  1.00  0.00     0.063 A 
HETATM    9  C   UNL     1      39.280 -13.624  -0.928  1.00  0.00     0.156 A 
HETATM   10  N   UNL     1      38.786 -12.328   0.679  1.00  0.00    -0.277 N 
HETATM   11  C   UNL     1      39.887 -13.524   2.605  1.00  0.00     0.034 A 
HETATM   12  H   UNL     1      38.376 -11.514   1.124  1.00  0.00     0.189 HD
HETATM   13  N   UNL     1      38.636 -12.467  -0.649  1.00  0.00    -0.168 NA
HETATM   14  C   UNL     1      40.630 -14.678   2.886  1.00  0.00     0.032 A 
BRANCH   9  15
HETATM   15  C   UNL     1      39.371 -14.133  -2.303  1.00  0.00     0.270 C 
HETATM   16  N   UNL     1      38.483 -15.133  -2.590  1.00  0.00    -0.365 N 
HETATM   17  H   UNL     1      37.833 -15.427  -1.869  1.00  0.00     0.159 HD
HETATM   18  H   UNL     1      38.453 -15.521  -3.518  1.00  0.00     0.159 HD
HETATM   19  O   UNL     1      40.151 -13.718  -3.153  1.00  0.00    -0.266 OA
ENDBRANCH   9  15
ENDBRANCH   2   5
BRANCH   1  20
HETATM   20  C   UNL     1      43.502 -18.224   2.873  1.00  0.00     0.112 C 
BRANCH  20  21
HETATM   21  C   UNL     1      43.296 -18.506   4.377  1.00  0.00     0.027 C 
BRANCH  21  22
HETATM   22  C   UNL     1      44.199 -19.634   4.923  1.00  0.00     0.005 C 
HETATM   23  C   UNL     1      43.821 -21.008   4.381  1.00  0.00     0.006 C 
ENDBRANCH  21  22
BRANCH  21  24
HETATM   24  C   UNL     1      43.301 -17.247   5.233  1.00  0.00    -0.053 A 
HETATM   25  C   UNL     1      44.481 -16.577   5.577  1.00  0.00     0.010 A 
HETATM   26  C   UNL     1      44.449 -15.441   6.391  1.00  0.00     0.037 A 
HETATM   27  C   UNL     1      43.242 -14.956   6.894  1.00  0.00     0.068 A 
HETATM   28  C   UNL     1      42.059 -15.605   6.550  1.00  0.00     0.037 A 
HETATM   29  C   UNL     1      42.089 -16.738   5.726  1.00  0.00     0.010 A 
BRANCH  27  30
HETATM   30  O   UNL     1      43.353 -13.853   7.693  1.00  0.00    -0.356 OA
HETATM   31  C   UNL     1      43.872 -12.677   7.087  1.00  0.00     0.210 C 
ENDBRANCH  27  30
ENDBRANCH  21  24
ENDBRANCH  20  21
ENDBRANCH   1  20
TORSDOF 7
ENDMDL
MODEL 5
REMARK VINA RESULT:      -8.2      3.836      7.882
REMARK  7 active torsions:
REMARK  status: ('A' for Active; 'I' for Inactive)
REMARK    1  A    between atoms: C_2  and  C_3 
REMARK    2  A    between atoms: C_3  and  C_4 
REMARK    3  A    between atoms: C_3  and  C_12 
REMARK    4  A    between atoms: C_7  and  O_8 
REMARK    5  A    between atoms: C_12  and  C_13 
REMARK       I    between atoms: C_13  and  N_14 
REMARK    6  A    between atoms: N_14  and  C_15 
REMARK    7  A    between atoms: C_22  and  C_23 
REMARK       I    between atoms: C_23  and  N_24 
ROOT
HETATM    1  C   UNL     1      42.941 -16.615   5.029  1.00  0.00     0.222 C 
HETATM    2  N   UNL     1      43.486 -15.359   4.789  1.00  0.00    -0.327 N 
HETATM    3  O   UNL     1      42.050 -16.855   5.831  1.00  0.00    -0.273 OA
HETATM    4  H   UNL     1      44.339 -15.330   4.246  1.00  0.00     0.169 HD
ENDROOT
BRANCH   2   5
HETATM    5  C   UNL     1      43.055 -14.133   5.342  1.00  0.00     0.035 A 
HETATM    6  C   UNL     1      43.889 -13.291   6.091  1.00  0.00     0.046 A 
HETATM    7  C   UNL     1      43.375 -12.085   6.613  1.00  0.00     0.030 A 
HETATM    8  C   UNL     1      42.051 -11.754   6.358  1.00  0.00     0.063 A 
HETATM    9  C   UNL     1      43.878 -11.015   7.413  1.00  0.00     0.156 A 
HETATM   10  N   UNL     1      41.858 -10.544   6.963  1.00  0.00    -0.277 N 
HETATM   11  C   UNL     1      41.189 -12.573   5.625  1.00  0.00     0.034 A 
HETATM   12  H   UNL     1      41.008  -9.992   6.974  1.00  0.00     0.189 HD
HETATM   13  N   UNL     1      42.933 -10.068   7.613  1.00  0.00    -0.168 NA
HETATM   14  C   UNL     1      41.716 -13.775   5.135  1.00  0.00     0.032 A 
BRANCH   9  15
HETATM   15  C   UNL     1      45.223 -10.884   7.991  1.00  0.00     0.270 C 
HETATM   16  N   UNL     1      46.210 -10.667   7.069  1.00  0.00    -0.365 N 
HETATM   17  H   UNL     1      45.954 -10.592   6.091  1.00  0.00     0.159 HD
HETATM   18  H   UNL     1      47.159 -10.534   7.379  1.00  0.00     0.159 HD
HETATM   19  O   UNL     1      45.478 -10.944   9.188  1.00  0.00    -0.266 OA
ENDBRANCH   9  15
ENDBRANCH   2   5
BRANCH   1  20
HETATM   20  C   UNL     1      43.637 -17.690   4.201  1.00  0.00     0.112 C 
BRANCH  20  21
HETATM   21  C   UNL     1      43.352 -17.742   2.685  1.00  0.00     0.027 C 
BRANCH  21  22
HETATM   22  C   UNL     1      42.951 -19.144   2.178  1.00  0.00     0.005 C 
HETATM   23  C   UNL     1      43.757 -20.261   2.832  1.00  0.00     0.006 C 
ENDBRANCH  21  22
BRANCH  21  24
HETATM   24  C   UNL     1      42.428 -16.629   2.206  1.00  0.00    -0.053 A 
HETATM   25  C   UNL     1      42.911 -15.450   1.627  1.00  0.00     0.010 A 
HETATM   26  C   UNL     1      42.033 -14.437   1.228  1.00  0.00     0.037 A 
HETATM   27  C   UNL     1      40.658 -14.569   1.414  1.00  0.00     0.068 A 
HETATM   28  C   UNL     1      40.162 -15.742   1.979  1.00  0.00     0.037 A 
HETATM   29  C   UNL     1      41.040 -16.762   2.369  1.00  0.00     0.010 A 
BRANCH  27  30
HETATM   30  O   UNL     1      39.915 -13.498   1.001  1.00  0.00    -0.356 OA
HETATM   31  C   UNL     1      40.000 -13.158  -0.377  1.00  0.00     0.210 C 
ENDBRANCH  27  30
ENDBRANCH  21  24
ENDBRANCH  20  21
ENDBRANCH   1  20
TORSDOF 7
ENDMDL
MODEL 6
REMARK VINA RESULT:      -8.2      2.076      4.234
REMARK  7 active torsions:
REMARK  status: ('A' for Active; 'I' for Inactive)
REMARK    1  A    between atoms: C_2  and  C_3 
REMARK    2  A    between atoms: C_3  and  C_4 
REMARK    3  A    between atoms: C_3  and  C_12 
REMARK    4  A    between atoms: C_7  and  O_8 
REMARK    5  A    between atoms: C_12  and  C_13 
REMARK       I    between atoms: C_13  and  N_14 
REMARK    6  A    between atoms: N_14  and  C_15 
REMARK    7  A    between atoms: C_22  and  C_23 
REMARK       I    between atoms: C_23  and  N_24 
ROOT
HETATM    1  C   UNL     1      41.291 -13.319   3.759  1.00  0.00     0.222 C 
HETATM    2  N   UNL     1      40.231 -13.755   2.973  1.00  0.00    -0.327 N 
HETATM    3  O   UNL     1      41.926 -12.290   3.579  1.00  0.00    -0.273 OA
HETATM    4  H   UNL     1      39.922 -14.708   3.115  1.00  0.00     0.169 HD
ENDROOT
BRANCH   2   5
HETATM    5  C   UNL     1      39.635 -13.057   1.900  1.00  0.00     0.035 A 
HETATM    6  C   UNL     1      39.963 -13.286   0.556  1.00  0.00     0.046 A 
HETATM    7  C   UNL     1      39.322 -12.539  -0.455  1.00  0.00     0.030 A 
HETATM    8  C   UNL     1      38.367 -11.599  -0.092  1.00  0.00     0.063 A 
HETATM    9  C   UNL     1      39.395 -12.464  -1.879  1.00  0.00     0.156 A 
HETATM   10  N   UNL     1      37.919 -11.066  -1.268  1.00  0.00    -0.277 N 
HETATM   11  C   UNL     1      38.022 -11.337   1.236  1.00  0.00     0.034 A 
HETATM   12  H   UNL     1      37.207 -10.355  -1.388  1.00  0.00     0.189 HD
HETATM   13  N   UNL     1      38.517 -11.556  -2.366  1.00  0.00    -0.168 NA
HETATM   14  C   UNL     1      38.687 -12.077   2.224  1.00  0.00     0.032 A 
BRANCH   9  15
HETATM   15  C   UNL     1      40.281 -13.224  -2.773  1.00  0.00     0.270 C 
HETATM   16  N   UNL     1      41.455 -12.587  -3.069  1.00  0.00    -0.365 N 
HETATM   17  H   UNL     1      41.636 -11.683  -2.651  1.00  0.00     0.159 HD
HETATM   18  H   UNL     1      42.137 -13.048  -3.650  1.00  0.00     0.159 HD
HETATM   19  O   UNL     1      40.032 -14.336  -3.224  1.00  0.00    -0.266 OA
ENDBRANCH   9  15
ENDBRANCH   2   5
BRANCH   1  20
HETATM   20  C   UNL     1      41.615 -14.323   4.861  1.00  0.00     0.112 C 
BRANCH  20  21
HETATM   21  C   UNL     1      43.087 -14.749   5.050  1.00  0.00     0.027 C 
BRANCH  21  22
HETATM   22  C   UNL     1      43.607 -14.554   6.491  1.00  0.00     0.005 C 
HETATM   23  C   UNL     1      43.816 -13.087   6.850  1.00  0.00     0.006 C 
ENDBRANCH  21  22
BRANCH  21  24
HETATM   24  C   UNL     1      43.397 -16.121   4.466  1.00  0.00    -0.053 A 
HETATM   25  C   UNL     1      43.099 -16.457   3.140  1.00  0.00     0.010 A 
HETATM   26  C   UNL     1      43.371 -17.738   2.648  1.00  0.00     0.037 A 
HETATM   27  C   UNL     1      43.928 -18.716   3.469  1.00  0.00     0.068 A 
HETATM   28  C   UNL     1      44.241 -18.392   4.788  1.00  0.00     0.037 A 
HETATM   29  C   UNL     1      43.980 -17.106   5.279  1.00  0.00     0.010 A 
BRANCH  27  30
HETATM   30  O   UNL     1      44.122 -19.929   2.871  1.00  0.00    -0.356 OA
HETATM   31  C   UNL     1      43.177 -20.308   1.880  1.00  0.00     0.210 C 
ENDBRANCH  27  30
ENDBRANCH  21  24
ENDBRANCH  20  21
ENDBRANCH   1  20
TORSDOF 7
ENDMDL
MODEL 7
REMARK VINA RESULT:      -8.2      4.483      8.401
REMARK  7 active torsions:
REMARK  status: ('A' for Active; 'I' for Inactive)
REMARK    1  A    between atoms: C_2  and  C_3 
REMARK    2  A    between atoms: C_3  and  C_4 
REMARK    3  A    between atoms: C_3  and  C_12 
REMARK    4  A    between atoms: C_7  and  O_8 
REMARK    5  A    between atoms: C_12  and  C_13 
REMARK       I    between atoms: C_13  and  N_14 
REMARK    6  A    between atoms: N_14  and  C_15 
REMARK    7  A    between atoms: C_22  and  C_23 
REMARK       I    between atoms: C_23  and  N_24 
ROOT
HETATM    1  C   UNL     1      43.051 -12.484   3.175  1.00  0.00     0.222 C 
HETATM    2  N   UNL     1      42.594 -12.720   4.466  1.00  0.00    -0.327 N 
HETATM    3  O   UNL     1      43.171 -11.382   2.660  1.00  0.00    -0.273 OA
HETATM    4  H   UNL     1      42.362 -13.676   4.699  1.00  0.00     0.169 HD
ENDROOT
BRANCH   2   5
HETATM    5  C   UNL     1      42.285 -11.746   5.442  1.00  0.00     0.035 A 
HETATM    6  C   UNL     1      43.259 -11.072   6.192  1.00  0.00     0.046 A 
HETATM    7  C   UNL     1      42.863 -10.116   7.151  1.00  0.00     0.030 A 
HETATM    8  C   UNL     1      41.509  -9.857   7.321  1.00  0.00     0.063 A 
HETATM    9  C   UNL     1      43.524  -9.270   8.092  1.00  0.00     0.156 A 
HETATM   10  N   UNL     1      41.445  -8.890   8.284  1.00  0.00    -0.277 N 
HETATM   11  C   UNL     1      40.511 -10.516   6.599  1.00  0.00     0.034 A 
HETATM   12  H   UNL     1      40.611  -8.448   8.655  1.00  0.00     0.189 HD
HETATM   13  N   UNL     1      42.636  -8.513   8.778  1.00  0.00    -0.168 NA
HETATM   14  C   UNL     1      40.928 -11.475   5.667  1.00  0.00     0.032 A 
BRANCH   9  15
HETATM   15  C   UNL     1      44.967  -9.177   8.355  1.00  0.00     0.270 C 
HETATM   16  N   UNL     1      45.537 -10.349   8.771  1.00  0.00    -0.365 N 
HETATM   17  H   UNL     1      44.952 -11.174   8.844  1.00  0.00     0.159 HD
HETATM   18  H   UNL     1      46.528 -10.386   8.944  1.00  0.00     0.159 HD
HETATM   19  O   UNL     1      45.640  -8.162   8.214  1.00  0.00    -0.266 OA
ENDBRANCH   9  15
ENDBRANCH   2   5
BRANCH   1  20
HETATM   20  C   UNL     1      43.334 -13.790   2.440  1.00  0.00     0.112 C 
BRANCH  20  21
HETATM   21  C   UNL     1      42.310 -14.937   2.568  1.00  0.00     0.027 C 
BRANCH  21  22
HETATM   22  C   UNL     1      41.428 -15.122   1.315  1.00  0.00     0.005 C 
HETATM   23  C   UNL     1      40.017 -15.596   1.650  1.00  0.00     0.006 C 
ENDBRANCH  21  22
BRANCH  21  24
HETATM   24  C   UNL     1      42.919 -16.233   3.087  1.00  0.00    -0.053 A 
HETATM   25  C   UNL     1      43.085 -17.362   2.276  1.00  0.00     0.010 A 
HETATM   26  C   UNL     1      43.620 -18.545   2.797  1.00  0.00     0.037 A 
HETATM   27  C   UNL     1      43.983 -18.635   4.139  1.00  0.00     0.068 A 
HETATM   28  C   UNL     1      43.834 -17.516   4.955  1.00  0.00     0.037 A 
HETATM   29  C   UNL     1      43.309 -16.327   4.433  1.00  0.00     0.010 A 
BRANCH  27  30
HETATM   30  O   UNL     1      44.471 -19.853   4.523  1.00  0.00    -0.356 OA
HETATM   31  C   UNL     1      43.931 -20.991   3.866  1.00  0.00     0.210 C 
ENDBRANCH  27  30
ENDBRANCH  21  24
ENDBRANCH  20  21
ENDBRANCH   1  20
TORSDOF 7
ENDMDL
MODEL 8
REMARK VINA RESULT:      -8.0      4.206      8.255
REMARK  7 active torsions:
REMARK  status: ('A' for Active; 'I' for Inactive)
REMARK    1  A    between atoms: C_2  and  C_3 
REMARK    2  A    between atoms: C_3  and  C_4 
REMARK    3  A    between atoms: C_3  and  C_12 
REMARK    4  A    between atoms: C_7  and  O_8 
REMARK    5  A    between atoms: C_12  and  C_13 
REMARK       I    between atoms: C_13  and  N_14 
REMARK    6  A    between atoms: N_14  and  C_15 
REMARK    7  A    between atoms: C_22  and  C_23 
REMARK       I    between atoms: C_23  and  N_24 
ROOT
HETATM    1  C   UNL     1      44.049 -11.947   7.147  1.00  0.00     0.222 C 
HETATM    2  N   UNL     1      43.128 -12.984   7.236  1.00  0.00    -0.327 N 
HETATM    3  O   UNL     1      45.122 -12.005   6.565  1.00  0.00    -0.273 OA
HETATM    4  H   UNL     1      42.376 -12.868   7.902  1.00  0.00     0.169 HD
ENDROOT
BRANCH   2   5
HETATM    5  C   UNL     1      43.210 -14.241   6.598  1.00  0.00     0.035 A 
HETATM    6  C   UNL     1      43.018 -14.418   5.220  1.00  0.00     0.046 A 
HETATM    7  C   UNL     1      43.113 -15.711   4.663  1.00  0.00     0.030 A 
HETATM    8  C   UNL     1      43.409 -16.781   5.498  1.00  0.00     0.063 A 
HETATM    9  C   UNL     1      42.966 -16.284   3.364  1.00  0.00     0.156 A 
HETATM   10  N   UNL     1      43.454 -17.875   4.680  1.00  0.00    -0.277 N 
HETATM   11  C   UNL     1      43.596 -16.644   6.875  1.00  0.00     0.034 A 
HETATM   12  H   UNL     1      43.656 -18.832   4.947  1.00  0.00     0.189 HD
HETATM   13  N   UNL     1      43.188 -17.619   3.389  1.00  0.00    -0.168 NA
HETATM   14  C   UNL     1      43.477 -15.353   7.408  1.00  0.00     0.032 A 
BRANCH   9  15
HETATM   15  C   UNL     1      42.613 -15.594   2.115  1.00  0.00     0.270 C 
HETATM   16  N   UNL     1      43.657 -14.935   1.525  1.00  0.00    -0.365 N 
HETATM   17  H   UNL     1      44.571 -14.985   1.960  1.00  0.00     0.159 HD
HETATM   18  H   UNL     1      43.513 -14.460   0.649  1.00  0.00     0.159 HD
HETATM   19  O   UNL     1      41.497 -15.594   1.607  1.00  0.00    -0.266 OA
ENDBRANCH   9  15
ENDBRANCH   2   5
BRANCH   1  20
HETATM   20  C   UNL     1      43.583 -10.722   7.928  1.00  0.00     0.112 C 
BRANCH  20  21
HETATM   21  C   UNL     1      44.565 -10.077   8.928  1.00  0.00     0.027 C 
BRANCH  21  22
HETATM   22  C   UNL     1      45.381  -8.911   8.329  1.00  0.00     0.005 C 
HETATM   23  C   UNL     1      46.800  -9.318   7.945  1.00  0.00     0.006 C 
ENDBRANCH  21  22
BRANCH  21  24
HETATM   24  C   UNL     1      43.930  -9.753  10.274  1.00  0.00    -0.053 A 
HETATM   25  C   UNL     1      43.717  -8.440  10.707  1.00  0.00     0.010 A 
HETATM   26  C   UNL     1      43.159  -8.182  11.963  1.00  0.00     0.037 A 
HETATM   27  C   UNL     1      42.817  -9.225  12.822  1.00  0.00     0.068 A 
HETATM   28  C   UNL     1      43.013 -10.538  12.399  1.00  0.00     0.037 A 
HETATM   29  C   UNL     1      43.562 -10.798  11.137  1.00  0.00     0.010 A 
BRANCH  27  30
HETATM   30  O   UNL     1      42.302  -8.835  14.026  1.00  0.00    -0.356 OA
HETATM   31  C   UNL     1      40.901  -8.995  14.201  1.00  0.00     0.210 C 
ENDBRANCH  27  30
ENDBRANCH  21  24
ENDBRANCH  20  21
ENDBRANCH   1  20
TORSDOF 7
ENDMDL
MODEL 9
REMARK VINA RESULT:      -7.9      3.026      4.559
REMARK  7 active torsions:
REMARK  status: ('A' for Active; 'I' for Inactive)
REMARK    1  A    between atoms: C_2  and  C_3 
REMARK    2  A    between atoms: C_3  and  C_4 
REMARK    3  A    between atoms: C_3  and  C_12 
REMARK    4  A    between atoms: C_7  and  O_8 
REMARK    5  A    between atoms: C_12  and  C_13 
REMARK       I    between atoms: C_13  and  N_14 
REMARK    6  A    between atoms: N_14  and  C_15 
REMARK    7  A    between atoms: C_22  and  C_23 
REMARK       I    between atoms: C_23  and  N_24 
ROOT
HETATM    1  C   UNL     1      41.828 -13.274   1.180  1.00  0.00     0.222 C 
HETATM    2  N   UNL     1      41.325 -13.707  -0.041  1.00  0.00    -0.327 N 
HETATM    3  O   UNL     1      41.638 -12.170   1.670  1.00  0.00    -0.273 OA
HETATM    4  H   UNL     1      41.711 -14.564  -0.414  1.00  0.00     0.169 HD
ENDROOT
BRANCH   2   5
HETATM    5  C   UNL     1      40.435 -13.004  -0.883  1.00  0.00     0.035 A 
HETATM    6  C   UNL     1      40.815 -11.887  -1.641  1.00  0.00     0.046 A 
HETATM    7  C   UNL     1      39.861 -11.239  -2.454  1.00  0.00     0.030 A 
HETATM    8  C   UNL     1      38.564 -11.734  -2.491  1.00  0.00     0.063 A 
HETATM    9  C   UNL     1      39.850 -10.104  -3.320  1.00  0.00     0.156 A 
HETATM   10  N   UNL     1      37.893 -10.926  -3.365  1.00  0.00    -0.277 N 
HETATM   11  C   UNL     1      38.148 -12.837  -1.742  1.00  0.00     0.034 A 
HETATM   12  H   UNL     1      36.922 -10.998  -3.647  1.00  0.00     0.189 HD
HETATM   13  N   UNL     1      38.631  -9.929  -3.881  1.00  0.00    -0.168 NA
HETATM   14  C   UNL     1      39.108 -13.452  -0.927  1.00  0.00     0.032 A 
BRANCH   9  15
HETATM   15  C   UNL     1      40.962  -9.189  -3.612  1.00  0.00     0.270 C 
HETATM   16  N   UNL     1      41.183  -8.985  -4.947  1.00  0.00    -0.365 N 
HETATM   17  H   UNL     1      40.575  -9.443  -5.616  1.00  0.00     0.159 HD
HETATM   18  H   UNL     1      41.906  -8.348  -5.239  1.00  0.00     0.159 HD
HETATM   19  O   UNL     1      41.647  -8.628  -2.765  1.00  0.00    -0.266 OA
ENDBRANCH   9  15
ENDBRANCH   2   5
BRANCH   1  20
HETATM   20  C   UNL     1      42.711 -14.338   1.826  1.00  0.00     0.112 C 
BRANCH  20  21
HETATM   21  C   UNL     1      42.264 -14.935   3.177  1.00  0.00     0.027 C 
BRANCH  21  22
HETATM   22  C   UNL     1      40.748 -14.802   3.441  1.00  0.00     0.005 C 
HETATM   23  C   UNL     1      39.919 -15.802   2.641  1.00  0.00     0.006 C 
ENDBRANCH  21  22
BRANCH  21  24
HETATM   24  C   UNL     1      42.810 -16.334   3.427  1.00  0.00    -0.053 A 
HETATM   25  C   UNL     1      43.119 -16.802   4.710  1.00  0.00     0.010 A 
HETATM   26  C   UNL     1      43.648 -18.082   4.898  1.00  0.00     0.037 A 
HETATM   27  C   UNL     1      43.898 -18.919   3.811  1.00  0.00     0.068 A 
HETATM   28  C   UNL     1      43.585 -18.472   2.530  1.00  0.00     0.037 A 
HETATM   29  C   UNL     1      43.045 -17.193   2.341  1.00  0.00     0.010 A 
BRANCH  27  30
HETATM   30  O   UNL     1      44.436 -20.134   4.131  1.00  0.00    -0.356 OA
HETATM   31  C   UNL     1      44.121 -20.651   5.417  1.00  0.00     0.210 C 
ENDBRANCH  27  30
ENDBRANCH  21  24
ENDBRANCH  20  21
ENDBRANCH   1  20
TORSDOF 7
ENDMDL
MODEL 10
REMARK VINA RESULT:      -7.8      5.285      8.768
REMARK  7 active torsions:
REMARK  status: ('A' for Active; 'I' for Inactive)
REMARK    1  A    between atoms: C_2  and  C_3 
REMARK    2  A    between atoms: C_3  and  C_4 
REMARK    3  A    between atoms: C_3  and  C_12 
REMARK    4  A    between atoms: C_7  and  O_8 
REMARK    5  A    between atoms: C_12  and  C_13 
REMARK       I    between atoms: C_13  and  N_14 
REMARK    6  A    between atoms: N_14  and  C_15 
REMARK    7  A    between atoms: C_22  and  C_23 
REMARK       I    between atoms: C_23  and  N_24 
ROOT
HETATM    1  C   UNL     1      43.903 -11.644   7.329  1.00  0.00     0.222 C 
HETATM    2  N   UNL     1      42.826 -12.266   6.709  1.00  0.00    -0.327 N 
HETATM    3  O   UNL     1      45.069 -12.001   7.244  1.00  0.00    -0.273 OA
HETATM    4  H   UNL     1      41.903 -11.988   7.014  1.00  0.00     0.169 HD
ENDROOT
BRANCH   2   5
HETATM    5  C   UNL     1      42.886 -13.345   5.800  1.00  0.00     0.035 A 
HETATM    6  C   UNL     1      43.014 -14.683   6.201  1.00  0.00     0.046 A 
HETATM    7  C   UNL     1      43.072 -15.701   5.226  1.00  0.00     0.030 A 
HETATM    8  C   UNL     1      42.988 -15.351   3.885  1.00  0.00     0.063 A 
HETATM    9  C   UNL     1      43.217 -17.121   5.231  1.00  0.00     0.156 A 
HETATM   10  N   UNL     1      43.049 -16.531   3.199  1.00  0.00    -0.277 N 
HETATM   11  C   UNL     1      42.871 -14.029   3.448  1.00  0.00     0.034 A 
HETATM   12  H   UNL     1      43.006 -16.661   2.195  1.00  0.00     0.189 HD
HETATM   13  N   UNL     1      43.194 -17.620   3.973  1.00  0.00    -0.168 NA
HETATM   14  C   UNL     1      42.835 -13.035   4.435  1.00  0.00     0.032 A 
BRANCH   9  15
HETATM   15  C   UNL     1      43.387 -18.001   6.397  1.00  0.00     0.270 C 
HETATM   16  N   UNL     1      43.574 -17.335   7.577  1.00  0.00    -0.365 N 
HETATM   17  H   UNL     1      43.561 -16.322   7.571  1.00  0.00     0.159 HD
HETATM   18  H   UNL     1      43.668 -17.858   8.432  1.00  0.00     0.159 HD
HETATM   19  O   UNL     1      43.357 -19.225   6.358  1.00  0.00    -0.266 OA
ENDBRANCH   9  15
ENDBRANCH   2   5
BRANCH   1  20
HETATM   20  C   UNL     1      43.445 -10.474   8.195  1.00  0.00     0.112 C 
BRANCH  20  21
HETATM   21  C   UNL     1      44.431  -9.911   9.241  1.00  0.00     0.027 C 
BRANCH  21  22
HETATM   22  C   UNL     1      45.305  -8.756   8.706  1.00  0.00     0.005 C 
HETATM   23  C   UNL     1      46.576  -9.246   8.019  1.00  0.00     0.006 C 
ENDBRANCH  21  22
BRANCH  21  24
HETATM   24  C   UNL     1      43.780  -9.616  10.586  1.00  0.00    -0.053 A 
HETATM   25  C   UNL     1      43.575  -8.312  11.051  1.00  0.00     0.010 A 
HETATM   26  C   UNL     1      43.002  -8.081  12.306  1.00  0.00     0.037 A 
HETATM   27  C   UNL     1      42.637  -9.143  13.131  1.00  0.00     0.068 A 
HETATM   28  C   UNL     1      42.824 -10.446  12.677  1.00  0.00     0.037 A 
HETATM   29  C   UNL     1      43.388 -10.679  11.415  1.00  0.00     0.010 A 
BRANCH  27  30
HETATM   30  O   UNL     1      42.109  -8.780  14.338  1.00  0.00    -0.356 OA
HETATM   31  C   UNL     1      42.400  -7.464  14.790  1.00  0.00     0.210 C 
ENDBRANCH  27  30
ENDBRANCH  21  24
ENDBRANCH  20  21
ENDBRANCH   1  20
TORSDOF 7
ENDMDL
