MODEL 1
REMARK VINA RESULT:      -8.1      0.000      0.000
REMARK  9 active torsions:
REMARK  status: ('A' for Active; 'I' for Inactive)
REMARK    1  A    between atoms: C_2  and  N_3 
REMARK    2  A    between atoms: C_2  and  C_23 
REMARK       I    between atoms: N_3  and  C_4 
REMARK       I    between atoms: C_4  and  N_5 
REMARK    3  A    between atoms: N_5  and  C_6 
REMARK    4  A    between atoms: C_6  and  C_7 
REMARK    5  A    between atoms: C_7  and  N_8 
REMARK    6  A    between atoms: C_7  and  C_14 
REMARK    7  A    between atoms: C_15  and  O_16 
REMARK    8  A    between atoms: C_23  and  C_24 
REMARK    9  A    between atoms: C_27  and  O_28 
ROOT
HETATM    1  N   UNL     1      41.466 -14.464   3.394  1.00  0.00    -0.339 N 
HETATM    2  C   UNL     1      41.384 -14.263   2.049  1.00  0.00     0.316 C 
HETATM    3  N   UNL     1      40.994 -12.977   1.755  1.00  0.00    -0.341 N 
HETATM    4  O   UNL     1      41.546 -15.118   1.193  1.00  0.00    -0.248 OA
HETATM    5  H   UNL     1      41.113 -13.731   3.990  1.00  0.00     0.164 HD
HETATM    6  H   UNL     1      41.348 -12.306   2.426  1.00  0.00     0.164 HD
ENDROOT
BRANCH   3   7
HETATM    7  C   UNL     1      41.013 -12.528   0.369  1.00  0.00     0.162 C 
BRANCH   7   8
HETATM    8  C   UNL     1      39.734 -11.819  -0.195  1.00  0.00     0.241 C 
BRANCH   8   9
HETATM    9  N   UNL     1      40.050 -10.403  -0.727  1.00  0.00    -0.061 N 
HETATM   10  H   UNL     1      39.195 -10.037  -1.154  1.00  0.00     0.280 HD
HETATM   11  C   UNL     1      41.141 -10.343  -1.792  1.00  0.00     0.236 C 
HETATM   12  C   UNL     1      42.157  -9.337  -1.281  1.00  0.00     0.029 C 
HETATM   13  C   UNL     1      41.370  -8.447  -0.352  1.00  0.00     0.029 C 
HETATM   14  C   UNL     1      40.479  -9.436   0.365  1.00  0.00     0.236 C 
ENDBRANCH   8   9
BRANCH   8  15
HETATM   15  C   UNL     1      39.152 -12.741  -1.272  1.00  0.00     0.007 A 
HETATM   16  C   UNL     1      37.873 -12.477  -1.804  1.00  0.00     0.076 A 
HETATM   17  C   UNL     1      37.333 -13.322  -2.777  1.00  0.00     0.037 A 
HETATM   18  C   UNL     1      38.041 -14.445  -3.207  1.00  0.00     0.003 A 
HETATM   19  C   UNL     1      39.287 -14.736  -2.663  1.00  0.00     0.001 A 
HETATM   20  C   UNL     1      39.838 -13.897  -1.696  1.00  0.00     0.012 A 
BRANCH  16  21
HETATM   21  O   UNL     1      37.244 -11.364  -1.318  1.00  0.00    -0.355 OA
HETATM   22  C   UNL     1      36.601 -10.512  -2.264  1.00  0.00     0.210 C 
ENDBRANCH  16  21
ENDBRANCH   8  15
ENDBRANCH   7   8
ENDBRANCH   3   7
BRANCH   1  23
HETATM   23  C   UNL     1      41.631 -15.781   4.016  1.00  0.00     0.086 C 
HETATM   24  C   UNL     1      40.970 -15.841   5.395  1.00  0.00     0.032 C 
BRANCH  23  25
HETATM   25  C   UNL     1      43.106 -16.244   4.099  1.00  0.00     0.063 C 
BRANCH  25  26
HETATM   26  C   UNL     1      43.403 -17.727   3.948  1.00  0.00    -0.056 A 
HETATM   27  C   UNL     1      43.202 -18.315   2.685  1.00  0.00     0.010 A 
HETATM   28  C   UNL     1      43.478 -19.667   2.466  1.00  0.00     0.037 A 
HETATM   29  C   UNL     1      43.949 -20.444   3.516  1.00  0.00     0.065 A 
HETATM   30  C   UNL     1      44.169 -19.884   4.766  1.00  0.00     0.037 A 
HETATM   31  C   UNL     1      43.919 -18.526   4.977  1.00  0.00     0.010 A 
BRANCH  29  32
HETATM   32  O   UNL     1      44.213 -21.770   3.357  1.00  0.00    -0.361 OA
HETATM   33  H   UNL     1      43.824 -22.069   2.517  1.00  0.00     0.217 HD
ENDBRANCH  29  32
ENDBRANCH  25  26
ENDBRANCH  23  25
ENDBRANCH   1  23
TORSDOF 9
ENDMDL
MODEL 2
REMARK VINA RESULT:      -7.9      2.067      8.615
REMARK  9 active torsions:
REMARK  status: ('A' for Active; 'I' for Inactive)
REMARK    1  A    between atoms: C_2  and  N_3 
REMARK    2  A    between atoms: C_2  and  C_23 
REMARK       I    between atoms: N_3  and  C_4 
REMARK       I    between atoms: C_4  and  N_5 
REMARK    3  A    between atoms: N_5  and  C_6 
REMARK    4  A    between atoms: C_6  and  C_7 
REMARK    5  A    between atoms: C_7  and  N_8 
REMARK    6  A    between atoms: C_7  and  C_14 
REMARK    7  A    between atoms: C_15  and  O_16 
REMARK    8  A    between atoms: C_23  and  C_24 
REMARK    9  A    between atoms: C_27  and  O_28 
ROOT
HETATM    1  N   UNL     1      40.672 -12.944   0.794  1.00  0.00    -0.339 N 
HETATM    2  C   UNL     1      41.762 -13.286   1.536  1.00  0.00     0.316 C 
HETATM    3  N   UNL     1      42.072 -14.619   1.391  1.00  0.00    -0.341 N 
HETATM    4  O   UNL     1      42.355 -12.547   2.306  1.00  0.00    -0.248 OA
HETATM    5  H   UNL     1      40.159 -13.695   0.358  1.00  0.00     0.164 HD
HETATM    6  H   UNL     1      41.868 -14.960   0.459  1.00  0.00     0.164 HD
ENDROOT
BRANCH   3   7
HETATM    7  C   UNL     1      43.304 -15.129   1.977  1.00  0.00     0.162 C 
BRANCH   7   8
HETATM    8  C   UNL     1      43.261 -15.647   3.455  1.00  0.00     0.241 C 
BRANCH   8   9
HETATM    9  N   UNL     1      41.966 -15.211   4.179  1.00  0.00    -0.061 N 
HETATM   10  H   UNL     1      41.405 -14.678   3.510  1.00  0.00     0.280 HD
HETATM   11  C   UNL     1      42.179 -14.316   5.396  1.00  0.00     0.236 C 
HETATM   12  C   UNL     1      41.450 -14.999   6.540  1.00  0.00     0.029 C 
HETATM   13  C   UNL     1      40.391 -15.833   5.863  1.00  0.00     0.029 C 
HETATM   14  C   UNL     1      41.129 -16.383   4.665  1.00  0.00     0.236 C 
ENDBRANCH   8   9
BRANCH   8  15
HETATM   15  C   UNL     1      43.425 -17.170   3.399  1.00  0.00     0.007 A 
HETATM   16  C   UNL     1      44.037 -17.849   4.473  1.00  0.00     0.076 A 
HETATM   17  C   UNL     1      44.200 -19.235   4.421  1.00  0.00     0.037 A 
HETATM   18  C   UNL     1      43.786 -19.952   3.297  1.00  0.00     0.003 A 
HETATM   19  C   UNL     1      43.214 -19.289   2.217  1.00  0.00     0.001 A 
HETATM   20  C   UNL     1      43.041 -17.906   2.261  1.00  0.00     0.012 A 
BRANCH  16  21
HETATM   21  O   UNL     1      44.425 -17.068   5.528  1.00  0.00    -0.355 OA
HETATM   22  C   UNL     1      43.908 -17.405   6.813  1.00  0.00     0.210 C 
ENDBRANCH  16  21
ENDBRANCH   8  15
ENDBRANCH   7   8
ENDBRANCH   3   7
BRANCH   1  23
HETATM   23  C   UNL     1      39.967 -11.665   0.916  1.00  0.00     0.086 C 
HETATM   24  C   UNL     1      38.909 -11.708   2.020  1.00  0.00     0.032 C 
BRANCH  23  25
HETATM   25  C   UNL     1      39.347 -11.171  -0.414  1.00  0.00     0.063 C 
BRANCH  25  26
HETATM   26  C   UNL     1      39.047 -12.199  -1.492  1.00  0.00    -0.056 A 
HETATM   27  C   UNL     1      37.704 -12.568  -1.696  1.00  0.00     0.010 A 
HETATM   28  C   UNL     1      37.351 -13.489  -2.686  1.00  0.00     0.037 A 
HETATM   29  C   UNL     1      38.344 -14.055  -3.473  1.00  0.00     0.065 A 
HETATM   30  C   UNL     1      39.674 -13.696  -3.302  1.00  0.00     0.037 A 
HETATM   31  C   UNL     1      40.022 -12.755  -2.330  1.00  0.00     0.010 A 
BRANCH  29  32
HETATM   32  O   UNL     1      38.052 -14.971  -4.437  1.00  0.00    -0.361 OA
HETATM   33  H   UNL     1      37.728 -15.783  -4.011  1.00  0.00     0.217 HD
ENDBRANCH  29  32
ENDBRANCH  25  26
ENDBRANCH  23  25
ENDBRANCH   1  23
TORSDOF 9
ENDMDL
MODEL 3
REMARK VINA RESULT:      -7.9      3.681      4.718
REMARK  9 active torsions:
REMARK  status: ('A' for Active; 'I' for Inactive)
REMARK    1  A    between atoms: C_2  and  N_3 
REMARK    2  A    between atoms: C_2  and  C_23 
REMARK       I    between atoms: N_3  and  C_4 
REMARK       I    between atoms: C_4  and  N_5 
REMARK    3  A    between atoms: N_5  and  C_6 
REMARK    4  A    between atoms: C_6  and  C_7 
REMARK    5  A    between atoms: C_7  and  N_8 
REMARK    6  A    between atoms: C_7  and  C_14 
REMARK    7  A    between atoms: C_15  and  O_16 
REMARK    8  A    between atoms: C_23  and  C_24 
REMARK    9  A    between atoms: C_27  and  O_28 
ROOT
HETATM    1  N   UNL     1      41.756 -16.361   6.475  1.00  0.00    -0.339 N 
HETATM    2  C   UNL     1      41.671 -15.043   6.139  1.00  0.00     0.316 C 
HETATM    3  N   UNL     1      40.396 -14.705   5.748  1.00  0.00    -0.341 N 
HETATM    4  O   UNL     1      42.606 -14.260   6.100  1.00  0.00    -0.248 OA
HETATM    5  H   UNL     1      40.955 -16.939   6.273  1.00  0.00     0.164 HD
HETATM    6  H   UNL     1      39.689 -15.228   6.251  1.00  0.00     0.164 HD
ENDROOT
BRANCH   3   7
HETATM    7  C   UNL     1      40.074 -13.304   5.513  1.00  0.00     0.162 C 
BRANCH   7   8
HETATM    8  C   UNL     1      39.545 -12.895   4.096  1.00  0.00     0.241 C 
BRANCH   8   9
HETATM    9  N   UNL     1      39.644 -11.370   3.863  1.00  0.00    -0.061 N 
HETATM   10  H   UNL     1      40.580 -11.175   3.499  1.00  0.00     0.280 HD
HETATM   11  C   UNL     1      39.466 -10.515   5.114  1.00  0.00     0.236 C 
HETATM   12  C   UNL     1      38.362  -9.527   4.781  1.00  0.00     0.029 C 
HETATM   13  C   UNL     1      38.397  -9.419   3.277  1.00  0.00     0.029 C 
HETATM   14  C   UNL     1      38.631 -10.851   2.856  1.00  0.00     0.236 C 
ENDBRANCH   8   9
BRANCH   8  15
HETATM   15  C   UNL     1      40.345 -13.705   3.070  1.00  0.00     0.007 A 
HETATM   16  C   UNL     1      41.677 -13.346   2.778  1.00  0.00     0.076 A 
HETATM   17  C   UNL     1      42.406 -14.075   1.835  1.00  0.00     0.037 A 
HETATM   18  C   UNL     1      41.815 -15.142   1.157  1.00  0.00     0.003 A 
HETATM   19  C   UNL     1      40.491 -15.482   1.411  1.00  0.00     0.001 A 
HETATM   20  C   UNL     1      39.755 -14.766   2.354  1.00  0.00     0.012 A 
BRANCH  16  21
HETATM   21  O   UNL     1      42.174 -12.281   3.478  1.00  0.00    -0.355 OA
HETATM   22  C   UNL     1      43.571 -12.019   3.363  1.00  0.00     0.210 C 
ENDBRANCH  16  21
ENDBRANCH   8  15
ENDBRANCH   7   8
ENDBRANCH   3   7
BRANCH   1  23
HETATM   23  C   UNL     1      43.020 -17.066   6.708  1.00  0.00     0.086 C 
HETATM   24  C   UNL     1      43.713 -16.574   7.981  1.00  0.00     0.032 C 
BRANCH  23  25
HETATM   25  C   UNL     1      43.990 -17.010   5.504  1.00  0.00     0.063 C 
BRANCH  25  26
HETATM   26  C   UNL     1      43.796 -18.011   4.377  1.00  0.00    -0.056 A 
HETATM   27  C   UNL     1      44.145 -19.352   4.619  1.00  0.00     0.010 A 
HETATM   28  C   UNL     1      43.970 -20.332   3.638  1.00  0.00     0.037 A 
HETATM   29  C   UNL     1      43.454 -19.971   2.401  1.00  0.00     0.065 A 
HETATM   30  C   UNL     1      43.088 -18.658   2.143  1.00  0.00     0.037 A 
HETATM   31  C   UNL     1      43.237 -17.685   3.134  1.00  0.00     0.010 A 
BRANCH  29  32
HETATM   32  O   UNL     1      43.284 -20.886   1.407  1.00  0.00    -0.361 OA
HETATM   33  H   UNL     1      44.152 -21.249   1.163  1.00  0.00     0.217 HD
ENDBRANCH  29  32
ENDBRANCH  25  26
ENDBRANCH  23  25
ENDBRANCH   1  23
TORSDOF 9
ENDMDL
MODEL 4
REMARK VINA RESULT:      -7.8      6.631      9.441
REMARK  9 active torsions:
REMARK  status: ('A' for Active; 'I' for Inactive)
REMARK    1  A    between atoms: C_2  and  N_3 
REMARK    2  A    between atoms: C_2  and  C_23 
REMARK       I    between atoms: N_3  and  C_4 
REMARK       I    between atoms: C_4  and  N_5 
REMARK    3  A    between atoms: N_5  and  C_6 
REMARK    4  A    between atoms: C_6  and  C_7 
REMARK    5  A    between atoms: C_7  and  N_8 
REMARK    6  A    between atoms: C_7  and  C_14 
REMARK    7  A    between atoms: C_15  and  O_16 
REMARK    8  A    between atoms: C_23  and  C_24 
REMARK    9  A    between atoms: C_27  and  O_28 
ROOT
HETATM    1  N   UNL     1      43.554 -11.157   8.535  1.00  0.00    -0.339 N 
HETATM    2  C   UNL     1      44.029 -11.940   7.526  1.00  0.00     0.316 C 
HETATM    3  N   UNL     1      43.288 -13.092   7.391  1.00  0.00    -0.341 N 
HETATM    4  O   UNL     1      45.032 -11.716   6.866  1.00  0.00    -0.248 OA
HETATM    5  H   UNL     1      42.842 -11.555   9.128  1.00  0.00     0.164 HD
HETATM    6  H   UNL     1      42.310 -12.946   7.607  1.00  0.00     0.164 HD
ENDROOT
BRANCH   3   7
HETATM    7  C   UNL     1      43.544 -13.971   6.258  1.00  0.00     0.162 C 
BRANCH   7   8
HETATM    8  C   UNL     1      42.349 -14.311   5.303  1.00  0.00     0.241 C 
BRANCH   8   9
HETATM    9  N   UNL     1      42.042 -13.149   4.330  1.00  0.00    -0.061 N 
HETATM   10  H   UNL     1      41.529 -13.541   3.536  1.00  0.00     0.280 HD
HETATM   11  C   UNL     1      43.269 -12.442   3.764  1.00  0.00     0.236 C 
HETATM   12  C   UNL     1      43.071 -10.968   4.071  1.00  0.00     0.029 C 
HETATM   13  C   UNL     1      41.577 -10.810   4.200  1.00  0.00     0.029 C 
HETATM   14  C   UNL     1      41.183 -12.060   4.952  1.00  0.00     0.236 C 
ENDBRANCH   8   9
BRANCH   8  15
HETATM   15  C   UNL     1      42.713 -15.611   4.578  1.00  0.00     0.007 A 
HETATM   16  C   UNL     1      41.880 -16.098   3.549  1.00  0.00     0.076 A 
HETATM   17  C   UNL     1      42.203 -17.289   2.894  1.00  0.00     0.037 A 
HETATM   18  C   UNL     1      43.332 -18.018   3.270  1.00  0.00     0.003 A 
HETATM   19  C   UNL     1      44.141 -17.566   4.307  1.00  0.00     0.001 A 
HETATM   20  C   UNL     1      43.832 -16.376   4.964  1.00  0.00     0.012 A 
BRANCH  16  21
HETATM   21  O   UNL     1      40.788 -15.328   3.253  1.00  0.00    -0.355 OA
HETATM   22  C   UNL     1      40.301 -15.375   1.914  1.00  0.00     0.210 C 
ENDBRANCH  16  21
ENDBRANCH   8  15
ENDBRANCH   7   8
ENDBRANCH   3   7
BRANCH   1  23
HETATM   23  C   UNL     1      44.262  -9.989   9.067  1.00  0.00     0.086 C 
HETATM   24  C   UNL     1      45.279 -10.387  10.140  1.00  0.00     0.032 C 
BRANCH  23  25
HETATM   25  C   UNL     1      43.318  -8.883   9.596  1.00  0.00     0.063 C 
BRANCH  25  26
HETATM   26  C   UNL     1      42.882  -8.944  11.050  1.00  0.00    -0.056 A 
HETATM   27  C   UNL     1      43.413  -7.990  11.939  1.00  0.00     0.010 A 
HETATM   28  C   UNL     1      43.038  -7.970  13.285  1.00  0.00     0.037 A 
HETATM   29  C   UNL     1      42.135  -8.915  13.753  1.00  0.00     0.065 A 
HETATM   30  C   UNL     1      41.586  -9.856  12.894  1.00  0.00     0.037 A 
HETATM   31  C   UNL     1      41.940  -9.857  11.543  1.00  0.00     0.010 A 
BRANCH  29  32
HETATM   32  O   UNL     1      41.755  -8.948  15.060  1.00  0.00    -0.361 OA
HETATM   33  H   UNL     1      40.806  -9.157  15.106  1.00  0.00     0.217 HD
ENDBRANCH  29  32
ENDBRANCH  25  26
ENDBRANCH  23  25
ENDBRANCH   1  23
TORSDOF 9
ENDMDL
MODEL 5
REMARK VINA RESULT:      -7.6      6.162      9.333
REMARK  9 active torsions:
REMARK  status: ('A' for Active; 'I' for Inactive)
REMARK    1  A    between atoms: C_2  and  N_3 
REMARK    2  A    between atoms: C_2  and  C_23 
REMARK       I    between atoms: N_3  and  C_4 
REMARK       I    between atoms: C_4  and  N_5 
REMARK    3  A    between atoms: N_5  and  C_6 
REMARK    4  A    between atoms: C_6  and  C_7 
REMARK    5  A    between atoms: C_7  and  N_8 
REMARK    6  A    between atoms: C_7  and  C_14 
REMARK    7  A    between atoms: C_15  and  O_16 
REMARK    8  A    between atoms: C_23  and  C_24 
REMARK    9  A    between atoms: C_27  and  O_28 
ROOT
HETATM    1  N   UNL     1      43.590 -11.039   8.658  1.00  0.00    -0.339 N 
HETATM    2  C   UNL     1      43.828 -11.508   7.401  1.00  0.00     0.316 C 
HETATM    3  N   UNL     1      43.365 -12.795   7.247  1.00  0.00    -0.341 N 
HETATM    4  O   UNL     1      44.445 -10.917   6.528  1.00  0.00    -0.248 OA
HETATM    5  H   UNL     1      43.250 -11.701   9.338  1.00  0.00     0.164 HD
HETATM    6  H   UNL     1      42.525 -12.967   7.787  1.00  0.00     0.164 HD
ENDROOT
BRANCH   3   7
HETATM    7  C   UNL     1      43.380 -13.402   5.924  1.00  0.00     0.162 C 
BRANCH   7   8
HETATM    8  C   UNL     1      42.098 -14.167   5.447  1.00  0.00     0.241 C 
BRANCH   8   9
HETATM    9  N   UNL     1      40.969 -13.196   5.033  1.00  0.00    -0.061 N 
HETATM   10  H   UNL     1      40.511 -13.591   4.208  1.00  0.00     0.280 HD
HETATM   11  C   UNL     1      41.432 -11.792   4.656  1.00  0.00     0.236 C 
HETATM   12  C   UNL     1      40.622 -10.846   5.524  1.00  0.00     0.029 C 
HETATM   13  C   UNL     1      39.373 -11.622   5.860  1.00  0.00     0.029 C 
HETATM   14  C   UNL     1      39.914 -13.010   6.112  1.00  0.00     0.236 C 
ENDBRANCH   8   9
BRANCH   8  15
HETATM   15  C   UNL     1      42.530 -15.095   4.307  1.00  0.00     0.007 A 
HETATM   16  C   UNL     1      42.620 -16.484   4.529  1.00  0.00     0.076 A 
HETATM   17  C   UNL     1      43.025 -17.332   3.496  1.00  0.00     0.037 A 
HETATM   18  C   UNL     1      43.370 -16.810   2.249  1.00  0.00     0.003 A 
HETATM   19  C   UNL     1      43.320 -15.438   2.028  1.00  0.00     0.001 A 
HETATM   20  C   UNL     1      42.911 -14.582   3.050  1.00  0.00     0.012 A 
BRANCH  16  21
HETATM   21  O   UNL     1      42.277 -16.910   5.783  1.00  0.00    -0.355 OA
HETATM   22  C   UNL     1      43.266 -17.620   6.525  1.00  0.00     0.210 C 
ENDBRANCH  16  21
ENDBRANCH   8  15
ENDBRANCH   7   8
ENDBRANCH   3   7
BRANCH   1  23
HETATM   23  C   UNL     1      44.165  -9.800   9.191  1.00  0.00     0.086 C 
HETATM   24  C   UNL     1      45.176 -10.081  10.305  1.00  0.00     0.032 C 
BRANCH  23  25
HETATM   25  C   UNL     1      43.101  -8.781   9.665  1.00  0.00     0.063 C 
BRANCH  25  26
HETATM   26  C   UNL     1      41.988  -9.273  10.575  1.00  0.00    -0.056 A 
HETATM   27  C   UNL     1      40.689  -9.358  10.041  1.00  0.00     0.010 A 
HETATM   28  C   UNL     1      39.621  -9.826  10.812  1.00  0.00     0.037 A 
HETATM   29  C   UNL     1      39.847 -10.202  12.129  1.00  0.00     0.065 A 
HETATM   30  C   UNL     1      41.121 -10.141  12.674  1.00  0.00     0.037 A 
HETATM   31  C   UNL     1      42.193  -9.700  11.894  1.00  0.00     0.010 A 
BRANCH  29  32
HETATM   32  O   UNL     1      38.835 -10.645  12.925  1.00  0.00    -0.361 OA
HETATM   33  H   UNL     1      39.206 -10.923  13.780  1.00  0.00     0.217 HD
ENDBRANCH  29  32
ENDBRANCH  25  26
ENDBRANCH  23  25
ENDBRANCH   1  23
TORSDOF 9
ENDMDL
MODEL 6
REMARK VINA RESULT:      -7.5      1.643      1.974
REMARK  9 active torsions:
REMARK  status: ('A' for Active; 'I' for Inactive)
REMARK    1  A    between atoms: C_2  and  N_3 
REMARK    2  A    between atoms: C_2  and  C_23 
REMARK       I    between atoms: N_3  and  C_4 
REMARK       I    between atoms: C_4  and  N_5 
REMARK    3  A    between atoms: N_5  and  C_6 
REMARK    4  A    between atoms: C_6  and  C_7 
REMARK    5  A    between atoms: C_7  and  N_8 
REMARK    6  A    between atoms: C_7  and  C_14 
REMARK    7  A    between atoms: C_15  and  O_16 
REMARK    8  A    between atoms: C_23  and  C_24 
REMARK    9  A    between atoms: C_27  and  O_28 
ROOT
HETATM    1  N   UNL     1      41.307 -15.588   4.692  1.00  0.00    -0.339 N 
HETATM    2  C   UNL     1      41.663 -14.906   3.567  1.00  0.00     0.316 C 
HETATM    3  N   UNL     1      40.679 -14.970   2.607  1.00  0.00    -0.341 N 
HETATM    4  O   UNL     1      42.743 -14.370   3.375  1.00  0.00    -0.248 OA
HETATM    5  H   UNL     1      40.472 -16.151   4.642  1.00  0.00     0.164 HD
HETATM    6  H   UNL     1      39.751 -14.989   3.011  1.00  0.00     0.164 HD
ENDROOT
BRANCH   3   7
HETATM    7  C   UNL     1      40.809 -14.163   1.402  1.00  0.00     0.162 C 
BRANCH   7   8
HETATM    8  C   UNL     1      39.698 -13.100   1.101  1.00  0.00     0.241 C 
BRANCH   8   9
HETATM    9  N   UNL     1      40.126 -11.680   1.537  1.00  0.00    -0.061 N 
HETATM   10  H   UNL     1      39.555 -11.012   1.014  1.00  0.00     0.280 HD
HETATM   11  C   UNL     1      41.585 -11.333   1.258  1.00  0.00     0.236 C 
HETATM   12  C   UNL     1      42.159 -10.877   2.588  1.00  0.00     0.029 C 
HETATM   13  C   UNL     1      40.962 -10.390   3.365  1.00  0.00     0.029 C 
HETATM   14  C   UNL     1      39.912 -11.420   3.020  1.00  0.00     0.236 C 
ENDBRANCH   8   9
BRANCH   8  15
HETATM   15  C   UNL     1      39.386 -13.192  -0.397  1.00  0.00     0.007 A 
HETATM   16  C   UNL     1      38.330 -12.433  -0.941  1.00  0.00     0.076 A 
HETATM   17  C   UNL     1      38.035 -12.523  -2.304  1.00  0.00     0.037 A 
HETATM   18  C   UNL     1      38.763 -13.383  -3.127  1.00  0.00     0.003 A 
HETATM   19  C   UNL     1      39.783 -14.163  -2.595  1.00  0.00     0.001 A 
HETATM   20  C   UNL     1      40.090 -14.077  -1.238  1.00  0.00     0.012 A 
BRANCH  16  21
HETATM   21  O   UNL     1      37.661 -11.627  -0.061  1.00  0.00    -0.355 OA
HETATM   22  C   UNL     1      37.223 -10.358  -0.543  1.00  0.00     0.210 C 
ENDBRANCH  16  21
ENDBRANCH   8  15
ENDBRANCH   7   8
ENDBRANCH   3   7
BRANCH   1  23
HETATM   23  C   UNL     1      42.229 -15.893   5.790  1.00  0.00     0.086 C 
HETATM   24  C   UNL     1      42.388 -14.704   6.740  1.00  0.00     0.032 C 
BRANCH  23  25
HETATM   25  C   UNL     1      43.613 -16.397   5.312  1.00  0.00     0.063 C 
BRANCH  25  26
HETATM   26  C   UNL     1      43.727 -17.833   4.828  1.00  0.00    -0.056 A 
HETATM   27  C   UNL     1      43.763 -18.061   3.440  1.00  0.00     0.010 A 
HETATM   28  C   UNL     1      43.893 -19.353   2.923  1.00  0.00     0.037 A 
HETATM   29  C   UNL     1      43.975 -20.429   3.796  1.00  0.00     0.065 A 
HETATM   30  C   UNL     1      43.956 -20.230   5.169  1.00  0.00     0.037 A 
HETATM   31  C   UNL     1      43.855 -18.935   5.684  1.00  0.00     0.010 A 
BRANCH  29  32
HETATM   32  O   UNL     1      44.082 -21.707   3.340  1.00  0.00    -0.361 OA
HETATM   33  H   UNL     1      44.487 -21.693   2.456  1.00  0.00     0.217 HD
ENDBRANCH  29  32
ENDBRANCH  25  26
ENDBRANCH  23  25
ENDBRANCH   1  23
TORSDOF 9
ENDMDL
MODEL 7
REMARK VINA RESULT:      -7.5      6.020      8.538
REMARK  9 active torsions:
REMARK  status: ('A' for Active; 'I' for Inactive)
REMARK    1  A    between atoms: C_2  and  N_3 
REMARK    2  A    between atoms: C_2  and  C_23 
REMARK       I    between atoms: N_3  and  C_4 
REMARK       I    between atoms: C_4  and  N_5 
REMARK    3  A    between atoms: N_5  and  C_6 
REMARK    4  A    between atoms: C_6  and  C_7 
REMARK    5  A    between atoms: C_7  and  N_8 
REMARK    6  A    between atoms: C_7  and  C_14 
REMARK    7  A    between atoms: C_15  and  O_16 
REMARK    8  A    between atoms: C_23  and  C_24 
REMARK    9  A    between atoms: C_27  and  O_28 
ROOT
HETATM    1  N   UNL     1      41.290 -13.866   6.020  1.00  0.00    -0.339 N 
HETATM    2  C   UNL     1      41.582 -12.589   5.643  1.00  0.00     0.316 C 
HETATM    3  N   UNL     1      41.097 -11.673   6.549  1.00  0.00    -0.341 N 
HETATM    4  O   UNL     1      42.127 -12.265   4.599  1.00  0.00    -0.248 OA
HETATM    5  H   UNL     1      40.663 -13.982   6.801  1.00  0.00     0.164 HD
HETATM    6  H   UNL     1      41.124 -12.024   7.499  1.00  0.00     0.164 HD
ENDROOT
BRANCH   3   7
HETATM    7  C   UNL     1      41.457 -10.270   6.400  1.00  0.00     0.162 C 
BRANCH   7   8
HETATM    8  C   UNL     1      41.719  -9.433   7.699  1.00  0.00     0.241 C 
BRANCH   8   9
HETATM    9  N   UNL     1      40.830  -9.901   8.874  1.00  0.00    -0.061 N 
HETATM   10  H   UNL     1      40.859 -10.923   8.893  1.00  0.00     0.280 HD
HETATM   11  C   UNL     1      39.362  -9.498   8.770  1.00  0.00     0.236 C 
HETATM   12  C   UNL     1      39.041  -8.779  10.068  1.00  0.00     0.029 C 
HETATM   13  C   UNL     1      40.046  -9.321  11.054  1.00  0.00     0.029 C 
HETATM   14  C   UNL     1      41.307  -9.392  10.225  1.00  0.00     0.236 C 
ENDBRANCH   8   9
BRANCH   8  15
HETATM   15  C   UNL     1      43.216  -9.545   8.007  1.00  0.00     0.007 A 
HETATM   16  C   UNL     1      43.970  -8.379   8.253  1.00  0.00     0.076 A 
HETATM   17  C   UNL     1      45.337  -8.475   8.523  1.00  0.00     0.037 A 
HETATM   18  C   UNL     1      45.971  -9.718   8.523  1.00  0.00     0.003 A 
HETATM   19  C   UNL     1      45.245 -10.871   8.246  1.00  0.00     0.001 A 
HETATM   20  C   UNL     1      43.878 -10.788   7.981  1.00  0.00     0.012 A 
BRANCH  16  21
HETATM   21  O   UNL     1      43.273  -7.201   8.221  1.00  0.00    -0.355 OA
HETATM   22  C   UNL     1      43.228  -6.438   9.425  1.00  0.00     0.210 C 
ENDBRANCH  16  21
ENDBRANCH   8  15
ENDBRANCH   7   8
ENDBRANCH   3   7
BRANCH   1  23
HETATM   23  C   UNL     1      41.470 -15.036   5.155  1.00  0.00     0.086 C 
HETATM   24  C   UNL     1      40.603 -16.212   5.610  1.00  0.00     0.032 C 
BRANCH  23  25
HETATM   25  C   UNL     1      42.947 -15.473   5.008  1.00  0.00     0.063 C 
BRANCH  25  26
HETATM   26  C   UNL     1      43.243 -16.775   4.281  1.00  0.00    -0.056 A 
HETATM   27  C   UNL     1      42.760 -16.921   2.967  1.00  0.00     0.010 A 
HETATM   28  C   UNL     1      43.014 -18.080   2.229  1.00  0.00     0.037 A 
HETATM   29  C   UNL     1      43.747 -19.107   2.808  1.00  0.00     0.065 A 
HETATM   30  C   UNL     1      44.247 -18.981   4.096  1.00  0.00     0.037 A 
HETATM   31  C   UNL     1      44.015 -17.811   4.823  1.00  0.00     0.010 A 
BRANCH  29  32
HETATM   32  O   UNL     1      44.003 -20.263   2.136  1.00  0.00    -0.361 OA
HETATM   33  H   UNL     1      43.488 -20.982   2.540  1.00  0.00     0.217 HD
ENDBRANCH  29  32
ENDBRANCH  25  26
ENDBRANCH  23  25
ENDBRANCH   1  23
TORSDOF 9
ENDMDL
MODEL 8
REMARK VINA RESULT:      -7.5      1.744      3.287
REMARK  9 active torsions:
REMARK  status: ('A' for Active; 'I' for Inactive)
REMARK    1  A    between atoms: C_2  and  N_3 
REMARK    2  A    between atoms: C_2  and  C_23 
REMARK       I    between atoms: N_3  and  C_4 
REMARK       I    between atoms: C_4  and  N_5 
REMARK    3  A    between atoms: N_5  and  C_6 
REMARK    4  A    between atoms: C_6  and  C_7 
REMARK    5  A    between atoms: C_7  and  N_8 
REMARK    6  A    between atoms: C_7  and  C_14 
REMARK    7  A    between atoms: C_15  and  O_16 
REMARK    8  A    between atoms: C_23  and  C_24 
REMARK    9  A    between atoms: C_27  and  O_28 
ROOT
HETATM    1  N   UNL     1      40.318 -15.168   3.775  1.00  0.00    -0.339 N 
HETATM    2  C   UNL     1      40.231 -13.920   3.233  1.00  0.00     0.316 C 
HETATM    3  N   UNL     1      39.051 -13.751   2.545  1.00  0.00    -0.341 N 
HETATM    4  O   UNL     1      41.107 -13.071   3.265  1.00  0.00    -0.248 OA
HETATM    5  H   UNL     1      39.612 -15.836   3.505  1.00  0.00     0.164 HD
HETATM    6  H   UNL     1      38.285 -14.260   2.968  1.00  0.00     0.164 HD
ENDROOT
BRANCH   3   7
HETATM    7  C   UNL     1      38.707 -12.430   2.040  1.00  0.00     0.162 C 
BRANCH   7   8
HETATM    8  C   UNL     1      39.026 -12.105   0.540  1.00  0.00     0.241 C 
BRANCH   8   9
HETATM    9  N   UNL     1      38.932 -13.364  -0.353  1.00  0.00    -0.061 N 
HETATM   10  H   UNL     1      38.533 -14.114   0.216  1.00  0.00     0.280 HD
HETATM   11  C   UNL     1      40.265 -13.873  -0.891  1.00  0.00     0.236 C 
HETATM   12  C   UNL     1      40.092 -13.963  -2.397  1.00  0.00     0.029 C 
HETATM   13  C   UNL     1      38.605 -14.123  -2.594  1.00  0.00     0.029 C 
HETATM   14  C   UNL     1      38.039 -13.170  -1.568  1.00  0.00     0.236 C 
ENDBRANCH   8   9
BRANCH   8  15
HETATM   15  C   UNL     1      38.060 -10.997   0.108  1.00  0.00     0.007 A 
HETATM   16  C   UNL     1      38.437 -10.095  -0.909  1.00  0.00     0.076 A 
HETATM   17  C   UNL     1      37.564  -9.077  -1.298  1.00  0.00     0.037 A 
HETATM   18  C   UNL     1      36.329  -8.927  -0.666  1.00  0.00     0.003 A 
HETATM   19  C   UNL     1      35.961  -9.787   0.363  1.00  0.00     0.001 A 
HETATM   20  C   UNL     1      36.822 -10.812   0.755  1.00  0.00     0.012 A 
BRANCH  16  21
HETATM   21  O   UNL     1      39.669 -10.307  -1.466  1.00  0.00    -0.355 OA
HETATM   22  C   UNL     1      39.808 -10.044  -2.861  1.00  0.00     0.210 C 
ENDBRANCH  16  21
ENDBRANCH   8  15
ENDBRANCH   7   8
ENDBRANCH   3   7
BRANCH   1  23
HETATM   23  C   UNL     1      41.541 -15.720   4.364  1.00  0.00     0.086 C 
HETATM   24  C   UNL     1      42.178 -14.746   5.358  1.00  0.00     0.032 C 
BRANCH  23  25
HETATM   25  C   UNL     1      42.579 -16.182   3.313  1.00  0.00     0.063 C 
BRANCH  25  26
HETATM   26  C   UNL     1      43.034 -17.631   3.340  1.00  0.00    -0.056 A 
HETATM   27  C   UNL     1      42.792 -18.421   2.200  1.00  0.00     0.010 A 
HETATM   28  C   UNL     1      43.205 -19.755   2.145  1.00  0.00     0.037 A 
HETATM   29  C   UNL     1      43.855 -20.311   3.239  1.00  0.00     0.065 A 
HETATM   30  C   UNL     1      44.118 -19.550   4.368  1.00  0.00     0.037 A 
HETATM   31  C   UNL     1      43.730 -18.208   4.411  1.00  0.00     0.010 A 
BRANCH  29  32
HETATM   32  O   UNL     1      44.258 -21.611   3.240  1.00  0.00    -0.361 OA
HETATM   33  H   UNL     1      43.472 -22.184   3.255  1.00  0.00     0.217 HD
ENDBRANCH  29  32
ENDBRANCH  25  26
ENDBRANCH  23  25
ENDBRANCH   1  23
TORSDOF 9
ENDMDL
MODEL 9
REMARK VINA RESULT:      -7.4      7.294     10.223
REMARK  9 active torsions:
REMARK  status: ('A' for Active; 'I' for Inactive)
REMARK    1  A    between atoms: C_2  and  N_3 
REMARK    2  A    between atoms: C_2  and  C_23 
REMARK       I    between atoms: N_3  and  C_4 
REMARK       I    between atoms: C_4  and  N_5 
REMARK    3  A    between atoms: N_5  and  C_6 
REMARK    4  A    between atoms: C_6  and  C_7 
REMARK    5  A    between atoms: C_7  and  N_8 
REMARK    6  A    between atoms: C_7  and  C_14 
REMARK    7  A    between atoms: C_15  and  O_16 
REMARK    8  A    between atoms: C_23  and  C_24 
REMARK    9  A    between atoms: C_27  and  O_28 
ROOT
HETATM    1  N   UNL     1      43.623 -11.185   9.007  1.00  0.00    -0.339 N 
HETATM    2  C   UNL     1      43.595 -11.223   7.645  1.00  0.00     0.316 C 
HETATM    3  N   UNL     1      43.596 -12.517   7.177  1.00  0.00    -0.341 N 
HETATM    4  O   UNL     1      43.648 -10.251   6.907  1.00  0.00    -0.248 OA
HETATM    5  H   UNL     1      43.777 -12.058   9.487  1.00  0.00     0.164 HD
HETATM    6  H   UNL     1      43.092 -13.146   7.791  1.00  0.00     0.164 HD
ENDROOT
BRANCH   3   7
HETATM    7  C   UNL     1      43.400 -12.758   5.754  1.00  0.00     0.162 C 
BRANCH   7   8
HETATM    8  C   UNL     1      42.162 -13.612   5.313  1.00  0.00     0.241 C 
BRANCH   8   9
HETATM    9  N   UNL     1      40.954 -12.724   4.939  1.00  0.00    -0.061 N 
HETATM   10  H   UNL     1      40.550 -13.101   4.078  1.00  0.00     0.280 HD
HETATM   11  C   UNL     1      41.289 -11.260   4.671  1.00  0.00     0.236 C 
HETATM   12  C   UNL     1      40.377 -10.457   5.582  1.00  0.00     0.029 C 
HETATM   13  C   UNL     1      39.202 -11.369   5.833  1.00  0.00     0.029 C 
HETATM   14  C   UNL     1      39.867 -12.715   6.002  1.00  0.00     0.236 C 
ENDBRANCH   8   9
BRANCH   8  15
HETATM   15  C   UNL     1      42.626 -14.502   4.155  1.00  0.00     0.007 A 
HETATM   16  C   UNL     1      42.823 -15.883   4.366  1.00  0.00     0.076 A 
HETATM   17  C   UNL     1      43.256 -16.696   3.317  1.00  0.00     0.037 A 
HETATM   18  C   UNL     1      43.524 -16.145   2.062  1.00  0.00     0.003 A 
HETATM   19  C   UNL     1      43.367 -14.780   1.851  1.00  0.00     0.001 A 
HETATM   20  C   UNL     1      42.929 -13.959   2.890  1.00  0.00     0.012 A 
BRANCH  16  21
HETATM   21  O   UNL     1      42.550 -16.336   5.628  1.00  0.00    -0.355 OA
HETATM   22  C   UNL     1      43.634 -16.891   6.371  1.00  0.00     0.210 C 
ENDBRANCH  16  21
ENDBRANCH   8  15
ENDBRANCH   7   8
ENDBRANCH   3   7
BRANCH   1  23
HETATM   23  C   UNL     1      43.858  -9.966   9.787  1.00  0.00     0.086 C 
HETATM   24  C   UNL     1      45.353  -9.689   9.961  1.00  0.00     0.032 C 
BRANCH  23  25
HETATM   25  C   UNL     1      43.140  -9.962  11.158  1.00  0.00     0.063 C 
BRANCH  25  26
HETATM   26  C   UNL     1      42.940  -8.629  11.860  1.00  0.00    -0.056 A 
HETATM   27  C   UNL     1      42.479  -7.542  11.094  1.00  0.00     0.010 A 
HETATM   28  C   UNL     1      42.249  -6.294  11.678  1.00  0.00     0.037 A 
HETATM   29  C   UNL     1      42.490  -6.123  13.035  1.00  0.00     0.065 A 
HETATM   30  C   UNL     1      42.930  -7.183  13.814  1.00  0.00     0.037 A 
HETATM   31  C   UNL     1      43.133  -8.438  13.235  1.00  0.00     0.010 A 
BRANCH  29  32
HETATM   32  O   UNL     1      42.299  -4.921  13.645  1.00  0.00    -0.361 OA
HETATM   33  H   UNL     1      41.499  -4.507  13.279  1.00  0.00     0.217 HD
ENDBRANCH  29  32
ENDBRANCH  25  26
ENDBRANCH  23  25
ENDBRANCH   1  23
TORSDOF 9
ENDMDL
MODEL 10
REMARK VINA RESULT:      -7.2      2.091      4.216
REMARK  9 active torsions:
REMARK  status: ('A' for Active; 'I' for Inactive)
REMARK    1  A    between atoms: C_2  and  N_3 
REMARK    2  A    between atoms: C_2  and  C_23 
REMARK       I    between atoms: N_3  and  C_4 
REMARK       I    between atoms: C_4  and  N_5 
REMARK    3  A    between atoms: N_5  and  C_6 
REMARK    4  A    between atoms: C_6  and  C_7 
REMARK    5  A    between atoms: C_7  and  N_8 
REMARK    6  A    between atoms: C_7  and  C_14 
REMARK    7  A    between atoms: C_15  and  O_16 
REMARK    8  A    between atoms: C_23  and  C_24 
REMARK    9  A    between atoms: C_27  and  O_28 
ROOT
HETATM    1  N   UNL     1      41.053 -14.673   0.391  1.00  0.00    -0.339 N 
HETATM    2  C   UNL     1      41.159 -13.320   0.517  1.00  0.00     0.316 C 
HETATM    3  N   UNL     1      41.220 -12.703  -0.712  1.00  0.00    -0.341 N 
HETATM    4  O   UNL     1      41.275 -12.713   1.570  1.00  0.00    -0.248 OA
HETATM    5  H   UNL     1      41.169 -15.058  -0.533  1.00  0.00     0.164 HD
HETATM    6  H   UNL     1      40.665 -13.184  -1.409  1.00  0.00     0.164 HD
ENDROOT
BRANCH   3   7
HETATM    7  C   UNL     1      41.168 -11.249  -0.779  1.00  0.00     0.162 C 
BRANCH   7   8
HETATM    8  C   UNL     1      40.698 -10.588  -2.121  1.00  0.00     0.241 C 
BRANCH   8   9
HETATM    9  N   UNL     1      39.174 -10.329  -2.131  1.00  0.00    -0.061 N 
HETATM   10  H   UNL     1      39.015  -9.459  -2.645  1.00  0.00     0.280 HD
HETATM   11  C   UNL     1      38.541 -10.156  -0.754  1.00  0.00     0.236 C 
HETATM   12  C   UNL     1      37.402 -11.159  -0.698  1.00  0.00     0.029 C 
HETATM   13  C   UNL     1      37.033 -11.388  -2.143  1.00  0.00     0.029 C 
HETATM   14  C   UNL     1      38.384 -11.431  -2.818  1.00  0.00     0.236 C 
ENDBRANCH   8   9
BRANCH   8  15
HETATM   15  C   UNL     1      41.520  -9.307  -2.298  1.00  0.00     0.007 A 
HETATM   16  C   UNL     1      41.464  -8.601  -3.518  1.00  0.00     0.076 A 
HETATM   17  C   UNL     1      42.220  -7.440  -3.688  1.00  0.00     0.037 A 
HETATM   18  C   UNL     1      43.056  -6.986  -2.666  1.00  0.00     0.003 A 
HETATM   19  C   UNL     1      43.147  -7.694  -1.473  1.00  0.00     0.001 A 
HETATM   20  C   UNL     1      42.392  -8.851  -1.289  1.00  0.00     0.012 A 
BRANCH  16  21
HETATM   21  O   UNL     1      40.630  -9.122  -4.469  1.00  0.00    -0.355 OA
HETATM   22  C   UNL     1      39.776  -8.211  -5.157  1.00  0.00     0.210 C 
ENDBRANCH  16  21
ENDBRANCH   8  15
ENDBRANCH   7   8
ENDBRANCH   3   7
BRANCH   1  23
HETATM   23  C   UNL     1      41.198 -15.612   1.507  1.00  0.00     0.086 C 
HETATM   24  C   UNL     1      40.058 -15.467   2.518  1.00  0.00     0.032 C 
BRANCH  23  25
HETATM   25  C   UNL     1      42.570 -15.521   2.217  1.00  0.00     0.063 C 
BRANCH  25  26
HETATM   26  C   UNL     1      43.114 -16.768   2.894  1.00  0.00    -0.056 A 
HETATM   27  C   UNL     1      43.539 -16.660   4.231  1.00  0.00     0.010 A 
HETATM   28  C   UNL     1      44.027 -17.771   4.926  1.00  0.00     0.037 A 
HETATM   29  C   UNL     1      44.101 -18.997   4.279  1.00  0.00     0.065 A 
HETATM   30  C   UNL     1      43.674 -19.133   2.966  1.00  0.00     0.037 A 
HETATM   31  C   UNL     1      43.161 -18.028   2.282  1.00  0.00     0.010 A 
BRANCH  29  32
HETATM   32  O   UNL     1      44.588 -20.103   4.907  1.00  0.00    -0.361 OA
HETATM   33  H   UNL     1      43.847 -20.584   5.315  1.00  0.00     0.217 HD
ENDBRANCH  29  32
ENDBRANCH  25  26
ENDBRANCH  23  25
ENDBRANCH   1  23
TORSDOF 9
ENDMDL
