MODEL 1
REMARK VINA RESULT:      -7.5      0.000      0.000
REMARK  8 active torsions:
REMARK  status: ('A' for Active; 'I' for Inactive)
REMARK    1  A    between atoms: C_2  and  C_3 
REMARK    2  A    between atoms: C_3  and  N_4 
REMARK    3  A    between atoms: C_7  and  C_8 
REMARK       I    between atoms: C_8  and  N_9 
REMARK    4  A    between atoms: N_9  and  C_10 
REMARK    5  A    between atoms: C_13  and  O_14 
REMARK    6  A    between atoms: O_14  and  C_15 
REMARK    7  A    between atoms: C_15  and  C_16 
REMARK       I    between atoms: C_16  and  N_17 
REMARK    8  A    between atoms: C_23  and  C_24 
ROOT
HETATM    1  C   UNL     1      41.307 -13.351   3.515  1.00  0.00     0.259 C 
HETATM    2  N   UNL     1      41.701 -12.393   4.425  1.00  0.00    -0.323 N 
HETATM    3  O   UNL     1      40.244 -13.138   2.930  1.00  0.00    -0.267 OA
HETATM    4  H   UNL     1      40.964 -11.704   4.512  1.00  0.00     0.169 HD
ENDROOT
BRANCH   2   5
HETATM    5  C   UNL     1      42.816 -12.206   5.260  1.00  0.00     0.035 A 
HETATM    6  C   UNL     1      42.896 -12.550   6.605  1.00  0.00     0.032 A 
HETATM    7  C   UNL     1      44.015 -12.179   7.366  1.00  0.00     0.039 A 
HETATM    8  C   UNL     1      45.089 -11.502   6.786  1.00  0.00     0.069 A 
HETATM    9  C   UNL     1      45.070 -11.274   5.413  1.00  0.00     0.039 A 
HETATM   10  C   UNL     1      43.940 -11.618   4.662  1.00  0.00     0.032 A 
BRANCH   8  11
HETATM   11  O   UNL     1      46.067 -11.112   7.656  1.00  0.00    -0.342 OA
BRANCH  11  12
HETATM   12  C   UNL     1      46.421  -9.731   7.676  1.00  0.00     0.278 C 
BRANCH  12  13
HETATM   13  C   UNL     1      45.573  -8.953   8.681  1.00  0.00     0.241 C 
HETATM   14  N   UNL     1      45.249  -9.669   9.815  1.00  0.00    -0.364 N 
HETATM   15  C   UNL     1      44.296  -9.186  10.781  1.00  0.00     0.149 C 
HETATM   16  H   UNL     1      45.615 -10.611   9.899  1.00  0.00     0.161 HD
HETATM   17  O   UNL     1      45.137  -7.830   8.441  1.00  0.00    -0.271 OA
ENDBRANCH  12  13
ENDBRANCH  11  12
ENDBRANCH   8  11
ENDBRANCH   2   5
BRANCH   1  18
HETATM   18  C   UNL     1      42.058 -14.575   3.324  1.00  0.00     0.076 A 
HETATM   19  C   UNL     1      43.127 -14.759   2.415  1.00  0.00     0.158 A 
HETATM   20  N   UNL     1      43.583 -16.008   2.388  1.00  0.00    -0.183 NA
HETATM   21  N   UNL     1      42.880 -16.628   3.358  1.00  0.00    -0.268 N 
HETATM   22  C   UNL     1      41.980 -15.793   3.994  1.00  0.00     0.052 A 
BRANCH  21  23
HETATM   23  C   UNL     1      43.077 -18.061   3.576  1.00  0.00     0.106 C 
HETATM   24  C   UNL     1      43.172 -18.776   2.225  1.00  0.00     0.034 C 
BRANCH  23  25
HETATM   25  C   UNL     1      44.294 -18.411   4.457  1.00  0.00     0.022 C 
HETATM   26  C   UNL     1      44.282 -19.858   4.934  1.00  0.00     0.007 C 
ENDBRANCH  23  25
ENDBRANCH  21  23
BRANCH  22  27
HETATM   27  C   UNL     1      41.097 -16.231   5.168  1.00  0.00     0.038 A 
HETATM   28  C   UNL     1      41.668 -16.187   6.568  1.00  0.00     0.011 A 
HETATM   29  C   UNL     1      40.565 -15.254   6.186  1.00  0.00     0.011 A 
ENDBRANCH  22  27
ENDBRANCH   1  18
TORSDOF 8
ENDMDL
MODEL 2
REMARK VINA RESULT:      -7.4      1.662      2.986
REMARK  8 active torsions:
REMARK  status: ('A' for Active; 'I' for Inactive)
REMARK    1  A    between atoms: C_2  and  C_3 
REMARK    2  A    between atoms: C_3  and  N_4 
REMARK    3  A    between atoms: C_7  and  C_8 
REMARK       I    between atoms: C_8  and  N_9 
REMARK    4  A    between atoms: N_9  and  C_10 
REMARK    5  A    between atoms: C_13  and  O_14 
REMARK    6  A    between atoms: O_14  and  C_15 
REMARK    7  A    between atoms: C_15  and  C_16 
REMARK       I    between atoms: C_16  and  N_17 
REMARK    8  A    between atoms: C_23  and  C_24 
ROOT
HETATM    1  C   UNL     1      40.536 -15.044   3.234  1.00  0.00     0.259 C 
HETATM    2  N   UNL     1      40.885 -13.726   3.033  1.00  0.00    -0.323 N 
HETATM    3  O   UNL     1      39.642 -15.484   2.510  1.00  0.00    -0.267 OA
HETATM    4  H   UNL     1      40.250 -13.320   2.357  1.00  0.00     0.169 HD
ENDROOT
BRANCH   2   5
HETATM    5  C   UNL     1      41.841 -12.851   3.578  1.00  0.00     0.035 A 
HETATM    6  C   UNL     1      43.078 -12.545   3.020  1.00  0.00     0.032 A 
HETATM    7  C   UNL     1      44.004 -11.768   3.734  1.00  0.00     0.039 A 
HETATM    8  C   UNL     1      43.692 -11.248   4.990  1.00  0.00     0.069 A 
HETATM    9  C   UNL     1      42.408 -11.441   5.491  1.00  0.00     0.039 A 
HETATM   10  C   UNL     1      41.496 -12.241   4.792  1.00  0.00     0.032 A 
BRANCH   8  11
HETATM   11  O   UNL     1      44.714 -10.595   5.619  1.00  0.00    -0.342 OA
BRANCH  11  12
HETATM   12  C   UNL     1      45.458 -11.321   6.594  1.00  0.00     0.278 C 
BRANCH  12  13
HETATM   13  C   UNL     1      45.829 -10.436   7.784  1.00  0.00     0.241 C 
HETATM   14  N   UNL     1      45.061 -10.655   8.908  1.00  0.00    -0.364 N 
HETATM   15  C   UNL     1      45.119  -9.791  10.058  1.00  0.00     0.149 C 
HETATM   16  H   UNL     1      44.358 -11.385   8.864  1.00  0.00     0.161 HD
HETATM   17  O   UNL     1      46.666  -9.540   7.698  1.00  0.00    -0.271 OA
ENDBRANCH  12  13
ENDBRANCH  11  12
ENDBRANCH   8  11
ENDBRANCH   2   5
BRANCH   1  18
HETATM   18  C   UNL     1      41.129 -15.837   4.291  1.00  0.00     0.076 A 
HETATM   19  C   UNL     1      40.534 -16.130   5.541  1.00  0.00     0.158 A 
HETATM   20  N   UNL     1      41.333 -16.812   6.356  1.00  0.00    -0.183 NA
HETATM   21  N   UNL     1      42.424 -17.060   5.603  1.00  0.00    -0.268 N 
HETATM   22  C   UNL     1      42.331 -16.539   4.325  1.00  0.00     0.052 A 
BRANCH  21  23
HETATM   23  C   UNL     1      43.564 -17.752   6.203  1.00  0.00     0.106 C 
HETATM   24  C   UNL     1      43.924 -17.085   7.535  1.00  0.00     0.034 C 
BRANCH  23  25
HETATM   25  C   UNL     1      43.359 -19.268   6.400  1.00  0.00     0.022 C 
HETATM   26  C   UNL     1      44.011 -20.100   5.303  1.00  0.00     0.007 C 
ENDBRANCH  23  25
ENDBRANCH  21  23
BRANCH  22  27
HETATM   27  C   UNL     1      43.408 -16.725   3.250  1.00  0.00     0.038 A 
HETATM   28  C   UNL     1      43.275 -17.872   2.274  1.00  0.00     0.011 A 
HETATM   29  C   UNL     1      43.143 -16.465   1.789  1.00  0.00     0.011 A 
ENDBRANCH  22  27
ENDBRANCH   1  18
TORSDOF 8
ENDMDL
MODEL 3
REMARK VINA RESULT:      -7.1      3.902      7.946
REMARK  8 active torsions:
REMARK  status: ('A' for Active; 'I' for Inactive)
REMARK    1  A    between atoms: C_2  and  C_3 
REMARK    2  A    between atoms: C_3  and  N_4 
REMARK    3  A    between atoms: C_7  and  C_8 
REMARK       I    between atoms: C_8  and  N_9 
REMARK    4  A    between atoms: N_9  and  C_10 
REMARK    5  A    between atoms: C_13  and  O_14 
REMARK    6  A    between atoms: O_14  and  C_15 
REMARK    7  A    between atoms: C_15  and  C_16 
REMARK       I    between atoms: C_16  and  N_17 
REMARK    8  A    between atoms: C_23  and  C_24 
ROOT
HETATM    1  C   UNL     1      39.996 -13.580   5.348  1.00  0.00     0.259 C 
HETATM    2  N   UNL     1      39.469 -13.065   4.182  1.00  0.00    -0.323 N 
HETATM    3  O   UNL     1      39.692 -12.990   6.386  1.00  0.00    -0.267 OA
HETATM    4  H   UNL     1      38.980 -12.205   4.398  1.00  0.00     0.169 HD
ENDROOT
BRANCH   2   5
HETATM    5  C   UNL     1      39.511 -13.421   2.823  1.00  0.00     0.035 A 
HETATM    6  C   UNL     1      39.737 -14.698   2.321  1.00  0.00     0.032 A 
HETATM    7  C   UNL     1      39.899 -14.899   0.942  1.00  0.00     0.039 A 
HETATM    8  C   UNL     1      39.791 -13.838   0.042  1.00  0.00     0.069 A 
HETATM    9  C   UNL     1      39.434 -12.584   0.529  1.00  0.00     0.039 A 
HETATM   10  C   UNL     1      39.303 -12.380   1.908  1.00  0.00     0.032 A 
BRANCH   8  11
HETATM   11  O   UNL     1      40.069 -14.150  -1.259  1.00  0.00    -0.342 OA
BRANCH  11  12
HETATM   12  C   UNL     1      39.211 -15.084  -1.911  1.00  0.00     0.278 C 
BRANCH  12  13
HETATM   13  C   UNL     1      38.316 -14.394  -2.940  1.00  0.00     0.241 C 
HETATM   14  N   UNL     1      37.406 -13.514  -2.394  1.00  0.00    -0.364 N 
HETATM   15  C   UNL     1      36.349 -12.922  -3.171  1.00  0.00     0.149 C 
HETATM   16  H   UNL     1      37.427 -13.378  -1.389  1.00  0.00     0.161 HD
HETATM   17  O   UNL     1      38.345 -14.687  -4.133  1.00  0.00    -0.271 OA
ENDBRANCH  12  13
ENDBRANCH  11  12
ENDBRANCH   8  11
ENDBRANCH   2   5
BRANCH   1  18
HETATM   18  C   UNL     1      40.919 -14.695   5.339  1.00  0.00     0.076 A 
HETATM   19  C   UNL     1      40.603 -16.036   5.665  1.00  0.00     0.158 A 
HETATM   20  N   UNL     1      41.661 -16.842   5.652  1.00  0.00    -0.183 NA
HETATM   21  N   UNL     1      42.663 -16.051   5.217  1.00  0.00    -0.268 N 
HETATM   22  C   UNL     1      42.258 -14.754   4.960  1.00  0.00     0.052 A 
BRANCH  21  23
HETATM   23  C   UNL     1      44.018 -16.595   5.136  1.00  0.00     0.106 C 
HETATM   24  C   UNL     1      44.710 -16.450   6.495  1.00  0.00     0.034 C 
BRANCH  23  25
HETATM   25  C   UNL     1      44.091 -18.057   4.649  1.00  0.00     0.022 C 
HETATM   26  C   UNL     1      43.821 -18.198   3.157  1.00  0.00     0.007 C 
ENDBRANCH  23  25
ENDBRANCH  21  23
BRANCH  22  27
HETATM   27  C   UNL     1      43.185 -13.668   4.403  1.00  0.00     0.038 A 
HETATM   28  C   UNL     1      43.199 -13.413   2.913  1.00  0.00     0.011 A 
HETATM   29  C   UNL     1      42.661 -12.372   3.839  1.00  0.00     0.011 A 
ENDBRANCH  22  27
ENDBRANCH   1  18
TORSDOF 8
ENDMDL
MODEL 4
REMARK VINA RESULT:      -7.0      3.033      5.273
REMARK  8 active torsions:
REMARK  status: ('A' for Active; 'I' for Inactive)
REMARK    1  A    between atoms: C_2  and  C_3 
REMARK    2  A    between atoms: C_3  and  N_4 
REMARK    3  A    between atoms: C_7  and  C_8 
REMARK       I    between atoms: C_8  and  N_9 
REMARK    4  A    between atoms: N_9  and  C_10 
REMARK    5  A    between atoms: C_13  and  O_14 
REMARK    6  A    between atoms: O_14  and  C_15 
REMARK    7  A    between atoms: C_15  and  C_16 
REMARK       I    between atoms: C_16  and  N_17 
REMARK    8  A    between atoms: C_23  and  C_24 
ROOT
HETATM    1  C   UNL     1      43.202 -14.774   7.444  1.00  0.00     0.259 C 
HETATM    2  N   UNL     1      42.995 -13.436   7.184  1.00  0.00    -0.323 N 
HETATM    3  O   UNL     1      43.227 -15.097   8.632  1.00  0.00    -0.267 OA
HETATM    4  H   UNL     1      42.989 -12.931   8.062  1.00  0.00     0.169 HD
ENDROOT
BRANCH   2   5
HETATM    5  C   UNL     1      42.857 -12.652   6.025  1.00  0.00     0.035 A 
HETATM    6  C   UNL     1      41.658 -12.205   5.481  1.00  0.00     0.032 A 
HETATM    7  C   UNL     1      41.643 -11.551   4.240  1.00  0.00     0.039 A 
HETATM    8  C   UNL     1      42.827 -11.293   3.548  1.00  0.00     0.069 A 
HETATM    9  C   UNL     1      44.037 -11.620   4.152  1.00  0.00     0.039 A 
HETATM   10  C   UNL     1      44.048 -12.299   5.376  1.00  0.00     0.032 A 
BRANCH   8  11
HETATM   11  O   UNL     1      42.666 -10.741   2.308  1.00  0.00    -0.342 OA
BRANCH  11  12
HETATM   12  C   UNL     1      41.345 -10.377   1.915  1.00  0.00     0.278 C 
BRANCH  12  13
HETATM   13  C   UNL     1      40.992 -10.955   0.545  1.00  0.00     0.241 C 
HETATM   14  N   UNL     1      40.624 -12.284   0.573  1.00  0.00    -0.364 N 
HETATM   15  C   UNL     1      40.452 -13.058  -0.629  1.00  0.00     0.149 C 
HETATM   16  H   UNL     1      40.589 -12.744   1.476  1.00  0.00     0.161 HD
HETATM   17  O   UNL     1      41.131 -10.311  -0.493  1.00  0.00    -0.271 OA
ENDBRANCH  12  13
ENDBRANCH  11  12
ENDBRANCH   8  11
ENDBRANCH   2   5
BRANCH   1  18
HETATM   18  C   UNL     1      43.461 -15.725   6.383  1.00  0.00     0.076 A 
HETATM   19  C   UNL     1      44.637 -16.497   6.231  1.00  0.00     0.158 A 
HETATM   20  N   UNL     1      44.643 -17.231   5.121  1.00  0.00    -0.183 NA
HETATM   21  N   UNL     1      43.422 -17.019   4.590  1.00  0.00    -0.268 N 
HETATM   22  C   UNL     1      42.644 -16.158   5.342  1.00  0.00     0.052 A 
BRANCH  21  23
HETATM   23  C   UNL     1      43.087 -17.631   3.303  1.00  0.00     0.106 C 
HETATM   24  C   UNL     1      43.230 -16.589   2.190  1.00  0.00     0.034 C 
BRANCH  23  25
HETATM   25  C   UNL     1      43.905 -18.895   2.965  1.00  0.00     0.022 C 
HETATM   26  C   UNL     1      43.153 -19.859   2.056  1.00  0.00     0.007 C 
ENDBRANCH  23  25
ENDBRANCH  21  23
BRANCH  22  27
HETATM   27  C   UNL     1      41.197 -15.792   4.992  1.00  0.00     0.038 A 
HETATM   28  C   UNL     1      40.083 -16.708   5.445  1.00  0.00     0.011 A 
HETATM   29  C   UNL     1      40.206 -15.339   6.033  1.00  0.00     0.011 A 
ENDBRANCH  22  27
ENDBRANCH   1  18
TORSDOF 8
ENDMDL
MODEL 5
REMARK VINA RESULT:      -6.7      3.942      5.810
REMARK  8 active torsions:
REMARK  status: ('A' for Active; 'I' for Inactive)
REMARK    1  A    between atoms: C_2  and  C_3 
REMARK    2  A    between atoms: C_3  and  N_4 
REMARK    3  A    between atoms: C_7  and  C_8 
REMARK       I    between atoms: C_8  and  N_9 
REMARK    4  A    between atoms: N_9  and  C_10 
REMARK    5  A    between atoms: C_13  and  O_14 
REMARK    6  A    between atoms: O_14  and  C_15 
REMARK    7  A    between atoms: C_15  and  C_16 
REMARK       I    between atoms: C_16  and  N_17 
REMARK    8  A    between atoms: C_23  and  C_24 
ROOT
HETATM    1  C   UNL     1      40.242 -15.251   6.234  1.00  0.00     0.259 C 
HETATM    2  N   UNL     1      39.882 -13.924   6.132  1.00  0.00    -0.323 N 
HETATM    3  O   UNL     1      39.752 -15.874   7.177  1.00  0.00    -0.267 OA
HETATM    4  H   UNL     1      39.326 -13.675   6.941  1.00  0.00     0.169 HD
ENDROOT
BRANCH   2   5
HETATM    5  C   UNL     1      40.154 -12.881   5.230  1.00  0.00     0.035 A 
HETATM    6  C   UNL     1      39.213 -12.032   4.658  1.00  0.00     0.032 A 
HETATM    7  C   UNL     1      39.594 -11.122   3.660  1.00  0.00     0.039 A 
HETATM    8  C   UNL     1      40.925 -11.014   3.253  1.00  0.00     0.069 A 
HETATM    9  C   UNL     1      41.888 -11.767   3.918  1.00  0.00     0.039 A 
HETATM   10  C   UNL     1      41.501 -12.696   4.892  1.00  0.00     0.032 A 
BRANCH   8  11
HETATM   11  O   UNL     1      41.145 -10.164   2.207  1.00  0.00    -0.342 OA
BRANCH  11  12
HETATM   12  C   UNL     1      41.703 -10.715   1.016  1.00  0.00     0.278 C 
BRANCH  12  13
HETATM   13  C   UNL     1      40.644 -11.445   0.190  1.00  0.00     0.241 C 
HETATM   14  N   UNL     1      41.087 -12.622  -0.376  1.00  0.00    -0.364 N 
HETATM   15  C   UNL     1      40.309 -13.347  -1.347  1.00  0.00     0.149 C 
HETATM   16  H   UNL     1      42.039 -12.912  -0.178  1.00  0.00     0.161 HD
HETATM   17  O   UNL     1      39.536 -10.962  -0.028  1.00  0.00    -0.271 OA
ENDBRANCH  12  13
ENDBRANCH  11  12
ENDBRANCH   8  11
ENDBRANCH   2   5
BRANCH   1  18
HETATM   18  C   UNL     1      41.205 -15.850   5.335  1.00  0.00     0.076 A 
HETATM   19  C   UNL     1      42.489 -16.328   5.692  1.00  0.00     0.158 A 
HETATM   20  N   UNL     1      43.198 -16.755   4.652  1.00  0.00    -0.183 NA
HETATM   21  N   UNL     1      42.341 -16.655   3.615  1.00  0.00    -0.268 N 
HETATM   22  C   UNL     1      41.102 -16.163   3.981  1.00  0.00     0.052 A 
BRANCH  21  23
HETATM   23  C   UNL     1      42.807 -16.988   2.269  1.00  0.00     0.106 C 
HETATM   24  C   UNL     1      43.515 -15.774   1.658  1.00  0.00     0.034 C 
BRANCH  23  25
HETATM   25  C   UNL     1      43.715 -18.233   2.197  1.00  0.00     0.022 C 
HETATM   26  C   UNL     1      42.929 -19.537   2.172  1.00  0.00     0.007 C 
ENDBRANCH  23  25
ENDBRANCH  21  23
BRANCH  22  27
HETATM   27  C   UNL     1      39.929 -16.003   3.008  1.00  0.00     0.038 A 
HETATM   28  C   UNL     1      39.783 -14.704   2.247  1.00  0.00     0.011 A 
HETATM   29  C   UNL     1      40.119 -15.962   1.514  1.00  0.00     0.011 A 
ENDBRANCH  22  27
ENDBRANCH   1  18
TORSDOF 8
ENDMDL
MODEL 6
REMARK VINA RESULT:      -6.7      2.103      3.202
REMARK  8 active torsions:
REMARK  status: ('A' for Active; 'I' for Inactive)
REMARK    1  A    between atoms: C_2  and  C_3 
REMARK    2  A    between atoms: C_3  and  N_4 
REMARK    3  A    between atoms: C_7  and  C_8 
REMARK       I    between atoms: C_8  and  N_9 
REMARK    4  A    between atoms: N_9  and  C_10 
REMARK    5  A    between atoms: C_13  and  O_14 
REMARK    6  A    between atoms: O_14  and  C_15 
REMARK    7  A    between atoms: C_15  and  C_16 
REMARK       I    between atoms: C_16  and  N_17 
REMARK    8  A    between atoms: C_23  and  C_24 
ROOT
HETATM    1  C   UNL     1      40.380 -15.039   3.240  1.00  0.00     0.259 C 
HETATM    2  N   UNL     1      40.283 -13.663   3.251  1.00  0.00    -0.323 N 
HETATM    3  O   UNL     1      39.814 -15.614   2.309  1.00  0.00    -0.267 OA
HETATM    4  H   UNL     1      39.661 -13.375   2.506  1.00  0.00     0.169 HD
ENDROOT
BRANCH   2   5
HETATM    5  C   UNL     1      40.785 -12.633   4.065  1.00  0.00     0.035 A 
HETATM    6  C   UNL     1      40.224 -12.188   5.257  1.00  0.00     0.032 A 
HETATM    7  C   UNL     1      40.739 -11.054   5.903  1.00  0.00     0.039 A 
HETATM    8  C   UNL     1      41.848 -10.377   5.394  1.00  0.00     0.069 A 
HETATM    9  C   UNL     1      42.492 -10.898   4.276  1.00  0.00     0.039 A 
HETATM   10  C   UNL     1      41.958 -12.011   3.616  1.00  0.00     0.032 A 
BRANCH   8  11
HETATM   11  O   UNL     1      42.186  -9.234   6.061  1.00  0.00    -0.342 OA
BRANCH  11  12
HETATM   12  C   UNL     1      42.107  -9.253   7.485  1.00  0.00     0.278 C 
BRANCH  12  13
HETATM   13  C   UNL     1      43.459  -8.937   8.123  1.00  0.00     0.241 C 
HETATM   14  N   UNL     1      44.060 -10.019   8.732  1.00  0.00    -0.364 N 
HETATM   15  C   UNL     1      45.232  -9.883   9.557  1.00  0.00     0.149 C 
HETATM   16  H   UNL     1      43.583 -10.914   8.680  1.00  0.00     0.161 HD
HETATM   17  O   UNL     1      43.909  -7.795   8.173  1.00  0.00    -0.271 OA
ENDBRANCH  12  13
ENDBRANCH  11  12
ENDBRANCH   8  11
ENDBRANCH   2   5
BRANCH   1  18
HETATM   18  C   UNL     1      41.035 -15.765   4.307  1.00  0.00     0.076 A 
HETATM   19  C   UNL     1      40.490 -16.032   5.586  1.00  0.00     0.158 A 
HETATM   20  N   UNL     1      41.341 -16.649   6.401  1.00  0.00    -0.183 NA
HETATM   21  N   UNL     1      42.418 -16.883   5.624  1.00  0.00    -0.268 N 
HETATM   22  C   UNL     1      42.266 -16.416   4.331  1.00  0.00     0.052 A 
BRANCH  21  23
HETATM   23  C   UNL     1      43.603 -17.505   6.215  1.00  0.00     0.106 C 
HETATM   24  C   UNL     1      43.931 -16.819   7.545  1.00  0.00     0.034 C 
BRANCH  23  25
HETATM   25  C   UNL     1      43.492 -19.031   6.409  1.00  0.00     0.022 C 
HETATM   26  C   UNL     1      44.023 -19.819   5.218  1.00  0.00     0.007 C 
ENDBRANCH  23  25
ENDBRANCH  21  23
BRANCH  22  27
HETATM   27  C   UNL     1      43.317 -16.601   3.231  1.00  0.00     0.038 A 
HETATM   28  C   UNL     1      43.151 -17.737   2.246  1.00  0.00     0.011 A 
HETATM   29  C   UNL     1      43.022 -16.323   1.779  1.00  0.00     0.011 A 
ENDBRANCH  22  27
ENDBRANCH   1  18
TORSDOF 8
ENDMDL
MODEL 7
REMARK VINA RESULT:      -6.6      2.065      2.719
REMARK  8 active torsions:
REMARK  status: ('A' for Active; 'I' for Inactive)
REMARK    1  A    between atoms: C_2  and  C_3 
REMARK    2  A    between atoms: C_3  and  N_4 
REMARK    3  A    between atoms: C_7  and  C_8 
REMARK       I    between atoms: C_8  and  N_9 
REMARK    4  A    between atoms: N_9  and  C_10 
REMARK    5  A    between atoms: C_13  and  O_14 
REMARK    6  A    between atoms: O_14  and  C_15 
REMARK    7  A    between atoms: C_15  and  C_16 
REMARK       I    between atoms: C_16  and  N_17 
REMARK    8  A    between atoms: C_23  and  C_24 
ROOT
HETATM    1  C   UNL     1      42.227 -11.168   3.141  1.00  0.00     0.259 C 
HETATM    2  N   UNL     1      42.489 -10.368   4.233  1.00  0.00    -0.323 N 
HETATM    3  O   UNL     1      41.793 -10.593   2.141  1.00  0.00    -0.267 OA
HETATM    4  H   UNL     1      42.177  -9.426   4.029  1.00  0.00     0.169 HD
ENDROOT
BRANCH   2   5
HETATM    5  C   UNL     1      43.011 -10.576   5.522  1.00  0.00     0.035 A 
HETATM    6  C   UNL     1      42.465 -10.102   6.709  1.00  0.00     0.032 A 
HETATM    7  C   UNL     1      43.159 -10.255   7.919  1.00  0.00     0.039 A 
HETATM    8  C   UNL     1      44.384 -10.922   7.968  1.00  0.00     0.069 A 
HETATM    9  C   UNL     1      44.867 -11.512   6.804  1.00  0.00     0.039 A 
HETATM   10  C   UNL     1      44.188 -11.333   5.593  1.00  0.00     0.032 A 
BRANCH   8  11
HETATM   11  O   UNL     1      45.001 -10.913   9.186  1.00  0.00    -0.342 OA
BRANCH  11  12
HETATM   12  C   UNL     1      44.601  -9.914  10.121  1.00  0.00     0.278 C 
BRANCH  12  13
HETATM   13  C   UNL     1      43.751 -10.508  11.243  1.00  0.00     0.241 C 
HETATM   14  N   UNL     1      42.655  -9.743  11.583  1.00  0.00    -0.364 N 
HETATM   15  C   UNL     1      41.849 -10.027  12.742  1.00  0.00     0.149 C 
HETATM   16  H   UNL     1      42.492  -8.892  11.055  1.00  0.00     0.161 HD
HETATM   17  O   UNL     1      44.084 -11.523  11.850  1.00  0.00    -0.271 OA
ENDBRANCH  12  13
ENDBRANCH  11  12
ENDBRANCH   8  11
ENDBRANCH   2   5
BRANCH   1  18
HETATM   18  C   UNL     1      42.373 -12.607   3.197  1.00  0.00     0.076 A 
HETATM   19  C   UNL     1      43.488 -13.346   2.737  1.00  0.00     0.158 A 
HETATM   20  N   UNL     1      43.324 -14.662   2.838  1.00  0.00    -0.183 NA
HETATM   21  N   UNL     1      42.135 -14.791   3.462  1.00  0.00    -0.268 N 
HETATM   22  C   UNL     1      41.541 -13.577   3.752  1.00  0.00     0.052 A 
BRANCH  21  23
HETATM   23  C   UNL     1      41.590 -16.129   3.690  1.00  0.00     0.106 C 
HETATM   24  C   UNL     1      41.679 -16.945   2.396  1.00  0.00     0.034 C 
BRANCH  23  25
HETATM   25  C   UNL     1      42.247 -16.896   4.856  1.00  0.00     0.022 C 
HETATM   26  C   UNL     1      41.838 -16.359   6.221  1.00  0.00     0.007 C 
ENDBRANCH  23  25
ENDBRANCH  21  23
BRANCH  22  27
HETATM   27  C   UNL     1      40.214 -13.438   4.506  1.00  0.00     0.038 A 
HETATM   28  C   UNL     1      40.242 -13.068   5.972  1.00  0.00     0.011 A 
HETATM   29  C   UNL     1      39.687 -12.105   4.974  1.00  0.00     0.011 A 
ENDBRANCH  22  27
ENDBRANCH   1  18
TORSDOF 8
ENDMDL
MODEL 8
REMARK VINA RESULT:      -6.6      3.675      8.697
REMARK  8 active torsions:
REMARK  status: ('A' for Active; 'I' for Inactive)
REMARK    1  A    between atoms: C_2  and  C_3 
REMARK    2  A    between atoms: C_3  and  N_4 
REMARK    3  A    between atoms: C_7  and  C_8 
REMARK       I    between atoms: C_8  and  N_9 
REMARK    4  A    between atoms: N_9  and  C_10 
REMARK    5  A    between atoms: C_13  and  O_14 
REMARK    6  A    between atoms: O_14  and  C_15 
REMARK    7  A    between atoms: C_15  and  C_16 
REMARK       I    between atoms: C_16  and  N_17 
REMARK    8  A    between atoms: C_23  and  C_24 
ROOT
HETATM    1  C   UNL     1      42.738 -14.717   5.753  1.00  0.00     0.259 C 
HETATM    2  N   UNL     1      42.810 -15.471   4.601  1.00  0.00    -0.323 N 
HETATM    3  O   UNL     1      43.552 -14.995   6.635  1.00  0.00    -0.267 OA
HETATM    4  H   UNL     1      43.494 -16.206   4.736  1.00  0.00     0.169 HD
ENDROOT
BRANCH   2   5
HETATM    5  C   UNL     1      42.136 -15.479   3.368  1.00  0.00     0.035 A 
HETATM    6  C   UNL     1      42.640 -15.008   2.160  1.00  0.00     0.032 A 
HETATM    7  C   UNL     1      41.814 -14.940   1.027  1.00  0.00     0.039 A 
HETATM    8  C   UNL     1      40.491 -15.381   1.071  1.00  0.00     0.069 A 
HETATM    9  C   UNL     1      40.026 -15.974   2.241  1.00  0.00     0.039 A 
HETATM   10  C   UNL     1      40.841 -16.015   3.378  1.00  0.00     0.032 A 
BRANCH   8  11
HETATM   11  O   UNL     1      39.769 -15.166  -0.068  1.00  0.00    -0.342 OA
BRANCH  11  12
HETATM   12  C   UNL     1      39.954 -13.922  -0.741  1.00  0.00     0.278 C 
BRANCH  12  13
HETATM   13  C   UNL     1      39.666 -14.050  -2.236  1.00  0.00     0.241 C 
HETATM   14  N   UNL     1      38.378 -14.447  -2.529  1.00  0.00    -0.364 N 
HETATM   15  C   UNL     1      37.972 -14.817  -3.860  1.00  0.00     0.149 C 
HETATM   16  H   UNL     1      37.740 -14.587  -1.752  1.00  0.00     0.161 HD
HETATM   17  O   UNL     1      40.542 -13.911  -3.086  1.00  0.00    -0.271 OA
ENDBRANCH  12  13
ENDBRANCH  11  12
ENDBRANCH   8  11
ENDBRANCH   2   5
BRANCH   1  18
HETATM   18  C   UNL     1      41.709 -13.716   5.946  1.00  0.00     0.076 A 
HETATM   19  C   UNL     1      40.365 -13.968   6.312  1.00  0.00     0.158 A 
HETATM   20  N   UNL     1      39.615 -12.870   6.340  1.00  0.00    -0.183 NA
HETATM   21  N   UNL     1      40.490 -11.876   6.090  1.00  0.00    -0.268 N 
HETATM   22  C   UNL     1      41.783 -12.326   5.897  1.00  0.00     0.052 A 
BRANCH  21  23
HETATM   23  C   UNL     1      39.998 -10.502   5.980  1.00  0.00     0.106 C 
HETATM   24  C   UNL     1      39.022 -10.402   4.804  1.00  0.00     0.034 C 
BRANCH  23  25
HETATM   25  C   UNL     1      39.349  -9.952   7.266  1.00  0.00     0.022 C 
HETATM   26  C   UNL     1      40.365  -9.363   8.236  1.00  0.00     0.007 C 
ENDBRANCH  23  25
ENDBRANCH  21  23
BRANCH  22  27
HETATM   27  C   UNL     1      42.979 -11.400   5.651  1.00  0.00     0.038 A 
HETATM   28  C   UNL     1      43.573 -10.647   6.821  1.00  0.00     0.011 A 
HETATM   29  C   UNL     1      44.365 -11.722   6.150  1.00  0.00     0.011 A 
ENDBRANCH  22  27
ENDBRANCH   1  18
TORSDOF 8
ENDMDL
MODEL 9
REMARK VINA RESULT:      -6.5      2.457      8.944
REMARK  8 active torsions:
REMARK  status: ('A' for Active; 'I' for Inactive)
REMARK    1  A    between atoms: C_2  and  C_3 
REMARK    2  A    between atoms: C_3  and  N_4 
REMARK    3  A    between atoms: C_7  and  C_8 
REMARK       I    between atoms: C_8  and  N_9 
REMARK    4  A    between atoms: N_9  and  C_10 
REMARK    5  A    between atoms: C_13  and  O_14 
REMARK    6  A    between atoms: O_14  and  C_15 
REMARK    7  A    between atoms: C_15  and  C_16 
REMARK       I    between atoms: C_16  and  N_17 
REMARK    8  A    between atoms: C_23  and  C_24 
ROOT
HETATM    1  C   UNL     1      45.567  -9.596   8.058  1.00  0.00     0.259 C 
HETATM    2  N   UNL     1      45.260 -10.402   6.982  1.00  0.00    -0.323 N 
HETATM    3  O   UNL     1      46.586  -8.912   7.949  1.00  0.00    -0.267 OA
HETATM    4  H   UNL     1      46.013 -10.344   6.307  1.00  0.00     0.169 HD
ENDROOT
BRANCH   2   5
HETATM    5  C   UNL     1      44.215 -11.285   6.661  1.00  0.00     0.035 A 
HETATM    6  C   UNL     1      42.966 -10.926   6.167  1.00  0.00     0.032 A 
HETATM    7  C   UNL     1      41.957 -11.890   6.022  1.00  0.00     0.039 A 
HETATM    8  C   UNL     1      42.194 -13.232   6.323  1.00  0.00     0.069 A 
HETATM    9  C   UNL     1      43.481 -13.615   6.690  1.00  0.00     0.039 A 
HETATM   10  C   UNL     1      44.477 -12.647   6.863  1.00  0.00     0.032 A 
BRANCH   8  11
HETATM   11  O   UNL     1      41.102 -14.048   6.235  1.00  0.00    -0.342 OA
BRANCH  11  12
HETATM   12  C   UNL     1      41.331 -15.426   5.948  1.00  0.00     0.278 C 
BRANCH  12  13
HETATM   13  C   UNL     1      41.311 -15.693   4.443  1.00  0.00     0.241 C 
HETATM   14  N   UNL     1      40.236 -15.131   3.787  1.00  0.00    -0.364 N 
HETATM   15  C   UNL     1      39.932 -15.434   2.413  1.00  0.00     0.149 C 
HETATM   16  H   UNL     1      39.586 -14.579   4.335  1.00  0.00     0.161 HD
HETATM   17  O   UNL     1      42.128 -16.432   3.899  1.00  0.00    -0.271 OA
ENDBRANCH  12  13
ENDBRANCH  11  12
ENDBRANCH   8  11
ENDBRANCH   2   5
BRANCH   1  18
HETATM   18  C   UNL     1      44.785  -9.621   9.277  1.00  0.00     0.076 A 
HETATM   19  C   UNL     1      44.856 -10.607  10.289  1.00  0.00     0.158 A 
HETATM   20  N   UNL     1      43.967 -10.427  11.261  1.00  0.00    -0.183 NA
HETATM   21  N   UNL     1      43.373  -9.259  10.941  1.00  0.00    -0.268 N 
HETATM   22  C   UNL     1      43.867  -8.700   9.777  1.00  0.00     0.052 A 
BRANCH  21  23
HETATM   23  C   UNL     1      42.274  -8.766  11.771  1.00  0.00     0.106 C 
HETATM   24  C   UNL     1      41.031  -9.633  11.542  1.00  0.00     0.034 C 
BRANCH  23  25
HETATM   25  C   UNL     1      42.600  -8.681  13.276  1.00  0.00     0.022 C 
HETATM   26  C   UNL     1      43.304  -7.385  13.656  1.00  0.00     0.007 C 
ENDBRANCH  23  25
ENDBRANCH  21  23
BRANCH  22  27
HETATM   27  C   UNL     1      43.406  -7.349   9.219  1.00  0.00     0.038 A 
HETATM   28  C   UNL     1      42.629  -7.321   7.922  1.00  0.00     0.011 A 
HETATM   29  C   UNL     1      41.956  -6.937   9.199  1.00  0.00     0.011 A 
ENDBRANCH  22  27
ENDBRANCH   1  18
TORSDOF 8
ENDMDL
MODEL 10
REMARK VINA RESULT:      -6.4     16.187     18.303
REMARK  8 active torsions:
REMARK  status: ('A' for Active; 'I' for Inactive)
REMARK    1  A    between atoms: C_2  and  C_3 
REMARK    2  A    between atoms: C_3  and  N_4 
REMARK    3  A    between atoms: C_7  and  C_8 
REMARK       I    between atoms: C_8  and  N_9 
REMARK    4  A    between atoms: N_9  and  C_10 
REMARK    5  A    between atoms: C_13  and  O_14 
REMARK    6  A    between atoms: O_14  and  C_15 
REMARK    7  A    between atoms: C_15  and  C_16 
REMARK       I    between atoms: C_16  and  N_17 
REMARK    8  A    between atoms: C_23  and  C_24 
ROOT
HETATM    1  C   UNL     1      43.214 -29.308   1.185  1.00  0.00     0.259 C 
HETATM    2  N   UNL     1      44.033 -29.051   2.264  1.00  0.00    -0.323 N 
HETATM    3  O   UNL     1      42.076 -28.841   1.246  1.00  0.00    -0.267 OA
HETATM    4  H   UNL     1      43.492 -28.578   2.978  1.00  0.00     0.169 HD
ENDROOT
BRANCH   2   5
HETATM    5  C   UNL     1      45.368 -29.339   2.596  1.00  0.00     0.035 A 
HETATM    6  C   UNL     1      46.463 -28.516   2.357  1.00  0.00     0.032 A 
HETATM    7  C   UNL     1      47.765 -28.980   2.606  1.00  0.00     0.039 A 
HETATM    8  C   UNL     1      47.988 -30.250   3.138  1.00  0.00     0.069 A 
HETATM    9  C   UNL     1      46.889 -31.022   3.502  1.00  0.00     0.039 A 
HETATM   10  C   UNL     1      45.593 -30.571   3.225  1.00  0.00     0.032 A 
BRANCH   8  11
HETATM   11  O   UNL     1      49.301 -30.615   3.237  1.00  0.00    -0.342 OA
BRANCH  11  12
HETATM   12  C   UNL     1      50.249 -29.882   2.466  1.00  0.00     0.278 C 
BRANCH  12  13
HETATM   13  C   UNL     1      50.699 -30.672   1.237  1.00  0.00     0.241 C 
HETATM   14  N   UNL     1      50.874 -32.020   1.470  1.00  0.00    -0.364 N 
HETATM   15  C   UNL     1      51.483 -32.894   0.501  1.00  0.00     0.149 C 
HETATM   16  H   UNL     1      50.665 -32.369   2.400  1.00  0.00     0.161 HD
HETATM   17  O   UNL     1      50.978 -30.126   0.173  1.00  0.00    -0.271 OA
ENDBRANCH  12  13
ENDBRANCH  11  12
ENDBRANCH   8  11
ENDBRANCH   2   5
BRANCH   1  18
HETATM   18  C   UNL     1      43.641 -30.150   0.087  1.00  0.00     0.076 A 
HETATM   19  C   UNL     1      43.412 -31.542  -0.029  1.00  0.00     0.158 A 
HETATM   20  N   UNL     1      43.985 -32.080  -1.101  1.00  0.00    -0.183 NA
HETATM   21  N   UNL     1      44.510 -31.022  -1.751  1.00  0.00    -0.268 N 
HETATM   22  C   UNL     1      44.284 -29.821  -1.104  1.00  0.00     0.052 A 
BRANCH  21  23
HETATM   23  C   UNL     1      45.286 -31.246  -2.971  1.00  0.00     0.106 C 
HETATM   24  C   UNL     1      46.263 -32.405  -2.749  1.00  0.00     0.034 C 
BRANCH  23  25
HETATM   25  C   UNL     1      44.435 -31.494  -4.233  1.00  0.00     0.022 C 
HETATM   26  C   UNL     1      44.012 -30.204  -4.924  1.00  0.00     0.007 C 
ENDBRANCH  23  25
ENDBRANCH  21  23
BRANCH  22  27
HETATM   27  C   UNL     1      44.726 -28.461  -1.655  1.00  0.00     0.038 A 
HETATM   28  C   UNL     1      45.923 -27.775  -1.037  1.00  0.00     0.011 A 
HETATM   29  C   UNL     1      46.000 -28.283  -2.440  1.00  0.00     0.011 A 
ENDBRANCH  22  27
ENDBRANCH   1  18
TORSDOF 8
ENDMDL
