MODEL 1
REMARK VINA RESULT:      -8.9      0.000      0.000
REMARK  7 active torsions:
REMARK  status: ('A' for Active; 'I' for Inactive)
REMARK    1  A    between atoms: C_4  and  C_5 
REMARK    2  A    between atoms: C_12  and  C_13 
REMARK       I    between atoms: C_13  and  N_14 
REMARK    3  A    between atoms: N_14  and  N_15 
REMARK       I    between atoms: N_15  and  C_16 
REMARK    4  A    between atoms: C_16  and  C_17 
REMARK    5  A    between atoms: C_17  and  C_18 
REMARK    6  A    between atoms: C_18  and  C_19 
REMARK    7  A    between atoms: C_22  and  O_23 
ROOT
HETATM    1  C   UNL     1      42.927 -13.321   6.109  1.00  0.00     0.272 C 
HETATM    2  N   UNL     1      44.101 -12.732   6.527  1.00  0.00    -0.263 N 
HETATM    3  O   UNL     1      41.823 -12.815   6.288  1.00  0.00    -0.266 OA
HETATM    4  H   UNL     1      45.034 -13.097   6.345  1.00  0.00     0.190 HD
ENDROOT
BRANCH   2   5
HETATM    5  N   UNL     1      44.030 -11.515   7.205  1.00  0.00    -0.267 N 
HETATM    6  C   UNL     1      45.205 -10.823   7.400  1.00  0.00     0.236 C 
HETATM    7  O   UNL     1      46.265 -11.158   6.870  1.00  0.00    -0.272 OA
HETATM    8  H   UNL     1      43.166 -11.329   7.709  1.00  0.00     0.190 HD
BRANCH   6   9
HETATM    9  C   UNL     1      45.088  -9.585   8.261  1.00  0.00     0.109 C 
BRANCH   9  10
HETATM   10  C   UNL     1      45.447  -9.813   9.729  1.00  0.00     0.048 C 
BRANCH  10  11
HETATM   11  C   UNL     1      44.312  -9.781  10.729  1.00  0.00    -0.058 A 
HETATM   12  C   UNL     1      43.924 -10.900  11.472  1.00  0.00     0.010 A 
HETATM   13  C   UNL     1      42.883 -10.809  12.401  1.00  0.00     0.037 A 
HETATM   14  C   UNL     1      42.223  -9.600  12.623  1.00  0.00     0.068 A 
HETATM   15  C   UNL     1      42.614  -8.476  11.902  1.00  0.00     0.037 A 
HETATM   16  C   UNL     1      43.653  -8.565  10.967  1.00  0.00     0.010 A 
BRANCH  14  17
HETATM   17  O   UNL     1      41.230  -9.653  13.560  1.00  0.00    -0.356 OA
HETATM   18  C   UNL     1      39.985 -10.202  13.145  1.00  0.00     0.210 C 
ENDBRANCH  14  17
ENDBRANCH  10  11
ENDBRANCH   9  10
ENDBRANCH   6   9
ENDBRANCH   2   5
BRANCH   1  19
HETATM   19  C   UNL     1      43.083 -14.618   5.411  1.00  0.00     0.058 A 
HETATM   20  C   UNL     1      43.248 -15.812   6.113  1.00  0.00     0.047 A 
HETATM   21  C   UNL     1      43.283 -15.869   7.612  1.00  0.00     0.071 C 
HETATM   22  N   UNL     1      43.379 -17.010   5.479  1.00  0.00    -0.252 NA
HETATM   23  C   UNL     1      43.369 -17.042   4.120  1.00  0.00     0.074 A 
HETATM   24  C   UNL     1      43.218 -15.887   3.361  1.00  0.00     0.034 A 
HETATM   25  C   UNL     1      43.074 -14.663   4.013  1.00  0.00     0.021 A 
BRANCH  23  26
HETATM   26  C   UNL     1      43.511 -18.394   3.555  1.00  0.00     0.033 A 
HETATM   27  S   UNL     1      44.100 -19.715   4.488  1.00  0.00    -0.100 SA
HETATM   28  C   UNL     1      43.948 -20.810   3.187  1.00  0.00     0.050 A 
HETATM   29  C   UNL     1      43.457 -20.202   2.056  1.00  0.00     0.008 A 
HETATM   30  C   UNL     1      43.200 -18.817   2.272  1.00  0.00     0.021 A 
ENDBRANCH  23  26
ENDBRANCH   1  19
TORSDOF 7
ENDMDL
MODEL 2
REMARK VINA RESULT:      -8.6      0.770      1.430
REMARK  7 active torsions:
REMARK  status: ('A' for Active; 'I' for Inactive)
REMARK    1  A    between atoms: C_4  and  C_5 
REMARK    2  A    between atoms: C_12  and  C_13 
REMARK       I    between atoms: C_13  and  N_14 
REMARK    3  A    between atoms: N_14  and  N_15 
REMARK       I    between atoms: N_15  and  C_16 
REMARK    4  A    between atoms: C_16  and  C_17 
REMARK    5  A    between atoms: C_17  and  C_18 
REMARK    6  A    between atoms: C_18  and  C_19 
REMARK    7  A    between atoms: C_22  and  O_23 
ROOT
HETATM    1  C   UNL     1      42.981 -13.369   6.306  1.00  0.00     0.272 C 
HETATM    2  N   UNL     1      44.073 -12.916   7.014  1.00  0.00    -0.263 N 
HETATM    3  O   UNL     1      41.951 -12.716   6.172  1.00  0.00    -0.266 OA
HETATM    4  H   UNL     1      44.962 -13.408   7.096  1.00  0.00     0.190 HD
ENDROOT
BRANCH   2   5
HETATM    5  N   UNL     1      43.997 -11.666   7.627  1.00  0.00    -0.267 N 
HETATM    6  C   UNL     1      45.130 -10.884   7.628  1.00  0.00     0.236 C 
HETATM    7  O   UNL     1      46.137 -11.179   6.984  1.00  0.00    -0.272 OA
HETATM    8  H   UNL     1      43.190 -11.507   8.228  1.00  0.00     0.190 HD
BRANCH   6   9
HETATM    9  C   UNL     1      45.028  -9.603   8.428  1.00  0.00     0.109 C 
BRANCH   9  10
HETATM   10  C   UNL     1      45.451  -9.749   9.890  1.00  0.00     0.048 C 
BRANCH  10  11
HETATM   11  C   UNL     1      44.359  -9.667  10.934  1.00  0.00    -0.058 A 
HETATM   12  C   UNL     1      43.789 -10.799  11.525  1.00  0.00     0.010 A 
HETATM   13  C   UNL     1      42.799 -10.666  12.504  1.00  0.00     0.037 A 
HETATM   14  C   UNL     1      42.372  -9.407  12.927  1.00  0.00     0.068 A 
HETATM   15  C   UNL     1      42.947  -8.274  12.357  1.00  0.00     0.037 A 
HETATM   16  C   UNL     1      43.935  -8.404  11.373  1.00  0.00     0.010 A 
BRANCH  14  17
HETATM   17  O   UNL     1      41.403  -9.424  13.890  1.00  0.00    -0.356 OA
HETATM   18  C   UNL     1      41.500  -8.441  14.914  1.00  0.00     0.210 C 
ENDBRANCH  14  17
ENDBRANCH  10  11
ENDBRANCH   9  10
ENDBRANCH   6   9
ENDBRANCH   2   5
BRANCH   1  19
HETATM   19  C   UNL     1      43.134 -14.712   5.697  1.00  0.00     0.058 A 
HETATM   20  C   UNL     1      43.054 -14.903   4.318  1.00  0.00     0.047 A 
HETATM   21  C   UNL     1      42.806 -13.776   3.359  1.00  0.00     0.071 C 
HETATM   22  N   UNL     1      43.208 -16.132   3.750  1.00  0.00    -0.252 NA
HETATM   23  C   UNL     1      43.426 -17.207   4.552  1.00  0.00     0.074 A 
HETATM   24  C   UNL     1      43.506 -17.085   5.935  1.00  0.00     0.034 A 
HETATM   25  C   UNL     1      43.359 -15.825   6.513  1.00  0.00     0.021 A 
BRANCH  23  26
HETATM   26  C   UNL     1      43.581 -18.475   3.820  1.00  0.00     0.033 A 
HETATM   27  S   UNL     1      44.124 -19.913   4.595  1.00  0.00    -0.100 SA
HETATM   28  C   UNL     1      44.016 -20.827   3.157  1.00  0.00     0.050 A 
HETATM   29  C   UNL     1      43.574 -20.071   2.097  1.00  0.00     0.008 A 
HETATM   30  C   UNL     1      43.317 -18.723   2.482  1.00  0.00     0.021 A 
ENDBRANCH  23  26
ENDBRANCH   1  19
TORSDOF 7
ENDMDL
MODEL 3
REMARK VINA RESULT:      -8.3      3.622     10.886
REMARK  7 active torsions:
REMARK  status: ('A' for Active; 'I' for Inactive)
REMARK    1  A    between atoms: C_4  and  C_5 
REMARK    2  A    between atoms: C_12  and  C_13 
REMARK       I    between atoms: C_13  and  N_14 
REMARK    3  A    between atoms: N_14  and  N_15 
REMARK       I    between atoms: N_15  and  C_16 
REMARK    4  A    between atoms: C_16  and  C_17 
REMARK    5  A    between atoms: C_17  and  C_18 
REMARK    6  A    between atoms: C_18  and  C_19 
REMARK    7  A    between atoms: C_22  and  O_23 
ROOT
HETATM    1  C   UNL     1      44.368 -10.747   8.494  1.00  0.00     0.272 C 
HETATM    2  N   UNL     1      43.373 -11.280   7.704  1.00  0.00    -0.263 N 
HETATM    3  O   UNL     1      45.551 -10.745   8.170  1.00  0.00    -0.266 OA
HETATM    4  H   UNL     1      42.377 -11.247   7.918  1.00  0.00     0.190 HD
ENDROOT
BRANCH   2   5
HETATM    5  N   UNL     1      43.728 -11.864   6.489  1.00  0.00    -0.267 N 
HETATM    6  C   UNL     1      42.753 -12.549   5.799  1.00  0.00     0.236 C 
HETATM    7  O   UNL     1      41.568 -12.527   6.134  1.00  0.00    -0.272 OA
HETATM    8  H   UNL     1      44.726 -11.946   6.303  1.00  0.00     0.190 HD
BRANCH   6   9
HETATM    9  C   UNL     1      43.230 -13.278   4.562  1.00  0.00     0.109 C 
BRANCH   9  10
HETATM   10  C   UNL     1      42.211 -14.267   3.993  1.00  0.00     0.048 C 
BRANCH  10  11
HETATM   11  C   UNL     1      42.692 -15.678   3.736  1.00  0.00    -0.058 A 
HETATM   12  C   UNL     1      42.462 -16.350   2.532  1.00  0.00     0.010 A 
HETATM   13  C   UNL     1      42.950 -17.646   2.337  1.00  0.00     0.037 A 
HETATM   14  C   UNL     1      43.692 -18.290   3.327  1.00  0.00     0.068 A 
HETATM   15  C   UNL     1      43.942 -17.622   4.524  1.00  0.00     0.037 A 
HETATM   16  C   UNL     1      43.450 -16.326   4.723  1.00  0.00     0.010 A 
BRANCH  14  17
HETATM   17  O   UNL     1      44.109 -19.550   3.004  1.00  0.00    -0.356 OA
HETATM   18  C   UNL     1      43.356 -20.241   2.014  1.00  0.00     0.210 C 
ENDBRANCH  14  17
ENDBRANCH  10  11
ENDBRANCH   9  10
ENDBRANCH   6   9
ENDBRANCH   2   5
BRANCH   1  19
HETATM   19  C   UNL     1      43.913 -10.159   9.776  1.00  0.00     0.058 A 
HETATM   20  C   UNL     1      43.577  -8.809   9.882  1.00  0.00     0.047 A 
HETATM   21  C   UNL     1      43.656  -7.863   8.721  1.00  0.00     0.071 C 
HETATM   22  N   UNL     1      43.144  -8.264  11.053  1.00  0.00    -0.252 NA
HETATM   23  C   UNL     1      43.056  -9.053  12.156  1.00  0.00     0.074 A 
HETATM   24  C   UNL     1      43.385 -10.404  12.119  1.00  0.00     0.034 A 
HETATM   25  C   UNL     1      43.817 -10.962  10.916  1.00  0.00     0.021 A 
BRANCH  23  26
HETATM   26  C   UNL     1      42.570  -8.350  13.355  1.00  0.00     0.033 A 
HETATM   27  S   UNL     1      41.083  -8.767  14.116  1.00  0.00    -0.100 SA
HETATM   28  C   UNL     1      41.273  -7.578  15.326  1.00  0.00     0.050 A 
HETATM   29  C   UNL     1      42.442  -6.870  15.173  1.00  0.00     0.008 A 
HETATM   30  C   UNL     1      43.188  -7.320  14.046  1.00  0.00     0.021 A 
ENDBRANCH  23  26
ENDBRANCH   1  19
TORSDOF 7
ENDMDL
MODEL 4
REMARK VINA RESULT:      -7.8      2.343      3.358
REMARK  7 active torsions:
REMARK  status: ('A' for Active; 'I' for Inactive)
REMARK    1  A    between atoms: C_4  and  C_5 
REMARK    2  A    between atoms: C_12  and  C_13 
REMARK       I    between atoms: C_13  and  N_14 
REMARK    3  A    between atoms: N_14  and  N_15 
REMARK       I    between atoms: N_15  and  C_16 
REMARK    4  A    between atoms: C_16  and  C_17 
REMARK    5  A    between atoms: C_17  and  C_18 
REMARK    6  A    between atoms: C_18  and  C_19 
REMARK    7  A    between atoms: C_22  and  O_23 
ROOT
HETATM    1  C   UNL     1      43.717 -11.481   6.831  1.00  0.00     0.272 C 
HETATM    2  N   UNL     1      42.698 -11.181   7.710  1.00  0.00    -0.263 N 
HETATM    3  O   UNL     1      44.688 -10.752   6.658  1.00  0.00    -0.266 OA
HETATM    4  H   UNL     1      41.908 -11.790   7.918  1.00  0.00     0.190 HD
ENDROOT
BRANCH   2   5
HETATM    5  N   UNL     1      42.762  -9.981   8.418  1.00  0.00    -0.267 N 
HETATM    6  C   UNL     1      43.238 -10.026   9.710  1.00  0.00     0.236 C 
HETATM    7  O   UNL     1      43.744 -11.040  10.193  1.00  0.00    -0.272 OA
HETATM    8  H   UNL     1      42.245  -9.197   8.025  1.00  0.00     0.190 HD
BRANCH   6   9
HETATM    9  C   UNL     1      43.152  -8.723  10.474  1.00  0.00     0.109 C 
BRANCH   9  10
HETATM   10  C   UNL     1      43.892  -8.738  11.812  1.00  0.00     0.048 C 
BRANCH  10  11
HETATM   11  C   UNL     1      43.110  -8.314  13.035  1.00  0.00    -0.058 A 
HETATM   12  C   UNL     1      43.296  -7.078  13.663  1.00  0.00     0.010 A 
HETATM   13  C   UNL     1      42.530  -6.725  14.778  1.00  0.00     0.037 A 
HETATM   14  C   UNL     1      41.550  -7.584  15.276  1.00  0.00     0.068 A 
HETATM   15  C   UNL     1      41.344  -8.809  14.647  1.00  0.00     0.037 A 
HETATM   16  C   UNL     1      42.115  -9.168  13.534  1.00  0.00     0.010 A 
BRANCH  14  17
HETATM   17  O   UNL     1      40.874  -7.113  16.366  1.00  0.00    -0.356 OA
HETATM   18  C   UNL     1      40.849  -7.948  17.517  1.00  0.00     0.210 C 
ENDBRANCH  14  17
ENDBRANCH  10  11
ENDBRANCH   9  10
ENDBRANCH   6   9
ENDBRANCH   2   5
BRANCH   1  19
HETATM   19  C   UNL     1      43.569 -12.764   6.105  1.00  0.00     0.058 A 
HETATM   20  C   UNL     1      43.192 -12.805   4.762  1.00  0.00     0.047 A 
HETATM   21  C   UNL     1      42.909 -11.566   3.964  1.00  0.00     0.071 C 
HETATM   22  N   UNL     1      43.067 -13.980   4.084  1.00  0.00    -0.252 NA
HETATM   23  C   UNL     1      43.296 -15.148   4.739  1.00  0.00     0.074 A 
HETATM   24  C   UNL     1      43.665 -15.176   6.080  1.00  0.00     0.034 A 
HETATM   25  C   UNL     1      43.802 -13.972   6.769  1.00  0.00     0.021 A 
BRANCH  23  26
HETATM   26  C   UNL     1      43.136 -16.345   3.898  1.00  0.00     0.033 A 
HETATM   27  S   UNL     1      42.009 -16.401   2.598  1.00  0.00    -0.100 SA
HETATM   28  C   UNL     1      42.440 -18.000   2.183  1.00  0.00     0.050 A 
HETATM   29  C   UNL     1      43.424 -18.498   3.004  1.00  0.00     0.008 A 
HETATM   30  C   UNL     1      43.827 -17.544   3.983  1.00  0.00     0.021 A 
ENDBRANCH  23  26
ENDBRANCH   1  19
TORSDOF 7
ENDMDL
MODEL 5
REMARK VINA RESULT:      -7.7      3.651     10.113
REMARK  7 active torsions:
REMARK  status: ('A' for Active; 'I' for Inactive)
REMARK    1  A    between atoms: C_4  and  C_5 
REMARK    2  A    between atoms: C_12  and  C_13 
REMARK       I    between atoms: C_13  and  N_14 
REMARK    3  A    between atoms: N_14  and  N_15 
REMARK       I    between atoms: N_15  and  C_16 
REMARK    4  A    between atoms: C_16  and  C_17 
REMARK    5  A    between atoms: C_17  and  C_18 
REMARK    6  A    between atoms: C_18  and  C_19 
REMARK    7  A    between atoms: C_22  and  O_23 
ROOT
HETATM    1  C   UNL     1      43.795 -11.680   5.415  1.00  0.00     0.272 C 
HETATM    2  N   UNL     1      43.017 -12.800   5.216  1.00  0.00    -0.263 N 
HETATM    3  O   UNL     1      44.635 -11.297   4.608  1.00  0.00    -0.266 OA
HETATM    4  H   UNL     1      42.274 -13.113   5.839  1.00  0.00     0.190 HD
ENDROOT
BRANCH   2   5
HETATM    5  N   UNL     1      43.209 -13.546   4.054  1.00  0.00    -0.267 N 
HETATM    6  C   UNL     1      42.183 -13.574   3.135  1.00  0.00     0.236 C 
HETATM    7  O   UNL     1      41.190 -12.852   3.232  1.00  0.00    -0.272 OA
HETATM    8  H   UNL     1      43.989 -14.201   4.061  1.00  0.00     0.190 HD
BRANCH   6   9
HETATM    9  C   UNL     1      42.392 -14.509   1.964  1.00  0.00     0.109 C 
BRANCH   9  10
HETATM   10  C   UNL     1      41.745 -15.883   2.144  1.00  0.00     0.048 C 
BRANCH  10  11
HETATM   11  C   UNL     1      42.555 -16.934   2.871  1.00  0.00    -0.058 A 
HETATM   12  C   UNL     1      42.776 -16.900   4.251  1.00  0.00     0.010 A 
HETATM   13  C   UNL     1      43.512 -17.911   4.878  1.00  0.00     0.037 A 
HETATM   14  C   UNL     1      44.023 -18.985   4.147  1.00  0.00     0.068 A 
HETATM   15  C   UNL     1      43.792 -19.037   2.775  1.00  0.00     0.037 A 
HETATM   16  C   UNL     1      43.060 -18.023   2.145  1.00  0.00     0.010 A 
BRANCH  14  17
HETATM   17  O   UNL     1      44.718 -19.901   4.884  1.00  0.00    -0.356 OA
HETATM   18  C   UNL     1      43.997 -21.043   5.333  1.00  0.00     0.210 C 
ENDBRANCH  14  17
ENDBRANCH  10  11
ENDBRANCH   9  10
ENDBRANCH   6   9
ENDBRANCH   2   5
BRANCH   1  19
HETATM   19  C   UNL     1      43.543 -10.951   6.680  1.00  0.00     0.058 A 
HETATM   20  C   UNL     1      42.583  -9.943   6.764  1.00  0.00     0.047 A 
HETATM   21  C   UNL     1      41.746  -9.524   5.591  1.00  0.00     0.071 C 
HETATM   22  N   UNL     1      42.336  -9.278   7.927  1.00  0.00    -0.252 NA
HETATM   23  C   UNL     1      43.059  -9.591   9.033  1.00  0.00     0.074 A 
HETATM   24  C   UNL     1      44.038 -10.579   9.014  1.00  0.00     0.034 A 
HETATM   25  C   UNL     1      44.282 -11.266   7.825  1.00  0.00     0.021 A 
BRANCH  23  26
HETATM   26  C   UNL     1      42.695  -8.808  10.226  1.00  0.00     0.033 A 
HETATM   27  S   UNL     1      41.825  -9.501  11.540  1.00  0.00    -0.100 SA
HETATM   28  C   UNL     1      41.833  -8.041  12.424  1.00  0.00     0.050 A 
HETATM   29  C   UNL     1      42.484  -7.035  11.751  1.00  0.00     0.008 A 
HETATM   30  C   UNL     1      42.984  -7.479  10.493  1.00  0.00     0.021 A 
ENDBRANCH  23  26
ENDBRANCH   1  19
TORSDOF 7
ENDMDL
MODEL 6
REMARK VINA RESULT:      -7.5      8.019     11.437
REMARK  7 active torsions:
REMARK  status: ('A' for Active; 'I' for Inactive)
REMARK    1  A    between atoms: C_4  and  C_5 
REMARK    2  A    between atoms: C_12  and  C_13 
REMARK       I    between atoms: C_13  and  N_14 
REMARK    3  A    between atoms: N_14  and  N_15 
REMARK       I    between atoms: N_15  and  C_16 
REMARK    4  A    between atoms: C_16  and  C_17 
REMARK    5  A    between atoms: C_17  and  C_18 
REMARK    6  A    between atoms: C_18  and  C_19 
REMARK    7  A    between atoms: C_22  and  O_23 
ROOT
HETATM    1  C   UNL     1      39.938 -13.094  -1.344  1.00  0.00     0.272 C 
HETATM    2  N   UNL     1      39.860 -13.836  -0.185  1.00  0.00    -0.263 N 
HETATM    3  O   UNL     1      40.977 -12.956  -1.981  1.00  0.00    -0.266 OA
HETATM    4  H   UNL     1      39.002 -14.016   0.336  1.00  0.00     0.190 HD
ENDROOT
BRANCH   2   5
HETATM    5  N   UNL     1      41.019 -14.440   0.299  1.00  0.00    -0.267 N 
HETATM    6  C   UNL     1      41.650 -13.847   1.370  1.00  0.00     0.236 C 
HETATM    7  O   UNL     1      41.149 -12.914   1.997  1.00  0.00    -0.272 OA
HETATM    8  H   UNL     1      41.449 -15.138  -0.304  1.00  0.00     0.190 HD
BRANCH   6   9
HETATM    9  C   UNL     1      42.975 -14.464   1.760  1.00  0.00     0.109 C 
BRANCH   9  10
HETATM   10  C   UNL     1      43.014 -14.997   3.193  1.00  0.00     0.048 C 
BRANCH  10  11
HETATM   11  C   UNL     1      43.312 -16.469   3.372  1.00  0.00    -0.058 A 
HETATM   12  C   UNL     1      43.717 -17.018   4.593  1.00  0.00     0.010 A 
HETATM   13  C   UNL     1      43.957 -18.390   4.711  1.00  0.00     0.037 A 
HETATM   14  C   UNL     1      43.779 -19.245   3.622  1.00  0.00     0.068 A 
HETATM   15  C   UNL     1      43.360 -18.711   2.407  1.00  0.00     0.037 A 
HETATM   16  C   UNL     1      43.124 -17.336   2.285  1.00  0.00     0.010 A 
BRANCH  14  17
HETATM   17  O   UNL     1      44.045 -20.561   3.877  1.00  0.00    -0.356 OA
HETATM   18  C   UNL     1      44.381 -20.899   5.217  1.00  0.00     0.210 C 
ENDBRANCH  14  17
ENDBRANCH  10  11
ENDBRANCH   9  10
ENDBRANCH   6   9
ENDBRANCH   2   5
BRANCH   1  19
HETATM   19  C   UNL     1      38.668 -12.471  -1.785  1.00  0.00     0.058 A 
HETATM   20  C   UNL     1      37.816 -13.108  -2.687  1.00  0.00     0.047 A 
HETATM   21  C   UNL     1      38.122 -14.455  -3.275  1.00  0.00     0.071 C 
HETATM   22  N   UNL     1      36.640 -12.549  -3.086  1.00  0.00    -0.252 NA
HETATM   23  C   UNL     1      36.295 -11.325  -2.607  1.00  0.00     0.074 A 
HETATM   24  C   UNL     1      37.105 -10.633  -1.713  1.00  0.00     0.034 A 
HETATM   25  C   UNL     1      38.303 -11.213  -1.298  1.00  0.00     0.021 A 
BRANCH  23  26
HETATM   26  C   UNL     1      35.001 -10.832  -3.107  1.00  0.00     0.033 A 
HETATM   27  S   UNL     1      34.178 -11.595  -4.412  1.00  0.00    -0.100 SA
HETATM   28  C   UNL     1      32.875 -10.493  -4.343  1.00  0.00     0.050 A 
HETATM   29  C   UNL     1      33.043  -9.558  -3.349  1.00  0.00     0.008 A 
HETATM   30  C   UNL     1      34.260  -9.759  -2.636  1.00  0.00     0.021 A 
ENDBRANCH  23  26
ENDBRANCH   1  19
TORSDOF 7
ENDMDL
MODEL 7
REMARK VINA RESULT:      -7.5      1.790      2.726
REMARK  7 active torsions:
REMARK  status: ('A' for Active; 'I' for Inactive)
REMARK    1  A    between atoms: C_4  and  C_5 
REMARK    2  A    between atoms: C_12  and  C_13 
REMARK       I    between atoms: C_13  and  N_14 
REMARK    3  A    between atoms: N_14  and  N_15 
REMARK       I    between atoms: N_15  and  C_16 
REMARK    4  A    between atoms: C_16  and  C_17 
REMARK    5  A    between atoms: C_17  and  C_18 
REMARK    6  A    between atoms: C_18  and  C_19 
REMARK    7  A    between atoms: C_22  and  O_23 
ROOT
HETATM    1  C   UNL     1      43.359 -13.150   6.096  1.00  0.00     0.272 C 
HETATM    2  N   UNL     1      42.104 -12.703   6.451  1.00  0.00    -0.263 N 
HETATM    3  O   UNL     1      44.378 -12.491   6.271  1.00  0.00    -0.266 OA
HETATM    4  H   UNL     1      41.246 -13.247   6.371  1.00  0.00     0.190 HD
ENDROOT
BRANCH   2   5
HETATM    5  N   UNL     1      41.985 -11.434   7.015  1.00  0.00    -0.267 N 
HETATM    6  C   UNL     1      41.450 -10.434   6.233  1.00  0.00     0.236 C 
HETATM    7  O   UNL     1      40.941 -10.657   5.134  1.00  0.00    -0.272 OA
HETATM    8  H   UNL     1      42.505 -11.271   7.875  1.00  0.00     0.190 HD
BRANCH   6   9
HETATM    9  C   UNL     1      41.475  -9.052   6.847  1.00  0.00     0.109 C 
BRANCH   9  10
HETATM   10  C   UNL     1      42.838  -8.647   7.409  1.00  0.00     0.048 C 
BRANCH  10  11
HETATM   11  C   UNL     1      42.920  -8.392   8.898  1.00  0.00    -0.058 A 
HETATM   12  C   UNL     1      42.684  -7.136   9.466  1.00  0.00     0.010 A 
HETATM   13  C   UNL     1      42.749  -6.960  10.852  1.00  0.00     0.037 A 
HETATM   14  C   UNL     1      43.029  -8.032  11.699  1.00  0.00     0.068 A 
HETATM   15  C   UNL     1      43.248  -9.291  11.144  1.00  0.00     0.037 A 
HETATM   16  C   UNL     1      43.189  -9.468   9.756  1.00  0.00     0.010 A 
BRANCH  14  17
HETATM   17  O   UNL     1      43.058  -7.720  13.029  1.00  0.00    -0.356 OA
HETATM   18  C   UNL     1      42.392  -8.614  13.913  1.00  0.00     0.210 C 
ENDBRANCH  14  17
ENDBRANCH  10  11
ENDBRANCH   9  10
ENDBRANCH   6   9
ENDBRANCH   2   5
BRANCH   1  19
HETATM   19  C   UNL     1      43.401 -14.501   5.489  1.00  0.00     0.058 A 
HETATM   20  C   UNL     1      43.064 -14.714   4.153  1.00  0.00     0.047 A 
HETATM   21  C   UNL     1      42.634 -13.602   3.241  1.00  0.00     0.071 C 
HETATM   22  N   UNL     1      43.113 -15.951   3.584  1.00  0.00    -0.252 NA
HETATM   23  C   UNL     1      43.483 -17.013   4.346  1.00  0.00     0.074 A 
HETATM   24  C   UNL     1      43.821 -16.871   5.687  1.00  0.00     0.034 A 
HETATM   25  C   UNL     1      43.780 -15.602   6.264  1.00  0.00     0.021 A 
BRANCH  23  26
HETATM   26  C   UNL     1      43.504 -18.292   3.617  1.00  0.00     0.033 A 
HETATM   27  S   UNL     1      44.161 -19.724   4.308  1.00  0.00    -0.100 SA
HETATM   28  C   UNL     1      43.804 -20.656   2.923  1.00  0.00     0.050 A 
HETATM   29  C   UNL     1      43.193 -19.910   1.943  1.00  0.00     0.008 A 
HETATM   30  C   UNL     1      43.015 -18.555   2.346  1.00  0.00     0.021 A 
ENDBRANCH  23  26
ENDBRANCH   1  19
TORSDOF 7
ENDMDL
MODEL 8
REMARK VINA RESULT:      -7.4      3.946      4.855
REMARK  7 active torsions:
REMARK  status: ('A' for Active; 'I' for Inactive)
REMARK    1  A    between atoms: C_4  and  C_5 
REMARK    2  A    between atoms: C_12  and  C_13 
REMARK       I    between atoms: C_13  and  N_14 
REMARK    3  A    between atoms: N_14  and  N_15 
REMARK       I    between atoms: N_15  and  C_16 
REMARK    4  A    between atoms: C_16  and  C_17 
REMARK    5  A    between atoms: C_17  and  C_18 
REMARK    6  A    between atoms: C_18  and  C_19 
REMARK    7  A    between atoms: C_22  and  O_23 
ROOT
HETATM    1  C   UNL     1      43.769 -11.809   3.929  1.00  0.00     0.272 C 
HETATM    2  N   UNL     1      43.338 -12.101   5.206  1.00  0.00    -0.263 N 
HETATM    3  O   UNL     1      44.889 -11.372   3.685  1.00  0.00    -0.266 OA
HETATM    4  H   UNL     1      42.437 -12.517   5.437  1.00  0.00     0.190 HD
ENDROOT
BRANCH   2   5
HETATM    5  N   UNL     1      44.207 -11.869   6.271  1.00  0.00    -0.267 N 
HETATM    6  C   UNL     1      43.950 -10.786   7.082  1.00  0.00     0.236 C 
HETATM    7  O   UNL     1      42.914 -10.126   6.993  1.00  0.00    -0.272 OA
HETATM    8  H   UNL     1      45.095 -12.368   6.247  1.00  0.00     0.190 HD
BRANCH   6   9
HETATM    9  C   UNL     1      45.001 -10.502   8.132  1.00  0.00     0.109 C 
BRANCH   9  10
HETATM   10  C   UNL     1      44.798  -9.179   8.872  1.00  0.00     0.048 C 
BRANCH  10  11
HETATM   11  C   UNL     1      44.078  -9.237  10.201  1.00  0.00    -0.058 A 
HETATM   12  C   UNL     1      43.488  -8.116  10.793  1.00  0.00     0.010 A 
HETATM   13  C   UNL     1      42.812  -8.230  12.012  1.00  0.00     0.037 A 
HETATM   14  C   UNL     1      42.692  -9.463  12.653  1.00  0.00     0.068 A 
HETATM   15  C   UNL     1      43.260 -10.589  12.063  1.00  0.00     0.037 A 
HETATM   16  C   UNL     1      43.942 -10.476  10.844  1.00  0.00     0.010 A 
BRANCH  14  17
HETATM   17  O   UNL     1      42.004  -9.431  13.834  1.00  0.00    -0.356 OA
HETATM   18  C   UNL     1      42.062  -8.220  14.577  1.00  0.00     0.210 C 
ENDBRANCH  14  17
ENDBRANCH  10  11
ENDBRANCH   9  10
ENDBRANCH   6   9
ENDBRANCH   2   5
BRANCH   1  19
HETATM   19  C   UNL     1      42.783 -12.069   2.854  1.00  0.00     0.058 A 
HETATM   20  C   UNL     1      42.506 -13.362   2.413  1.00  0.00     0.047 A 
HETATM   21  C   UNL     1      43.182 -14.574   2.986  1.00  0.00     0.071 C 
HETATM   22  N   UNL     1      41.592 -13.610   1.434  1.00  0.00    -0.252 NA
HETATM   23  C   UNL     1      40.944 -12.565   0.856  1.00  0.00     0.074 A 
HETATM   24  C   UNL     1      41.181 -11.251   1.243  1.00  0.00     0.034 A 
HETATM   25  C   UNL     1      42.110 -11.001   2.252  1.00  0.00     0.021 A 
BRANCH  23  26
HETATM   26  C   UNL     1      39.977 -12.962  -0.181  1.00  0.00     0.033 A 
HETATM   27  S   UNL     1      38.660 -11.952  -0.634  1.00  0.00    -0.100 SA
HETATM   28  C   UNL     1      38.098 -13.065  -1.800  1.00  0.00     0.050 A 
HETATM   29  C   UNL     1      38.887 -14.189  -1.861  1.00  0.00     0.008 A 
HETATM   30  C   UNL     1      39.970 -14.125  -0.937  1.00  0.00     0.021 A 
ENDBRANCH  23  26
ENDBRANCH   1  19
TORSDOF 7
ENDMDL
MODEL 9
REMARK VINA RESULT:      -7.3      2.547      3.563
REMARK  7 active torsions:
REMARK  status: ('A' for Active; 'I' for Inactive)
REMARK    1  A    between atoms: C_4  and  C_5 
REMARK    2  A    between atoms: C_12  and  C_13 
REMARK       I    between atoms: C_13  and  N_14 
REMARK    3  A    between atoms: N_14  and  N_15 
REMARK       I    between atoms: N_15  and  C_16 
REMARK    4  A    between atoms: C_16  and  C_17 
REMARK    5  A    between atoms: C_17  and  C_18 
REMARK    6  A    between atoms: C_18  and  C_19 
REMARK    7  A    between atoms: C_22  and  O_23 
ROOT
HETATM    1  C   UNL     1      42.659 -13.436   6.349  1.00  0.00     0.272 C 
HETATM    2  N   UNL     1      43.598 -13.123   7.307  1.00  0.00    -0.263 N 
HETATM    3  O   UNL     1      41.737 -12.685   6.045  1.00  0.00    -0.266 OA
HETATM    4  H   UNL     1      44.406 -13.697   7.543  1.00  0.00     0.190 HD
ENDROOT
BRANCH   2   5
HETATM    5  N   UNL     1      43.483 -11.907   7.981  1.00  0.00    -0.267 N 
HETATM    6  C   UNL     1      44.554 -11.042   7.927  1.00  0.00     0.236 C 
HETATM    7  O   UNL     1      45.522 -11.235   7.191  1.00  0.00    -0.272 OA
HETATM    8  H   UNL     1      42.721 -11.833   8.651  1.00  0.00     0.190 HD
BRANCH   6   9
HETATM    9  C   UNL     1      44.427  -9.805   8.789  1.00  0.00     0.109 C 
BRANCH   9  10
HETATM   10  C   UNL     1      43.704  -8.644   8.105  1.00  0.00     0.048 C 
BRANCH  10  11
HETATM   11  C   UNL     1      42.277  -8.885   7.666  1.00  0.00    -0.058 A 
HETATM   12  C   UNL     1      41.905  -8.984   6.321  1.00  0.00     0.010 A 
HETATM   13  C   UNL     1      40.574  -9.232   5.969  1.00  0.00     0.037 A 
HETATM   14  C   UNL     1      39.594  -9.407   6.947  1.00  0.00     0.068 A 
HETATM   15  C   UNL     1      39.958  -9.329   8.289  1.00  0.00     0.037 A 
HETATM   16  C   UNL     1      41.289  -9.075   8.643  1.00  0.00     0.010 A 
BRANCH  14  17
HETATM   17  O   UNL     1      38.339  -9.647   6.464  1.00  0.00    -0.356 OA
HETATM   18  C   UNL     1      38.131  -9.418   5.075  1.00  0.00     0.210 C 
ENDBRANCH  14  17
ENDBRANCH  10  11
ENDBRANCH   9  10
ENDBRANCH   6   9
ENDBRANCH   2   5
BRANCH   1  19
HETATM   19  C   UNL     1      42.840 -14.750   5.690  1.00  0.00     0.058 A 
HETATM   20  C   UNL     1      43.000 -14.861   4.309  1.00  0.00     0.047 A 
HETATM   21  C   UNL     1      42.997 -13.668   3.397  1.00  0.00     0.071 C 
HETATM   22  N   UNL     1      43.182 -16.064   3.698  1.00  0.00    -0.252 NA
HETATM   23  C   UNL     1      43.186 -17.194   4.453  1.00  0.00     0.074 A 
HETATM   24  C   UNL     1      43.022 -17.154   5.833  1.00  0.00     0.034 A 
HETATM   25  C   UNL     1      42.847 -15.919   6.457  1.00  0.00     0.021 A 
BRANCH  23  26
HETATM   26  C   UNL     1      43.397 -18.428   3.678  1.00  0.00     0.033 A 
HETATM   27  S   UNL     1      44.087 -19.839   4.382  1.00  0.00    -0.100 SA
HETATM   28  C   UNL     1      43.970 -20.724   2.927  1.00  0.00     0.050 A 
HETATM   29  C   UNL     1      43.415 -19.978   1.914  1.00  0.00     0.008 A 
HETATM   30  C   UNL     1      43.080 -18.663   2.349  1.00  0.00     0.021 A 
ENDBRANCH  23  26
ENDBRANCH   1  19
TORSDOF 7
ENDMDL
MODEL 10
REMARK VINA RESULT:      -7.3      2.888      3.941
REMARK  7 active torsions:
REMARK  status: ('A' for Active; 'I' for Inactive)
REMARK    1  A    between atoms: C_4  and  C_5 
REMARK    2  A    between atoms: C_12  and  C_13 
REMARK       I    between atoms: C_13  and  N_14 
REMARK    3  A    between atoms: N_14  and  N_15 
REMARK       I    between atoms: N_15  and  C_16 
REMARK    4  A    between atoms: C_16  and  C_17 
REMARK    5  A    between atoms: C_17  and  C_18 
REMARK    6  A    between atoms: C_18  and  C_19 
REMARK    7  A    between atoms: C_22  and  O_23 
ROOT
HETATM    1  C   UNL     1      41.879 -10.407   6.579  1.00  0.00     0.272 C 
HETATM    2  N   UNL     1      42.480 -10.487   7.817  1.00  0.00    -0.263 N 
HETATM    3  O   UNL     1      41.206  -9.445   6.223  1.00  0.00    -0.266 OA
HETATM    4  H   UNL     1      43.090 -11.244   8.122  1.00  0.00     0.190 HD
ENDROOT
BRANCH   2   5
HETATM    5  N   UNL     1      42.296  -9.437   8.716  1.00  0.00    -0.267 N 
HETATM    6  C   UNL     1      42.884  -9.546   9.956  1.00  0.00     0.236 C 
HETATM    7  O   UNL     1      43.678 -10.446  10.234  1.00  0.00    -0.272 OA
HETATM    8  H   UNL     1      41.560  -8.772   8.488  1.00  0.00     0.190 HD
BRANCH   6   9
HETATM    9  C   UNL     1      42.534  -8.446  10.935  1.00  0.00     0.109 C 
BRANCH   9  10
HETATM   10  C   UNL     1      43.462  -8.377  12.148  1.00  0.00     0.048 C 
BRANCH  10  11
HETATM   11  C   UNL     1      42.822  -8.088  13.488  1.00  0.00    -0.058 A 
HETATM   12  C   UNL     1      43.233  -7.037  14.314  1.00  0.00     0.010 A 
HETATM   13  C   UNL     1      42.591  -6.799  15.533  1.00  0.00     0.037 A 
HETATM   14  C   UNL     1      41.515  -7.587  15.943  1.00  0.00     0.068 A 
HETATM   15  C   UNL     1      41.086  -8.624  15.119  1.00  0.00     0.037 A 
HETATM   16  C   UNL     1      41.732  -8.868  13.901  1.00  0.00     0.010 A 
BRANCH  14  17
HETATM   17  O   UNL     1      40.979  -7.241  17.152  1.00  0.00    -0.356 OA
HETATM   18  C   UNL     1      41.827  -7.364  18.288  1.00  0.00     0.210 C 
ENDBRANCH  14  17
ENDBRANCH  10  11
ENDBRANCH   9  10
ENDBRANCH   6   9
ENDBRANCH   2   5
BRANCH   1  19
HETATM   19  C   UNL     1      42.109 -11.568   5.688  1.00  0.00     0.058 A 
HETATM   20  C   UNL     1      41.148 -12.566   5.525  1.00  0.00     0.047 A 
HETATM   21  C   UNL     1      39.827 -12.539   6.236  1.00  0.00     0.071 C 
HETATM   22  N   UNL     1      41.346 -13.629   4.697  1.00  0.00    -0.252 NA
HETATM   23  C   UNL     1      42.522 -13.732   4.024  1.00  0.00     0.074 A 
HETATM   24  C   UNL     1      43.525 -12.776   4.150  1.00  0.00     0.034 A 
HETATM   25  C   UNL     1      43.315 -11.684   4.991  1.00  0.00     0.021 A 
BRANCH  23  26
HETATM   26  C   UNL     1      42.613 -14.919   3.158  1.00  0.00     0.033 A 
HETATM   27  S   UNL     1      41.746 -16.366   3.503  1.00  0.00    -0.100 SA
HETATM   28  C   UNL     1      42.354 -17.158   2.118  1.00  0.00     0.050 A 
HETATM   29  C   UNL     1      43.199 -16.352   1.392  1.00  0.00     0.008 A 
HETATM   30  C   UNL     1      43.340 -15.064   1.987  1.00  0.00     0.021 A 
ENDBRANCH  23  26
ENDBRANCH   1  19
TORSDOF 7
ENDMDL
