MODEL 1
REMARK VINA RESULT:      -9.3      0.000      0.000
REMARK  8 active torsions:
REMARK  status: ('A' for Active; 'I' for Inactive)
REMARK    1  A    between atoms: C_5  and  C_6 
REMARK    2  A    between atoms: C_8  and  C_9 
REMARK    3  A    between atoms: C_9  and  C_10 
REMARK    4  A    between atoms: C_10  and  C_11 
REMARK       I    between atoms: C_11  and  N_12 
REMARK    5  A    between atoms: N_12  and  N_13 
REMARK       I    between atoms: N_13  and  C_14 
REMARK    6  A    between atoms: C_14  and  C_15 
REMARK    7  A    between atoms: C_15  and  O_16 
REMARK    8  A    between atoms: O_16  and  C_17 
ROOT
HETATM    1  C   UNL     1      45.038 -11.257   6.654  1.00  0.00     0.236 C 
HETATM    2  N   UNL     1      44.309 -12.297   7.189  1.00  0.00    -0.267 N 
HETATM    3  O   UNL     1      45.350 -11.198   5.466  1.00  0.00    -0.272 OA
HETATM    4  H   UNL     1      44.292 -12.492   8.189  1.00  0.00     0.190 HD
ENDROOT
BRANCH   1   5
HETATM    5  C   UNL     1      45.393 -10.173   7.651  1.00  0.00     0.112 C 
BRANCH   5   6
HETATM    6  C   UNL     1      44.132  -9.570   8.265  1.00  0.00     0.096 C 
BRANCH   6   7
HETATM    7  C   UNL     1      43.958  -9.997   9.678  1.00  0.00     0.146 A 
HETATM    8  O   UNL     1      43.589  -9.023  10.558  1.00  0.00    -0.294 OA
HETATM    9  C   UNL     1      43.416  -9.674  11.749  1.00  0.00     0.105 A 
HETATM   10  C   UNL     1      43.727 -10.999  11.526  1.00  0.00     0.157 A 
HETATM   11  N   UNL     1      44.058 -11.199  10.205  1.00  0.00    -0.238 NA
BRANCH   9  12
HETATM   12  C   UNL     1      42.955  -8.871  12.872  1.00  0.00    -0.001 A 
HETATM   13  C   UNL     1      41.915  -9.318  13.701  1.00  0.00     0.015 A 
HETATM   14  C   UNL     1      41.491  -8.564  14.799  1.00  0.00     0.007 A 
HETATM   15  C   UNL     1      42.090  -7.335  15.085  1.00  0.00    -0.062 A 
HETATM   16  C   UNL     1      41.661  -6.530  16.276  1.00  0.00     0.048 C 
HETATM   17  C   UNL     1      43.130  -6.881  14.265  1.00  0.00     0.007 A 
HETATM   18  C   UNL     1      43.555  -7.640  13.169  1.00  0.00     0.015 A 
ENDBRANCH   9  12
ENDBRANCH   6   7
ENDBRANCH   5   6
ENDBRANCH   1   5
BRANCH   2  19
HETATM   19  N   UNL     1      43.975 -13.365   6.353  1.00  0.00    -0.266 N 
HETATM   20  C   UNL     1      42.669 -13.477   5.916  1.00  0.00     0.260 C 
HETATM   21  O   UNL     1      41.815 -12.620   6.143  1.00  0.00    -0.269 OA
HETATM   22  H   UNL     1      44.608 -14.164   6.347  1.00  0.00     0.190 HD
BRANCH  20  23
HETATM   23  C   UNL     1      42.373 -14.778   5.183  1.00  0.00     0.280 C 
BRANCH  23  24
HETATM   24  O   UNL     1      43.545 -15.587   5.171  1.00  0.00    -0.342 OA
BRANCH  24  25
HETATM   25  C   UNL     1      43.524 -16.660   4.324  1.00  0.00     0.069 A 
HETATM   26  C   UNL     1      42.894 -16.697   3.081  1.00  0.00     0.037 A 
HETATM   27  C   UNL     1      42.928 -17.863   2.309  1.00  0.00     0.009 A 
HETATM   28  C   UNL     1      43.581 -19.009   2.777  1.00  0.00    -0.062 A 
HETATM   29  C   UNL     1      43.646 -20.252   1.939  1.00  0.00     0.048 C 
HETATM   30  C   UNL     1      44.215 -18.966   4.024  1.00  0.00     0.009 A 
HETATM   31  C   UNL     1      44.175 -17.802   4.795  1.00  0.00     0.037 A 
ENDBRANCH  24  25
ENDBRANCH  23  24
ENDBRANCH  20  23
ENDBRANCH   2  19
TORSDOF 8
ENDMDL
MODEL 2
REMARK VINA RESULT:      -9.3      1.308     11.797
REMARK  8 active torsions:
REMARK  status: ('A' for Active; 'I' for Inactive)
REMARK    1  A    between atoms: C_5  and  C_6 
REMARK    2  A    between atoms: C_8  and  C_9 
REMARK    3  A    between atoms: C_9  and  C_10 
REMARK    4  A    between atoms: C_10  and  C_11 
REMARK       I    between atoms: C_11  and  N_12 
REMARK    5  A    between atoms: N_12  and  N_13 
REMARK       I    between atoms: N_13  and  C_14 
REMARK    6  A    between atoms: C_14  and  C_15 
REMARK    7  A    between atoms: C_15  and  O_16 
REMARK    8  A    between atoms: O_16  and  C_17 
ROOT
HETATM    1  C   UNL     1      44.861 -11.203   7.505  1.00  0.00     0.236 C 
HETATM    2  N   UNL     1      43.873 -11.163   8.466  1.00  0.00    -0.267 N 
HETATM    3  O   UNL     1      45.782 -10.391   7.456  1.00  0.00    -0.272 OA
HETATM    4  H   UNL     1      42.981 -11.641   8.350  1.00  0.00     0.190 HD
ENDROOT
BRANCH   1   5
HETATM    5  C   UNL     1      44.731 -12.358   6.533  1.00  0.00     0.112 C 
BRANCH   5   6
HETATM    6  C   UNL     1      43.282 -12.829   6.444  1.00  0.00     0.096 C 
BRANCH   6   7
HETATM    7  C   UNL     1      43.180 -14.305   6.591  1.00  0.00     0.146 A 
HETATM    8  O   UNL     1      43.288 -15.032   5.443  1.00  0.00    -0.294 OA
HETATM    9  C   UNL     1      43.247 -16.337   5.849  1.00  0.00     0.105 A 
HETATM   10  C   UNL     1      43.079 -16.322   7.217  1.00  0.00     0.157 A 
HETATM   11  N   UNL     1      43.051 -15.027   7.684  1.00  0.00    -0.238 NA
BRANCH   9  12
HETATM   12  C   UNL     1      43.404 -17.349   4.814  1.00  0.00    -0.001 A 
HETATM   13  C   UNL     1      43.943 -18.610   5.113  1.00  0.00     0.015 A 
HETATM   14  C   UNL     1      44.067 -19.595   4.129  1.00  0.00     0.007 A 
HETATM   15  C   UNL     1      43.666 -19.335   2.816  1.00  0.00    -0.062 A 
HETATM   16  C   UNL     1      43.769 -20.393   1.758  1.00  0.00     0.048 C 
HETATM   17  C   UNL     1      43.125 -18.081   2.508  1.00  0.00     0.007 A 
HETATM   18  C   UNL     1      42.999 -17.098   3.497  1.00  0.00     0.015 A 
ENDBRANCH   9  12
ENDBRANCH   6   7
ENDBRANCH   5   6
ENDBRANCH   1   5
BRANCH   2  19
HETATM   19  N   UNL     1      43.887 -10.106   9.379  1.00  0.00    -0.266 N 
HETATM   20  C   UNL     1      43.868 -10.400  10.729  1.00  0.00     0.260 C 
HETATM   21  O   UNL     1      43.947 -11.550  11.161  1.00  0.00    -0.269 OA
HETATM   22  H   UNL     1      43.608  -9.190   9.030  1.00  0.00     0.190 HD
BRANCH  20  23
HETATM   23  C   UNL     1      43.680  -9.182  11.623  1.00  0.00     0.280 C 
BRANCH  23  24
HETATM   24  O   UNL     1      42.506  -9.354  12.410  1.00  0.00    -0.342 OA
BRANCH  24  25
HETATM   25  C   UNL     1      42.400  -8.553  13.513  1.00  0.00     0.069 A 
HETATM   26  C   UNL     1      43.199  -7.442  13.784  1.00  0.00     0.037 A 
HETATM   27  C   UNL     1      43.005  -6.707  14.959  1.00  0.00     0.009 A 
HETATM   28  C   UNL     1      42.021  -7.082  15.880  1.00  0.00    -0.062 A 
HETATM   29  C   UNL     1      41.790  -6.278  17.126  1.00  0.00     0.048 C 
HETATM   30  C   UNL     1      41.220  -8.195  15.602  1.00  0.00     0.009 A 
HETATM   31  C   UNL     1      41.419  -8.931  14.431  1.00  0.00     0.037 A 
ENDBRANCH  24  25
ENDBRANCH  23  24
ENDBRANCH  20  23
ENDBRANCH   2  19
TORSDOF 8
ENDMDL
MODEL 3
REMARK VINA RESULT:      -9.0      1.536     11.365
REMARK  8 active torsions:
REMARK  status: ('A' for Active; 'I' for Inactive)
REMARK    1  A    between atoms: C_5  and  C_6 
REMARK    2  A    between atoms: C_8  and  C_9 
REMARK    3  A    between atoms: C_9  and  C_10 
REMARK    4  A    between atoms: C_10  and  C_11 
REMARK       I    between atoms: C_11  and  N_12 
REMARK    5  A    between atoms: N_12  and  N_13 
REMARK       I    between atoms: N_13  and  C_14 
REMARK    6  A    between atoms: C_14  and  C_15 
REMARK    7  A    between atoms: C_15  and  O_16 
REMARK    8  A    between atoms: O_16  and  C_17 
ROOT
HETATM    1  C   UNL     1      41.304 -10.882   6.415  1.00  0.00     0.236 C 
HETATM    2  N   UNL     1      42.457 -11.096   7.140  1.00  0.00    -0.267 N 
HETATM    3  O   UNL     1      40.525  -9.961   6.652  1.00  0.00    -0.272 OA
HETATM    4  H   UNL     1      42.945 -11.991   7.136  1.00  0.00     0.190 HD
ENDROOT
BRANCH   1   5
HETATM    5  C   UNL     1      41.099 -11.860   5.277  1.00  0.00     0.112 C 
BRANCH   5   6
HETATM    6  C   UNL     1      40.616 -13.209   5.804  1.00  0.00     0.096 C 
BRANCH   6   7
HETATM    7  C   UNL     1      41.732 -14.187   5.898  1.00  0.00     0.146 A 
HETATM    8  O   UNL     1      41.713 -15.208   4.995  1.00  0.00    -0.294 OA
HETATM    9  C   UNL     1      42.865 -15.906   5.231  1.00  0.00     0.105 A 
HETATM   10  C   UNL     1      43.495 -15.287   6.289  1.00  0.00     0.157 A 
HETATM   11  N   UNL     1      42.776 -14.187   6.700  1.00  0.00    -0.238 NA
BRANCH   9  12
HETATM   12  C   UNL     1      43.136 -17.036   4.353  1.00  0.00    -0.001 A 
HETATM   13  C   UNL     1      43.885 -18.135   4.802  1.00  0.00     0.015 A 
HETATM   14  C   UNL     1      44.120 -19.236   3.973  1.00  0.00     0.007 A 
HETATM   15  C   UNL     1      43.622 -19.256   2.668  1.00  0.00    -0.062 A 
HETATM   16  C   UNL     1      43.845 -20.443   1.778  1.00  0.00     0.048 C 
HETATM   17  C   UNL     1      42.872 -18.165   2.212  1.00  0.00     0.007 A 
HETATM   18  C   UNL     1      42.634 -17.067   3.045  1.00  0.00     0.015 A 
ENDBRANCH   9  12
ENDBRANCH   6   7
ENDBRANCH   5   6
ENDBRANCH   1   5
BRANCH   2  19
HETATM   19  N   UNL     1      42.708 -10.269   8.238  1.00  0.00    -0.266 N 
HETATM   20  C   UNL     1      43.889 -10.435   8.934  1.00  0.00     0.260 C 
HETATM   21  O   UNL     1      44.776 -11.205   8.566  1.00  0.00    -0.269 OA
HETATM   22  H   UNL     1      41.904  -9.801   8.657  1.00  0.00     0.190 HD
BRANCH  20  23
HETATM   23  C   UNL     1      43.965  -9.627  10.222  1.00  0.00     0.280 C 
BRANCH  23  24
HETATM   24  O   UNL     1      43.153 -10.247  11.214  1.00  0.00    -0.342 OA
BRANCH  24  25
HETATM   25  C   UNL     1      42.838  -9.477  12.299  1.00  0.00     0.069 A 
HETATM   26  C   UNL     1      41.832  -9.755  13.223  1.00  0.00     0.037 A 
HETATM   27  C   UNL     1      41.593  -8.878  14.287  1.00  0.00     0.009 A 
HETATM   28  C   UNL     1      42.349  -7.710  14.432  1.00  0.00    -0.062 A 
HETATM   29  C   UNL     1      42.116  -6.783  15.589  1.00  0.00     0.048 C 
HETATM   30  C   UNL     1      43.359  -7.437  13.504  1.00  0.00     0.009 A 
HETATM   31  C   UNL     1      43.593  -8.311  12.439  1.00  0.00     0.037 A 
ENDBRANCH  24  25
ENDBRANCH  23  24
ENDBRANCH  20  23
ENDBRANCH   2  19
TORSDOF 8
ENDMDL
MODEL 4
REMARK VINA RESULT:      -8.8      1.434     11.498
REMARK  8 active torsions:
REMARK  status: ('A' for Active; 'I' for Inactive)
REMARK    1  A    between atoms: C_5  and  C_6 
REMARK    2  A    between atoms: C_8  and  C_9 
REMARK    3  A    between atoms: C_9  and  C_10 
REMARK    4  A    between atoms: C_10  and  C_11 
REMARK       I    between atoms: C_11  and  N_12 
REMARK    5  A    between atoms: N_12  and  N_13 
REMARK       I    between atoms: N_13  and  C_14 
REMARK    6  A    between atoms: C_14  and  C_15 
REMARK    7  A    between atoms: C_15  and  O_16 
REMARK    8  A    between atoms: O_16  and  C_17 
ROOT
HETATM    1  C   UNL     1      44.507 -11.396   7.599  1.00  0.00     0.236 C 
HETATM    2  N   UNL     1      43.246 -11.036   8.026  1.00  0.00    -0.267 N 
HETATM    3  O   UNL     1      45.520 -11.216   8.272  1.00  0.00    -0.272 OA
HETATM    4  H   UNL     1      42.465 -10.923   7.382  1.00  0.00     0.190 HD
ENDROOT
BRANCH   1   5
HETATM    5  C   UNL     1      44.531 -12.066   6.240  1.00  0.00     0.112 C 
BRANCH   5   6
HETATM    6  C   UNL     1      43.275 -11.722   5.445  1.00  0.00     0.096 C 
BRANCH   6   7
HETATM    7  C   UNL     1      42.461 -12.933   5.163  1.00  0.00     0.146 A 
HETATM    8  O   UNL     1      43.113 -13.968   4.560  1.00  0.00    -0.294 OA
HETATM    9  C   UNL     1      42.187 -14.972   4.488  1.00  0.00     0.105 A 
HETATM   10  C   UNL     1      41.017 -14.472   5.019  1.00  0.00     0.157 A 
HETATM   11  N   UNL     1      41.202 -13.180   5.459  1.00  0.00    -0.238 NA
BRANCH   9  12
HETATM   12  C   UNL     1      42.639 -16.238   3.930  1.00  0.00    -0.001 A 
HETATM   13  C   UNL     1      43.582 -17.029   4.606  1.00  0.00     0.015 A 
HETATM   14  C   UNL     1      43.995 -18.261   4.090  1.00  0.00     0.007 A 
HETATM   15  C   UNL     1      43.484 -18.724   2.875  1.00  0.00    -0.062 A 
HETATM   16  C   UNL     1      43.900 -20.056   2.324  1.00  0.00     0.048 C 
HETATM   17  C   UNL     1      42.542 -17.944   2.195  1.00  0.00     0.007 A 
HETATM   18  C   UNL     1      42.126 -16.713   2.716  1.00  0.00     0.015 A 
ENDBRANCH   9  12
ENDBRANCH   6   7
ENDBRANCH   5   6
ENDBRANCH   1   5
BRANCH   2  19
HETATM   19  N   UNL     1      43.132 -10.371   9.250  1.00  0.00    -0.266 N 
HETATM   20  C   UNL     1      42.972  -9.000   9.243  1.00  0.00     0.260 C 
HETATM   21  O   UNL     1      42.818  -8.352   8.207  1.00  0.00    -0.269 OA
HETATM   22  H   UNL     1      43.469 -10.864  10.076  1.00  0.00     0.190 HD
BRANCH  20  23
HETATM   23  C   UNL     1      43.062  -8.361  10.622  1.00  0.00     0.280 C 
BRANCH  23  24
HETATM   24  O   UNL     1      42.399  -9.193  11.569  1.00  0.00    -0.342 OA
BRANCH  24  25
HETATM   25  C   UNL     1      42.263  -8.679  12.828  1.00  0.00     0.069 A 
HETATM   26  C   UNL     1      41.269  -9.030  13.741  1.00  0.00     0.037 A 
HETATM   27  C   UNL     1      41.223  -8.419  14.999  1.00  0.00     0.009 A 
HETATM   28  C   UNL     1      42.161  -7.443  15.353  1.00  0.00    -0.062 A 
HETATM   29  C   UNL     1      42.133  -6.808  16.712  1.00  0.00     0.048 C 
HETATM   30  C   UNL     1      43.158  -7.097  14.434  1.00  0.00     0.009 A 
HETATM   31  C   UNL     1      43.199  -7.704  13.176  1.00  0.00     0.037 A 
ENDBRANCH  24  25
ENDBRANCH  23  24
ENDBRANCH  20  23
ENDBRANCH   2  19
TORSDOF 8
ENDMDL
MODEL 5
REMARK VINA RESULT:      -8.7      1.636      2.572
REMARK  8 active torsions:
REMARK  status: ('A' for Active; 'I' for Inactive)
REMARK    1  A    between atoms: C_5  and  C_6 
REMARK    2  A    between atoms: C_8  and  C_9 
REMARK    3  A    between atoms: C_9  and  C_10 
REMARK    4  A    between atoms: C_10  and  C_11 
REMARK       I    between atoms: C_11  and  N_12 
REMARK    5  A    between atoms: N_12  and  N_13 
REMARK       I    between atoms: N_13  and  C_14 
REMARK    6  A    between atoms: C_14  and  C_15 
REMARK    7  A    between atoms: C_15  and  O_16 
REMARK    8  A    between atoms: O_16  and  C_17 
ROOT
HETATM    1  C   UNL     1      42.099 -12.806   5.852  1.00  0.00     0.236 C 
HETATM    2  N   UNL     1      41.667 -13.803   6.701  1.00  0.00    -0.267 N 
HETATM    3  O   UNL     1      42.826 -13.018   4.883  1.00  0.00    -0.272 OA
HETATM    4  H   UNL     1      41.313 -13.606   7.635  1.00  0.00     0.190 HD
ENDROOT
BRANCH   1   5
HETATM    5  C   UNL     1      41.570 -11.429   6.196  1.00  0.00     0.112 C 
BRANCH   5   6
HETATM    6  C   UNL     1      42.677 -10.383   6.091  1.00  0.00     0.096 C 
BRANCH   6   7
HETATM    7  C   UNL     1      43.504 -10.341   7.325  1.00  0.00     0.146 A 
HETATM    8  O   UNL     1      42.915  -9.788   8.424  1.00  0.00    -0.294 OA
HETATM    9  C   UNL     1      43.831  -9.942   9.428  1.00  0.00     0.105 A 
HETATM   10  C   UNL     1      44.936 -10.546   8.867  1.00  0.00     0.157 A 
HETATM   11  N   UNL     1      44.717 -10.809   7.534  1.00  0.00    -0.238 NA
BRANCH   9  12
HETATM   12  C   UNL     1      43.433  -9.485  10.751  1.00  0.00    -0.001 A 
HETATM   13  C   UNL     1      43.312  -8.116  11.036  1.00  0.00     0.015 A 
HETATM   14  C   UNL     1      42.900  -7.673  12.296  1.00  0.00     0.007 A 
HETATM   15  C   UNL     1      42.611  -8.593  13.307  1.00  0.00    -0.062 A 
HETATM   16  C   UNL     1      42.142  -8.130  14.655  1.00  0.00     0.048 C 
HETATM   17  C   UNL     1      42.727  -9.961  13.033  1.00  0.00     0.007 A 
HETATM   18  C   UNL     1      43.135 -10.401  11.769  1.00  0.00     0.015 A 
ENDBRANCH   9  12
ENDBRANCH   6   7
ENDBRANCH   5   6
ENDBRANCH   1   5
BRANCH   2  19
HETATM   19  N   UNL     1      42.140 -15.100   6.487  1.00  0.00    -0.266 N 
HETATM   20  C   UNL     1      42.937 -15.680   7.454  1.00  0.00     0.260 C 
HETATM   21  O   UNL     1      43.158 -15.148   8.542  1.00  0.00    -0.269 OA
HETATM   22  H   UNL     1      42.138 -15.439   5.525  1.00  0.00     0.190 HD
BRANCH  20  23
HETATM   23  C   UNL     1      43.559 -17.004   7.030  1.00  0.00     0.280 C 
BRANCH  23  24
HETATM   24  O   UNL     1      44.368 -16.793   5.877  1.00  0.00    -0.342 OA
BRANCH  24  25
HETATM   25  C   UNL     1      44.092 -17.587   4.798  1.00  0.00     0.069 A 
HETATM   26  C   UNL     1      43.603 -17.141   3.571  1.00  0.00     0.037 A 
HETATM   27  C   UNL     1      43.343 -18.055   2.544  1.00  0.00     0.009 A 
HETATM   28  C   UNL     1      43.556 -19.424   2.737  1.00  0.00    -0.062 A 
HETATM   29  C   UNL     1      43.307 -20.404   1.628  1.00  0.00     0.048 C 
HETATM   30  C   UNL     1      44.050 -19.866   3.969  1.00  0.00     0.009 A 
HETATM   31  C   UNL     1      44.304 -18.952   4.995  1.00  0.00     0.037 A 
ENDBRANCH  24  25
ENDBRANCH  23  24
ENDBRANCH  20  23
ENDBRANCH   2  19
TORSDOF 8
ENDMDL
MODEL 6
REMARK VINA RESULT:      -8.6      1.657     11.705
REMARK  8 active torsions:
REMARK  status: ('A' for Active; 'I' for Inactive)
REMARK    1  A    between atoms: C_5  and  C_6 
REMARK    2  A    between atoms: C_8  and  C_9 
REMARK    3  A    between atoms: C_9  and  C_10 
REMARK    4  A    between atoms: C_10  and  C_11 
REMARK       I    between atoms: C_11  and  N_12 
REMARK    5  A    between atoms: N_12  and  N_13 
REMARK       I    between atoms: N_13  and  C_14 
REMARK    6  A    between atoms: C_14  and  C_15 
REMARK    7  A    between atoms: C_15  and  O_16 
REMARK    8  A    between atoms: O_16  and  C_17 
ROOT
HETATM    1  C   UNL     1      42.475 -11.640   6.151  1.00  0.00     0.236 C 
HETATM    2  N   UNL     1      43.254 -11.320   7.243  1.00  0.00    -0.267 N 
HETATM    3  O   UNL     1      41.408 -11.082   5.903  1.00  0.00    -0.272 OA
HETATM    4  H   UNL     1      43.971 -11.948   7.603  1.00  0.00     0.190 HD
ENDROOT
BRANCH   1   5
HETATM    5  C   UNL     1      43.066 -12.716   5.264  1.00  0.00     0.112 C 
BRANCH   5   6
HETATM    6  C   UNL     1      42.503 -12.619   3.849  1.00  0.00     0.096 C 
BRANCH   6   7
HETATM    7  C   UNL     1      42.754 -13.865   3.077  1.00  0.00     0.146 A 
HETATM    8  O   UNL     1      43.065 -14.972   3.810  1.00  0.00    -0.294 OA
HETATM    9  C   UNL     1      43.164 -15.982   2.893  1.00  0.00     0.105 A 
HETATM   10  C   UNL     1      42.945 -15.418   1.655  1.00  0.00     0.157 A 
HETATM   11  N   UNL     1      42.671 -14.074   1.780  1.00  0.00    -0.238 NA
BRANCH   9  12
HETATM   12  C   UNL     1      43.434 -17.314   3.416  1.00  0.00    -0.001 A 
HETATM   13  C   UNL     1      43.497 -18.426   2.561  1.00  0.00     0.015 A 
HETATM   14  C   UNL     1      43.788 -19.701   3.054  1.00  0.00     0.007 A 
HETATM   15  C   UNL     1      44.008 -19.896   4.420  1.00  0.00    -0.062 A 
HETATM   16  C   UNL     1      44.347 -21.256   4.956  1.00  0.00     0.048 C 
HETATM   17  C   UNL     1      43.950 -18.794   5.280  1.00  0.00     0.007 A 
HETATM   18  C   UNL     1      43.664 -17.517   4.783  1.00  0.00     0.015 A 
ENDBRANCH   9  12
ENDBRANCH   6   7
ENDBRANCH   5   6
ENDBRANCH   1   5
BRANCH   2  19
HETATM   19  N   UNL     1      42.768 -10.367   8.142  1.00  0.00    -0.266 N 
HETATM   20  C   UNL     1      43.450 -10.169   9.326  1.00  0.00     0.260 C 
HETATM   21  O   UNL     1      44.525 -10.715   9.575  1.00  0.00    -0.269 OA
HETATM   22  H   UNL     1      41.793 -10.087   8.035  1.00  0.00     0.190 HD
BRANCH  20  23
HETATM   23  C   UNL     1      42.725  -9.263  10.312  1.00  0.00     0.280 C 
BRANCH  23  24
HETATM   24  O   UNL     1      42.479  -9.983  11.516  1.00  0.00    -0.342 OA
BRANCH  24  25
HETATM   25  C   UNL     1      42.355  -9.230  12.651  1.00  0.00     0.069 A 
HETATM   26  C   UNL     1      41.413  -9.436  13.658  1.00  0.00     0.037 A 
HETATM   27  C   UNL     1      41.374  -8.584  14.768  1.00  0.00     0.009 A 
HETATM   28  C   UNL     1      42.266  -7.512  14.876  1.00  0.00    -0.062 A 
HETATM   29  C   UNL     1      42.246  -6.616  16.079  1.00  0.00     0.048 C 
HETATM   30  C   UNL     1      43.211  -7.312  13.864  1.00  0.00     0.009 A 
HETATM   31  C   UNL     1      43.245  -8.160  12.754  1.00  0.00     0.037 A 
ENDBRANCH  24  25
ENDBRANCH  23  24
ENDBRANCH  20  23
ENDBRANCH   2  19
TORSDOF 8
ENDMDL
MODEL 7
REMARK VINA RESULT:      -8.2      5.465      9.408
REMARK  8 active torsions:
REMARK  status: ('A' for Active; 'I' for Inactive)
REMARK    1  A    between atoms: C_5  and  C_6 
REMARK    2  A    between atoms: C_8  and  C_9 
REMARK    3  A    between atoms: C_9  and  C_10 
REMARK    4  A    between atoms: C_10  and  C_11 
REMARK       I    between atoms: C_11  and  N_12 
REMARK    5  A    between atoms: N_12  and  N_13 
REMARK       I    between atoms: N_13  and  C_14 
REMARK    6  A    between atoms: C_14  and  C_15 
REMARK    7  A    between atoms: C_15  and  O_16 
REMARK    8  A    between atoms: O_16  and  C_17 
ROOT
HETATM    1  C   UNL     1      40.002 -11.862   6.198  1.00  0.00     0.236 C 
HETATM    2  N   UNL     1      41.362 -11.952   6.407  1.00  0.00    -0.267 N 
HETATM    3  O   UNL     1      39.265 -12.844   6.148  1.00  0.00    -0.272 OA
HETATM    4  H   UNL     1      42.000 -11.192   6.173  1.00  0.00     0.190 HD
ENDROOT
BRANCH   1   5
HETATM    5  C   UNL     1      39.489 -10.442   6.070  1.00  0.00     0.112 C 
BRANCH   5   6
HETATM    6  C   UNL     1      38.708 -10.264   4.771  1.00  0.00     0.096 C 
BRANCH   6   7
HETATM    7  C   UNL     1      39.543 -10.592   3.586  1.00  0.00     0.146 A 
HETATM    8  O   UNL     1      39.057 -11.562   2.760  1.00  0.00    -0.294 OA
HETATM    9  C   UNL     1      39.947 -11.617   1.722  1.00  0.00     0.105 A 
HETATM   10  C   UNL     1      40.939 -10.701   2.002  1.00  0.00     0.157 A 
HETATM   11  N   UNL     1      40.669 -10.044   3.181  1.00  0.00    -0.238 NA
BRANCH   9  12
HETATM   12  C   UNL     1      39.637 -12.545   0.644  1.00  0.00    -0.001 A 
HETATM   13  C   UNL     1      38.857 -12.143  -0.452  1.00  0.00     0.015 A 
HETATM   14  C   UNL     1      38.584 -13.021  -1.505  1.00  0.00     0.007 A 
HETATM   15  C   UNL     1      39.074 -14.329  -1.478  1.00  0.00    -0.062 A 
HETATM   16  C   UNL     1      38.809 -15.272  -2.614  1.00  0.00     0.048 C 
HETATM   17  C   UNL     1      39.854 -14.739  -0.390  1.00  0.00     0.007 A 
HETATM   18  C   UNL     1      40.131 -13.856   0.660  1.00  0.00     0.015 A 
ENDBRANCH   9  12
ENDBRANCH   6   7
ENDBRANCH   5   6
ENDBRANCH   1   5
BRANCH   2  19
HETATM   19  N   UNL     1      41.932 -13.225   6.493  1.00  0.00    -0.266 N 
HETATM   20  C   UNL     1      42.991 -13.530   5.662  1.00  0.00     0.260 C 
HETATM   21  O   UNL     1      43.524 -12.699   4.928  1.00  0.00    -0.269 OA
HETATM   22  H   UNL     1      41.367 -13.955   6.927  1.00  0.00     0.190 HD
BRANCH  20  23
HETATM   23  C   UNL     1      43.398 -14.998   5.695  1.00  0.00     0.280 C 
BRANCH  23  24
HETATM   24  O   UNL     1      42.378 -15.781   5.083  1.00  0.00    -0.342 OA
BRANCH  24  25
HETATM   25  C   UNL     1      42.801 -16.882   4.391  1.00  0.00     0.069 A 
HETATM   26  C   UNL     1      43.664 -17.861   4.882  1.00  0.00     0.037 A 
HETATM   27  C   UNL     1      44.039 -18.938   4.070  1.00  0.00     0.009 A 
HETATM   28  C   UNL     1      43.567 -19.039   2.756  1.00  0.00    -0.062 A 
HETATM   29  C   UNL     1      43.943 -20.207   1.893  1.00  0.00     0.048 C 
HETATM   30  C   UNL     1      42.699 -18.055   2.271  1.00  0.00     0.009 A 
HETATM   31  C   UNL     1      42.329 -16.979   3.081  1.00  0.00     0.037 A 
ENDBRANCH  24  25
ENDBRANCH  23  24
ENDBRANCH  20  23
ENDBRANCH   2  19
TORSDOF 8
ENDMDL
MODEL 8
REMARK VINA RESULT:      -8.0      2.629     11.307
REMARK  8 active torsions:
REMARK  status: ('A' for Active; 'I' for Inactive)
REMARK    1  A    between atoms: C_5  and  C_6 
REMARK    2  A    between atoms: C_8  and  C_9 
REMARK    3  A    between atoms: C_9  and  C_10 
REMARK    4  A    between atoms: C_10  and  C_11 
REMARK       I    between atoms: C_11  and  N_12 
REMARK    5  A    between atoms: N_12  and  N_13 
REMARK       I    between atoms: N_13  and  C_14 
REMARK    6  A    between atoms: C_14  and  C_15 
REMARK    7  A    between atoms: C_15  and  O_16 
REMARK    8  A    between atoms: O_16  and  C_17 
ROOT
HETATM    1  C   UNL     1      40.574 -12.158   6.005  1.00  0.00     0.236 C 
HETATM    2  N   UNL     1      39.663 -11.344   6.644  1.00  0.00    -0.267 N 
HETATM    3  O   UNL     1      41.776 -12.152   6.263  1.00  0.00    -0.272 OA
HETATM    4  H   UNL     1      38.744 -11.144   6.254  1.00  0.00     0.190 HD
ENDROOT
BRANCH   1   5
HETATM    5  C   UNL     1      39.959 -13.088   4.979  1.00  0.00     0.112 C 
BRANCH   5   6
HETATM    6  C   UNL     1      40.407 -12.711   3.570  1.00  0.00     0.096 C 
BRANCH   6   7
HETATM    7  C   UNL     1      41.592 -13.501   3.147  1.00  0.00     0.146 A 
HETATM    8  O   UNL     1      41.773 -14.697   3.778  1.00  0.00    -0.294 OA
HETATM    9  C   UNL     1      42.860 -15.257   3.163  1.00  0.00     0.105 A 
HETATM   10  C   UNL     1      43.294 -14.349   2.221  1.00  0.00     0.157 A 
HETATM   11  N   UNL     1      42.476 -13.242   2.206  1.00  0.00    -0.238 NA
BRANCH   9  12
HETATM   12  C   UNL     1      43.247 -16.588   3.607  1.00  0.00    -0.001 A 
HETATM   13  C   UNL     1      43.348 -17.652   2.696  1.00  0.00     0.015 A 
HETATM   14  C   UNL     1      43.750 -18.924   3.113  1.00  0.00     0.007 A 
HETATM   15  C   UNL     1      44.047 -19.165   4.456  1.00  0.00    -0.062 A 
HETATM   16  C   UNL     1      44.505 -20.520   4.910  1.00  0.00     0.048 C 
HETATM   17  C   UNL     1      43.951 -18.111   5.372  1.00  0.00     0.007 A 
HETATM   18  C   UNL     1      43.553 -16.837   4.951  1.00  0.00     0.015 A 
ENDBRANCH   9  12
ENDBRANCH   6   7
ENDBRANCH   5   6
ENDBRANCH   1   5
BRANCH   2  19
HETATM   19  N   UNL     1      40.146 -10.422   7.576  1.00  0.00    -0.266 N 
HETATM   20  C   UNL     1      39.410 -10.196   8.722  1.00  0.00     0.260 C 
HETATM   21  O   UNL     1      38.406 -10.848   9.009  1.00  0.00    -0.269 OA
HETATM   22  H   UNL     1      40.835  -9.748   7.244  1.00  0.00     0.190 HD
BRANCH  20  23
HETATM   23  C   UNL     1      39.919  -9.033   9.563  1.00  0.00     0.280 C 
BRANCH  23  24
HETATM   24  O   UNL     1      41.313  -9.202   9.803  1.00  0.00    -0.342 OA
BRANCH  24  25
HETATM   25  C   UNL     1      41.784  -8.700  10.985  1.00  0.00     0.069 A 
HETATM   26  C   UNL     1      43.098  -8.802  11.439  1.00  0.00     0.037 A 
HETATM   27  C   UNL     1      43.457  -8.259  12.678  1.00  0.00     0.009 A 
HETATM   28  C   UNL     1      42.504  -7.621  13.480  1.00  0.00    -0.062 A 
HETATM   29  C   UNL     1      42.892  -7.012  14.796  1.00  0.00     0.048 C 
HETATM   30  C   UNL     1      41.188  -7.519  13.018  1.00  0.00     0.009 A 
HETATM   31  C   UNL     1      40.830  -8.066  11.783  1.00  0.00     0.037 A 
ENDBRANCH  24  25
ENDBRANCH  23  24
ENDBRANCH  20  23
ENDBRANCH   2  19
TORSDOF 8
ENDMDL
MODEL 9
REMARK VINA RESULT:      -8.0      5.952     10.346
REMARK  8 active torsions:
REMARK  status: ('A' for Active; 'I' for Inactive)
REMARK    1  A    between atoms: C_5  and  C_6 
REMARK    2  A    between atoms: C_8  and  C_9 
REMARK    3  A    between atoms: C_9  and  C_10 
REMARK    4  A    between atoms: C_10  and  C_11 
REMARK       I    between atoms: C_11  and  N_12 
REMARK    5  A    between atoms: N_12  and  N_13 
REMARK       I    between atoms: N_13  and  C_14 
REMARK    6  A    between atoms: C_14  and  C_15 
REMARK    7  A    between atoms: C_15  and  O_16 
REMARK    8  A    between atoms: O_16  and  C_17 
ROOT
HETATM    1  C   UNL     1      42.364 -11.659   2.739  1.00  0.00     0.236 C 
HETATM    2  N   UNL     1      41.316 -12.552   2.812  1.00  0.00    -0.267 N 
HETATM    3  O   UNL     1      42.410 -10.743   1.921  1.00  0.00    -0.272 OA
HETATM    4  H   UNL     1      41.400 -13.453   3.279  1.00  0.00     0.190 HD
ENDROOT
BRANCH   1   5
HETATM    5  C   UNL     1      43.441 -11.885   3.781  1.00  0.00     0.112 C 
BRANCH   5   6
HETATM    6  C   UNL     1      42.821 -12.219   5.135  1.00  0.00     0.096 C 
BRANCH   6   7
HETATM    7  C   UNL     1      43.138 -13.610   5.550  1.00  0.00     0.146 A 
HETATM    8  O   UNL     1      43.017 -14.566   4.584  1.00  0.00    -0.294 OA
HETATM    9  C   UNL     1      43.437 -15.723   5.182  1.00  0.00     0.105 A 
HETATM   10  C   UNL     1      43.752 -15.404   6.486  1.00  0.00     0.157 A 
HETATM   11  N   UNL     1      43.573 -14.058   6.709  1.00  0.00    -0.238 NA
BRANCH   9  12
HETATM   12  C   UNL     1      43.468 -16.915   4.347  1.00  0.00    -0.001 A 
HETATM   13  C   UNL     1      42.864 -16.925   3.080  1.00  0.00     0.015 A 
HETATM   14  C   UNL     1      42.919 -18.057   2.262  1.00  0.00     0.007 A 
HETATM   15  C   UNL     1      43.568 -19.214   2.700  1.00  0.00    -0.062 A 
HETATM   16  C   UNL     1      43.656 -20.426   1.821  1.00  0.00     0.048 C 
HETATM   17  C   UNL     1      44.175 -19.213   3.962  1.00  0.00     0.007 A 
HETATM   18  C   UNL     1      44.123 -18.077   4.777  1.00  0.00     0.015 A 
ENDBRANCH   9  12
ENDBRANCH   6   7
ENDBRANCH   5   6
ENDBRANCH   1   5
BRANCH   2  19
HETATM   19  N   UNL     1      40.297 -12.448   1.861  1.00  0.00    -0.266 N 
HETATM   20  C   UNL     1      40.372 -13.230   0.726  1.00  0.00     0.260 C 
HETATM   21  O   UNL     1      41.238 -14.090   0.565  1.00  0.00    -0.269 OA
HETATM   22  H   UNL     1      39.721 -11.607   1.892  1.00  0.00     0.190 HD
BRANCH  20  23
HETATM   23  C   UNL     1      39.326 -12.890  -0.328  1.00  0.00     0.280 C 
BRANCH  23  24
HETATM   24  O   UNL     1      39.056 -11.492  -0.286  1.00  0.00    -0.342 OA
BRANCH  24  25
HETATM   25  C   UNL     1      39.701 -10.728  -1.219  1.00  0.00     0.069 A 
HETATM   26  C   UNL     1      39.925 -11.092  -2.546  1.00  0.00     0.037 A 
HETATM   27  C   UNL     1      40.615 -10.229  -3.404  1.00  0.00     0.009 A 
HETATM   28  C   UNL     1      41.100  -9.000  -2.942  1.00  0.00    -0.062 A 
HETATM   29  C   UNL     1      41.814  -8.059  -3.867  1.00  0.00     0.048 C 
HETATM   30  C   UNL     1      40.870  -8.639  -1.610  1.00  0.00     0.009 A 
HETATM   31  C   UNL     1      40.185  -9.505  -0.753  1.00  0.00     0.037 A 
ENDBRANCH  24  25
ENDBRANCH  23  24
ENDBRANCH  20  23
ENDBRANCH   2  19
TORSDOF 8
ENDMDL
MODEL 10
REMARK VINA RESULT:      -8.0      2.532     10.336
REMARK  8 active torsions:
REMARK  status: ('A' for Active; 'I' for Inactive)
REMARK    1  A    between atoms: C_5  and  C_6 
REMARK    2  A    between atoms: C_8  and  C_9 
REMARK    3  A    between atoms: C_9  and  C_10 
REMARK    4  A    between atoms: C_10  and  C_11 
REMARK       I    between atoms: C_11  and  N_12 
REMARK    5  A    between atoms: N_12  and  N_13 
REMARK       I    between atoms: N_13  and  C_14 
REMARK    6  A    between atoms: C_14  and  C_15 
REMARK    7  A    between atoms: C_15  and  O_16 
REMARK    8  A    between atoms: O_16  and  C_17 
ROOT
HETATM    1  C   UNL     1      41.749 -10.397   5.454  1.00  0.00     0.236 C 
HETATM    2  N   UNL     1      42.807 -11.229   5.157  1.00  0.00    -0.267 N 
HETATM    3  O   UNL     1      41.879  -9.340   6.068  1.00  0.00    -0.272 OA
HETATM    4  H   UNL     1      42.677 -12.209   4.909  1.00  0.00     0.190 HD
ENDROOT
BRANCH   1   5
HETATM    5  C   UNL     1      40.414 -10.883   4.929  1.00  0.00     0.112 C 
BRANCH   5   6
HETATM    6  C   UNL     1      40.413 -10.918   3.403  1.00  0.00     0.096 C 
BRANCH   6   7
HETATM    7  C   UNL     1      40.346 -12.311   2.891  1.00  0.00     0.146 A 
HETATM    8  O   UNL     1      41.345 -13.147   3.294  1.00  0.00    -0.294 OA
HETATM    9  C   UNL     1      41.016 -14.366   2.767  1.00  0.00     0.105 A 
HETATM   10  C   UNL     1      39.856 -14.186   2.044  1.00  0.00     0.157 A 
HETATM   11  N   UNL     1      39.429 -12.881   2.138  1.00  0.00    -0.238 NA
BRANCH   9  12
HETATM   12  C   UNL     1      41.896 -15.479   3.096  1.00  0.00    -0.001 A 
HETATM   13  C   UNL     1      42.752 -15.419   4.207  1.00  0.00     0.015 A 
HETATM   14  C   UNL     1      43.575 -16.497   4.544  1.00  0.00     0.007 A 
HETATM   15  C   UNL     1      43.571 -17.658   3.767  1.00  0.00    -0.062 A 
HETATM   16  C   UNL     1      44.431 -18.831   4.134  1.00  0.00     0.048 C 
HETATM   17  C   UNL     1      42.720 -17.728   2.658  1.00  0.00     0.007 A 
HETATM   18  C   UNL     1      41.893 -16.649   2.325  1.00  0.00     0.015 A 
ENDBRANCH   9  12
ENDBRANCH   6   7
ENDBRANCH   5   6
ENDBRANCH   1   5
BRANCH   2  19
HETATM   19  N   UNL     1      44.072 -10.883   5.640  1.00  0.00    -0.266 N 
HETATM   20  C   UNL     1      44.638 -11.667   6.626  1.00  0.00     0.260 C 
HETATM   21  O   UNL     1      44.126 -12.714   7.021  1.00  0.00    -0.269 OA
HETATM   22  H   UNL     1      44.383  -9.926   5.475  1.00  0.00     0.190 HD
BRANCH  20  23
HETATM   23  C   UNL     1      45.915 -11.086   7.218  1.00  0.00     0.280 C 
BRANCH  23  24
HETATM   24  O   UNL     1      45.718  -9.703   7.494  1.00  0.00    -0.342 OA
BRANCH  24  25
HETATM   25  C   UNL     1      45.134  -9.408   8.695  1.00  0.00     0.069 A 
HETATM   26  C   UNL     1      45.369 -10.080   9.894  1.00  0.00     0.037 A 
HETATM   27  C   UNL     1      44.696  -9.696  11.058  1.00  0.00     0.009 A 
HETATM   28  C   UNL     1      43.772  -8.645  11.034  1.00  0.00    -0.062 A 
HETATM   29  C   UNL     1      43.071  -8.210  12.288  1.00  0.00     0.048 C 
HETATM   30  C   UNL     1      43.542  -7.973   9.830  1.00  0.00     0.009 A 
HETATM   31  C   UNL     1      44.212  -8.361   8.666  1.00  0.00     0.037 A 
ENDBRANCH  24  25
ENDBRANCH  23  24
ENDBRANCH  20  23
ENDBRANCH   2  19
TORSDOF 8
ENDMDL
