MODEL 1
REMARK VINA RESULT:      -8.4      0.000      0.000
REMARK  6 active torsions:
REMARK  status: ('A' for Active; 'I' for Inactive)
REMARK    1  A    between atoms: C_3  and  N_4 
REMARK       I    between atoms: N_4  and  C_5 
REMARK    2  A    between atoms: C_5  and  C_6 
REMARK    3  A    between atoms: C_6  and  N_7 
REMARK    4  A    between atoms: N_7  and  C_9 
REMARK    5  A    between atoms: C_9  and  C_10 
REMARK    6  A    between atoms: C_18  and  O_19 
ROOT
HETATM    1  N   UNL     1      40.949 -12.541   4.305  1.00  0.00    -0.063 N 
HETATM    2  H   UNL     1      40.556 -13.410   3.913  1.00  0.00     0.280 HD
HETATM    3  C   UNL     1      40.310 -12.348   5.645  1.00  0.00     0.270 C 
ENDROOT
BRANCH   1   4
HETATM    4  C   UNL     1      40.525 -11.457   3.305  1.00  0.00     0.337 C 
BRANCH   4   5
HETATM    5  C   UNL     1      39.906 -12.036   2.030  1.00  0.00     0.248 C 
HETATM    6  N   UNL     1      40.827 -12.564   1.143  1.00  0.00    -0.325 N 
HETATM    7  H   UNL     1      41.768 -12.190   1.185  1.00  0.00     0.169 HD
HETATM    8  O   UNL     1      38.691 -11.953   1.860  1.00  0.00    -0.271 OA
BRANCH   6   9
HETATM    9  C   UNL     1      40.467 -13.111  -0.118  1.00  0.00     0.046 A 
HETATM   10  C   UNL     1      40.640 -12.300  -1.266  1.00  0.00    -0.035 A 
HETATM   11  C   UNL     1      41.185 -10.898  -1.201  1.00  0.00     0.050 C 
HETATM   12  C   UNL     1      40.271 -12.799  -2.525  1.00  0.00     0.009 A 
HETATM   13  C   UNL     1      39.741 -14.077  -2.656  1.00  0.00     0.001 A 
HETATM   14  C   UNL     1      39.607 -14.887  -1.535  1.00  0.00     0.009 A 
HETATM   15  C   UNL     1      39.995 -14.434  -0.261  1.00  0.00    -0.035 A 
HETATM   16  C   UNL     1      39.921 -15.433   0.861  1.00  0.00     0.050 C 
ENDBRANCH   6   9
ENDBRANCH   4   5
ENDBRANCH   1   4
BRANCH   1  17
HETATM   17  C   UNL     1      42.442 -12.851   4.372  1.00  0.00     0.276 C 
BRANCH  17  18
HETATM   18  C   UNL     1      42.848 -14.291   4.450  1.00  0.00     0.009 A 
HETATM   19  C   UNL     1      43.282 -14.903   5.618  1.00  0.00     0.134 A 
HETATM   20 CL   UNL     1      43.391 -14.076   7.123  1.00  0.00    -0.062 Cl
HETATM   21  N   UNL     1      43.655 -16.191   5.716  1.00  0.00    -0.235 NA
HETATM   22  C   UNL     1      43.563 -16.971   4.627  1.00  0.00     0.071 A 
HETATM   23  C   UNL     1      43.111 -16.471   3.392  1.00  0.00    -0.006 A 
HETATM   24  C   UNL     1      43.909 -18.312   4.711  1.00  0.00     0.069 A 
HETATM   25  C   UNL     1      42.758 -15.114   3.320  1.00  0.00     0.026 A 
HETATM   26  C   UNL     1      43.016 -17.325   2.281  1.00  0.00     0.016 A 
HETATM   27  C   UNL     1      43.363 -18.674   2.393  1.00  0.00     0.038 A 
HETATM   28  C   UNL     1      43.807 -19.174   3.614  1.00  0.00     0.070 A 
BRANCH  28  29
HETATM   29  O   UNL     1      44.173 -20.465   3.869  1.00  0.00    -0.356 OA
HETATM   30  C   UNL     1      44.029 -20.929   5.206  1.00  0.00     0.210 C 
ENDBRANCH  28  29
ENDBRANCH  17  18
ENDBRANCH   1  17
TORSDOF 6
ENDMDL
MODEL 2
REMARK VINA RESULT:      -8.3      3.035      7.293
REMARK  6 active torsions:
REMARK  status: ('A' for Active; 'I' for Inactive)
REMARK    1  A    between atoms: C_3  and  N_4 
REMARK       I    between atoms: N_4  and  C_5 
REMARK    2  A    between atoms: C_5  and  C_6 
REMARK    3  A    between atoms: C_6  and  N_7 
REMARK    4  A    between atoms: N_7  and  C_9 
REMARK    5  A    between atoms: C_9  and  C_10 
REMARK    6  A    between atoms: C_18  and  O_19 
ROOT
HETATM    1  N   UNL     1      41.318 -14.792   1.406  1.00  0.00    -0.063 N 
HETATM    2  H   UNL     1      41.007 -14.864   2.387  1.00  0.00     0.280 HD
HETATM    3  C   UNL     1      40.141 -15.160   0.556  1.00  0.00     0.270 C 
ENDROOT
BRANCH   1   4
HETATM    4  C   UNL     1      42.449 -15.824   1.297  1.00  0.00     0.337 C 
BRANCH   4   5
HETATM    5  C   UNL     1      42.431 -16.845   2.438  1.00  0.00     0.248 C 
HETATM    6  N   UNL     1      43.556 -17.649   2.495  1.00  0.00    -0.325 N 
HETATM    7  H   UNL     1      44.061 -17.790   1.628  1.00  0.00     0.169 HD
HETATM    8  O   UNL     1      41.442 -16.919   3.164  1.00  0.00    -0.271 OA
BRANCH   6   9
HETATM    9  C   UNL     1      43.720 -18.689   3.449  1.00  0.00     0.046 A 
HETATM   10  C   UNL     1      43.687 -20.026   2.984  1.00  0.00    -0.035 A 
HETATM   11  C   UNL     1      43.486 -20.382   1.534  1.00  0.00     0.050 C 
HETATM   12  C   UNL     1      43.821 -21.080   3.902  1.00  0.00     0.009 A 
HETATM   13  C   UNL     1      43.987 -20.825   5.258  1.00  0.00     0.001 A 
HETATM   14  C   UNL     1      44.059 -19.512   5.710  1.00  0.00     0.009 A 
HETATM   15  C   UNL     1      43.960 -18.430   4.816  1.00  0.00    -0.035 A 
HETATM   16  C   UNL     1      44.173 -17.057   5.394  1.00  0.00     0.050 C 
ENDBRANCH   6   9
ENDBRANCH   4   5
ENDBRANCH   1   4
BRANCH   1  17
HETATM   17  C   UNL     1      41.728 -13.327   1.293  1.00  0.00     0.276 C 
BRANCH  17  18
HETATM   18  C   UNL     1      42.197 -12.640   2.539  1.00  0.00     0.009 A 
HETATM   19  C   UNL     1      42.213 -11.260   2.695  1.00  0.00     0.134 A 
HETATM   20 CL   UNL     1      41.679 -10.175   1.472  1.00  0.00    -0.062 Cl
HETATM   21  N   UNL     1      42.631 -10.618   3.800  1.00  0.00    -0.235 NA
HETATM   22  C   UNL     1      43.021 -11.348   4.858  1.00  0.00     0.071 A 
HETATM   23  C   UNL     1      43.023 -12.755   4.830  1.00  0.00    -0.006 A 
HETATM   24  C   UNL     1      43.423 -10.709   6.022  1.00  0.00     0.069 A 
HETATM   25  C   UNL     1      42.607 -13.391   3.649  1.00  0.00     0.026 A 
HETATM   26  C   UNL     1      43.424 -13.479   5.964  1.00  0.00     0.016 A 
HETATM   27  C   UNL     1      43.818 -12.812   7.127  1.00  0.00     0.038 A 
HETATM   28  C   UNL     1      43.814 -11.421   7.161  1.00  0.00     0.070 A 
BRANCH  28  29
HETATM   29  O   UNL     1      44.167 -10.642   8.226  1.00  0.00    -0.356 OA
HETATM   30  C   UNL     1      45.551 -10.580   8.555  1.00  0.00     0.210 C 
ENDBRANCH  28  29
ENDBRANCH  17  18
ENDBRANCH   1  17
TORSDOF 6
ENDMDL
MODEL 3
REMARK VINA RESULT:      -8.3      0.266      1.661
REMARK  6 active torsions:
REMARK  status: ('A' for Active; 'I' for Inactive)
REMARK    1  A    between atoms: C_3  and  N_4 
REMARK       I    between atoms: N_4  and  C_5 
REMARK    2  A    between atoms: C_5  and  C_6 
REMARK    3  A    between atoms: C_6  and  N_7 
REMARK    4  A    between atoms: N_7  and  C_9 
REMARK    5  A    between atoms: C_9  and  C_10 
REMARK    6  A    between atoms: C_18  and  O_19 
ROOT
HETATM    1  N   UNL     1      40.925 -12.631   4.139  1.00  0.00    -0.063 N 
HETATM    2  H   UNL     1      40.545 -13.478   3.690  1.00  0.00     0.280 HD
HETATM    3  C   UNL     1      40.279 -12.534   5.487  1.00  0.00     0.270 C 
ENDROOT
BRANCH   1   4
HETATM    4  C   UNL     1      40.490 -11.490   3.211  1.00  0.00     0.337 C 
BRANCH   4   5
HETATM    5  C   UNL     1      39.808 -11.992   1.935  1.00  0.00     0.248 C 
HETATM    6  N   UNL     1      40.674 -12.557   1.015  1.00  0.00    -0.325 N 
HETATM    7  H   UNL     1      41.639 -12.248   1.047  1.00  0.00     0.169 HD
HETATM    8  O   UNL     1      38.599 -11.822   1.792  1.00  0.00    -0.271 OA
BRANCH   6   9
HETATM    9  C   UNL     1      40.253 -13.045  -0.252  1.00  0.00     0.046 A 
HETATM   10  C   UNL     1      39.894 -14.411  -0.348  1.00  0.00    -0.035 A 
HETATM   11  C   UNL     1      39.940 -15.353   0.825  1.00  0.00     0.050 C 
HETATM   12  C   UNL     1      39.497 -14.933  -1.590  1.00  0.00     0.009 A 
HETATM   13  C   UNL     1      39.453 -14.126  -2.720  1.00  0.00     0.001 A 
HETATM   14  C   UNL     1      39.768 -12.776  -2.617  1.00  0.00     0.009 A 
HETATM   15  C   UNL     1      40.139 -12.209  -1.384  1.00  0.00    -0.035 A 
HETATM   16  C   UNL     1      40.340 -10.719  -1.361  1.00  0.00     0.050 C 
ENDBRANCH   6   9
ENDBRANCH   4   5
ENDBRANCH   1   4
BRANCH   1  17
HETATM   17  C   UNL     1      42.421 -12.925   4.193  1.00  0.00     0.276 C 
BRANCH  17  18
HETATM   18  C   UNL     1      42.843 -14.357   4.327  1.00  0.00     0.009 A 
HETATM   19  C   UNL     1      43.285 -14.917   5.517  1.00  0.00     0.134 A 
HETATM   20 CL   UNL     1      43.389 -14.031   6.987  1.00  0.00    -0.062 Cl
HETATM   21  N   UNL     1      43.672 -16.197   5.665  1.00  0.00    -0.235 NA
HETATM   22  C   UNL     1      43.585 -17.020   4.608  1.00  0.00     0.071 A 
HETATM   23  C   UNL     1      43.125 -16.574   3.354  1.00  0.00    -0.006 A 
HETATM   24  C   UNL     1      43.945 -18.353   4.744  1.00  0.00     0.069 A 
HETATM   25  C   UNL     1      42.758 -15.225   3.230  1.00  0.00     0.026 A 
HETATM   26  C   UNL     1      43.037 -17.472   2.279  1.00  0.00     0.016 A 
HETATM   27  C   UNL     1      43.398 -18.812   2.444  1.00  0.00     0.038 A 
HETATM   28  C   UNL     1      43.850 -19.259   3.682  1.00  0.00     0.070 A 
BRANCH  28  29
HETATM   29  O   UNL     1      44.230 -20.535   3.986  1.00  0.00    -0.356 OA
HETATM   30  C   UNL     1      44.231 -20.901   5.362  1.00  0.00     0.210 C 
ENDBRANCH  28  29
ENDBRANCH  17  18
ENDBRANCH   1  17
TORSDOF 6
ENDMDL
MODEL 4
REMARK VINA RESULT:      -8.2      3.275      6.314
REMARK  6 active torsions:
REMARK  status: ('A' for Active; 'I' for Inactive)
REMARK    1  A    between atoms: C_3  and  N_4 
REMARK       I    between atoms: N_4  and  C_5 
REMARK    2  A    between atoms: C_5  and  C_6 
REMARK    3  A    between atoms: C_6  and  N_7 
REMARK    4  A    between atoms: N_7  and  C_9 
REMARK    5  A    between atoms: C_9  and  C_10 
REMARK    6  A    between atoms: C_18  and  O_19 
ROOT
HETATM    1  N   UNL     1      41.219 -12.594   4.361  1.00  0.00    -0.063 N 
HETATM    2  H   UNL     1      41.089 -11.939   3.575  1.00  0.00     0.280 HD
HETATM    3  C   UNL     1      40.244 -13.712   4.153  1.00  0.00     0.270 C 
ENDROOT
BRANCH   1   4
HETATM    4  C   UNL     1      40.876 -11.758   5.602  1.00  0.00     0.337 C 
BRANCH   4   5
HETATM    5  C   UNL     1      41.999 -10.793   5.994  1.00  0.00     0.248 C 
HETATM    6  N   UNL     1      42.645 -11.125   7.172  1.00  0.00    -0.325 N 
HETATM    7  H   UNL     1      42.116 -11.669   7.845  1.00  0.00     0.169 HD
HETATM    8  O   UNL     1      42.212  -9.803   5.298  1.00  0.00    -0.271 OA
BRANCH   6   9
HETATM    9  C   UNL     1      43.685 -10.339   7.737  1.00  0.00     0.046 A 
HETATM   10  C   UNL     1      43.337  -9.400   8.738  1.00  0.00    -0.035 A 
HETATM   11  C   UNL     1      41.923  -9.206   9.220  1.00  0.00     0.050 C 
HETATM   12  C   UNL     1      44.336  -8.589   9.300  1.00  0.00     0.009 A 
HETATM   13  C   UNL     1      45.657  -8.699   8.886  1.00  0.00     0.001 A 
HETATM   14  C   UNL     1      46.006  -9.647   7.931  1.00  0.00     0.009 A 
HETATM   15  C   UNL     1      45.039 -10.500   7.368  1.00  0.00    -0.035 A 
HETATM   16  C   UNL     1      45.542 -11.568   6.437  1.00  0.00     0.050 C 
ENDBRANCH   6   9
ENDBRANCH   4   5
ENDBRANCH   1   4
BRANCH   1  17
HETATM   17  C   UNL     1      42.678 -13.012   4.211  1.00  0.00     0.276 C 
BRANCH  17  18
HETATM   18  C   UNL     1      43.000 -14.470   4.342  1.00  0.00     0.009 A 
HETATM   19  C   UNL     1      43.253 -15.093   5.556  1.00  0.00     0.134 A 
HETATM   20 CL   UNL     1      43.214 -14.261   7.061  1.00  0.00    -0.062 Cl
HETATM   21  N   UNL     1      43.546 -16.398   5.702  1.00  0.00    -0.235 NA
HETATM   22  C   UNL     1      43.553 -17.180   4.611  1.00  0.00     0.071 A 
HETATM   23  C   UNL     1      43.284 -16.668   3.327  1.00  0.00    -0.006 A 
HETATM   24  C   UNL     1      43.818 -18.535   4.740  1.00  0.00     0.069 A 
HETATM   25  C   UNL     1      43.011 -15.296   3.210  1.00  0.00     0.026 A 
HETATM   26  C   UNL     1      43.286 -17.525   2.215  1.00  0.00     0.016 A 
HETATM   27  C   UNL     1      43.549 -18.888   2.372  1.00  0.00     0.038 A 
HETATM   28  C   UNL     1      43.812 -19.400   3.639  1.00  0.00     0.070 A 
BRANCH  28  29
HETATM   29  O   UNL     1      44.078 -20.705   3.940  1.00  0.00    -0.356 OA
HETATM   30  C   UNL     1      44.163 -21.050   5.318  1.00  0.00     0.210 C 
ENDBRANCH  28  29
ENDBRANCH  17  18
ENDBRANCH   1  17
TORSDOF 6
ENDMDL
MODEL 5
REMARK VINA RESULT:      -8.1      3.461      6.506
REMARK  6 active torsions:
REMARK  status: ('A' for Active; 'I' for Inactive)
REMARK    1  A    between atoms: C_3  and  N_4 
REMARK       I    between atoms: N_4  and  C_5 
REMARK    2  A    between atoms: C_5  and  C_6 
REMARK    3  A    between atoms: C_6  and  N_7 
REMARK    4  A    between atoms: N_7  and  C_9 
REMARK    5  A    between atoms: C_9  and  C_10 
REMARK    6  A    between atoms: C_18  and  O_19 
ROOT
HETATM    1  N   UNL     1      40.553 -12.642   5.185  1.00  0.00    -0.063 N 
HETATM    2  H   UNL     1      39.820 -12.659   4.460  1.00  0.00     0.280 HD
HETATM    3  C   UNL     1      40.213 -13.724   6.164  1.00  0.00     0.270 C 
ENDROOT
BRANCH   1   4
HETATM    4  C   UNL     1      40.430 -11.246   5.808  1.00  0.00     0.337 C 
BRANCH   4   5
HETATM    5  C   UNL     1      41.785 -10.558   5.995  1.00  0.00     0.248 C 
HETATM    6  N   UNL     1      42.402 -10.840   7.202  1.00  0.00    -0.325 N 
HETATM    7  H   UNL     1      41.798 -11.101   7.973  1.00  0.00     0.169 HD
HETATM    8  O   UNL     1      42.197  -9.794   5.125  1.00  0.00    -0.271 OA
BRANCH   6   9
HETATM    9  C   UNL     1      43.644 -10.271   7.592  1.00  0.00     0.046 A 
HETATM   10  C   UNL     1      44.823 -11.007   7.320  1.00  0.00    -0.035 A 
HETATM   11  C   UNL     1      44.810 -12.351   6.642  1.00  0.00     0.050 C 
HETATM   12  C   UNL     1      46.066 -10.487   7.715  1.00  0.00     0.009 A 
HETATM   13  C   UNL     1      46.151  -9.262   8.365  1.00  0.00     0.001 A 
HETATM   14  C   UNL     1      44.997  -8.522   8.598  1.00  0.00     0.009 A 
HETATM   15  C   UNL     1      43.737  -8.995   8.189  1.00  0.00    -0.035 A 
HETATM   16  C   UNL     1      42.572  -8.062   8.379  1.00  0.00     0.050 C 
ENDBRANCH   6   9
ENDBRANCH   4   5
ENDBRANCH   1   4
BRANCH   1  17
HETATM   17  C   UNL     1      41.822 -12.913   4.382  1.00  0.00     0.276 C 
BRANCH  17  18
HETATM   18  C   UNL     1      42.095 -14.329   3.973  1.00  0.00     0.009 A 
HETATM   19  C   UNL     1      41.490 -14.943   2.884  1.00  0.00     0.134 A 
HETATM   20 CL   UNL     1      40.362 -14.139   1.865  1.00  0.00    -0.062 Cl
HETATM   21  N   UNL     1      41.714 -16.211   2.497  1.00  0.00    -0.235 NA
HETATM   22  C   UNL     1      42.619 -16.937   3.171  1.00  0.00     0.071 A 
HETATM   23  C   UNL     1      43.318 -16.416   4.276  1.00  0.00    -0.006 A 
HETATM   24  C   UNL     1      42.894 -18.237   2.770  1.00  0.00     0.069 A 
HETATM   25  C   UNL     1      43.037 -15.098   4.670  1.00  0.00     0.026 A 
HETATM   26  C   UNL     1      44.268 -17.206   4.944  1.00  0.00     0.016 A 
HETATM   27  C   UNL     1      44.531 -18.509   4.515  1.00  0.00     0.038 A 
HETATM   28  C   UNL     1      43.847 -19.028   3.421  1.00  0.00     0.070 A 
BRANCH  28  29
HETATM   29  O   UNL     1      44.005 -20.278   2.892  1.00  0.00    -0.356 OA
HETATM   30  C   UNL     1      43.510 -20.493   1.575  1.00  0.00     0.210 C 
ENDBRANCH  28  29
ENDBRANCH  17  18
ENDBRANCH   1  17
TORSDOF 6
ENDMDL
MODEL 6
REMARK VINA RESULT:      -8.0      3.413      6.808
REMARK  6 active torsions:
REMARK  status: ('A' for Active; 'I' for Inactive)
REMARK    1  A    between atoms: C_3  and  N_4 
REMARK       I    between atoms: N_4  and  C_5 
REMARK    2  A    between atoms: C_5  and  C_6 
REMARK    3  A    between atoms: C_6  and  N_7 
REMARK    4  A    between atoms: N_7  and  C_9 
REMARK    5  A    between atoms: C_9  and  C_10 
REMARK    6  A    between atoms: C_18  and  O_19 
ROOT
HETATM    1  N   UNL     1      40.775 -12.756   1.906  1.00  0.00    -0.063 N 
HETATM    2  H   UNL     1      40.627 -13.142   2.851  1.00  0.00     0.280 HD
HETATM    3  C   UNL     1      39.418 -12.444   1.354  1.00  0.00     0.270 C 
ENDROOT
BRANCH   1   4
HETATM    4  C   UNL     1      41.458 -13.897   1.140  1.00  0.00     0.337 C 
BRANCH   4   5
HETATM    5  C   UNL     1      42.457 -14.674   2.002  1.00  0.00     0.248 C 
HETATM    6  N   UNL     1      41.870 -15.528   2.919  1.00  0.00    -0.325 N 
HETATM    7  H   UNL     1      40.932 -15.294   3.226  1.00  0.00     0.169 HD
HETATM    8  O   UNL     1      43.660 -14.460   1.869  1.00  0.00    -0.271 OA
BRANCH   6   9
HETATM    9  C   UNL     1      42.616 -16.308   3.844  1.00  0.00     0.046 A 
HETATM   10  C   UNL     1      42.749 -15.818   5.166  1.00  0.00    -0.035 A 
HETATM   11  C   UNL     1      42.138 -14.519   5.622  1.00  0.00     0.050 C 
HETATM   12  C   UNL     1      43.501 -16.550   6.100  1.00  0.00     0.009 A 
HETATM   13  C   UNL     1      44.111 -17.745   5.741  1.00  0.00     0.001 A 
HETATM   14  C   UNL     1      43.947 -18.245   4.454  1.00  0.00     0.009 A 
HETATM   15  C   UNL     1      43.176 -17.557   3.501  1.00  0.00    -0.035 A 
HETATM   16  C   UNL     1      42.964 -18.246   2.180  1.00  0.00     0.050 C 
ENDBRANCH   6   9
ENDBRANCH   4   5
ENDBRANCH   1   4
BRANCH   1  17
HETATM   17  C   UNL     1      41.628 -11.521   2.179  1.00  0.00     0.276 C 
BRANCH  17  18
HETATM   18  C   UNL     1      42.133 -11.323   3.576  1.00  0.00     0.009 A 
HETATM   19  C   UNL     1      41.310 -11.033   4.656  1.00  0.00     0.134 A 
HETATM   20 CL   UNL     1      39.603 -10.882   4.516  1.00  0.00    -0.062 Cl
HETATM   21  N   UNL     1      41.737 -10.848   5.918  1.00  0.00    -0.235 NA
HETATM   22  C   UNL     1      43.045 -10.996   6.181  1.00  0.00     0.071 A 
HETATM   23  C   UNL     1      43.975 -11.316   5.174  1.00  0.00    -0.006 A 
HETATM   24  C   UNL     1      43.506 -10.844   7.481  1.00  0.00     0.069 A 
HETATM   25  C   UNL     1      43.497 -11.473   3.863  1.00  0.00     0.026 A 
HETATM   26  C   UNL     1      45.332 -11.476   5.496  1.00  0.00     0.016 A 
HETATM   27  C   UNL     1      45.769 -11.325   6.814  1.00  0.00     0.038 A 
HETATM   28  C   UNL     1      44.854 -11.012   7.814  1.00  0.00     0.070 A 
BRANCH  28  29
HETATM   29  O   UNL     1      45.138 -10.841   9.139  1.00  0.00    -0.356 OA
HETATM   30  C   UNL     1      44.866  -9.563   9.702  1.00  0.00     0.210 C 
ENDBRANCH  28  29
ENDBRANCH  17  18
ENDBRANCH   1  17
TORSDOF 6
ENDMDL
MODEL 7
REMARK VINA RESULT:      -7.8      2.063      7.137
REMARK  6 active torsions:
REMARK  status: ('A' for Active; 'I' for Inactive)
REMARK    1  A    between atoms: C_3  and  N_4 
REMARK       I    between atoms: N_4  and  C_5 
REMARK    2  A    between atoms: C_5  and  C_6 
REMARK    3  A    between atoms: C_6  and  N_7 
REMARK    4  A    between atoms: N_7  and  C_9 
REMARK    5  A    between atoms: C_9  and  C_10 
REMARK    6  A    between atoms: C_18  and  O_19 
ROOT
HETATM    1  N   UNL     1      42.683 -13.937   5.514  1.00  0.00    -0.063 N 
HETATM    2  H   UNL     1      42.976 -14.338   4.609  1.00  0.00     0.280 HD
HETATM    3  C   UNL     1      43.364 -12.608   5.635  1.00  0.00     0.270 C 
ENDROOT
BRANCH   1   4
HETATM    4  C   UNL     1      43.197 -14.943   6.551  1.00  0.00     0.337 C 
BRANCH   4   5
HETATM    5  C   UNL     1      43.835 -16.179   5.912  1.00  0.00     0.248 C 
HETATM    6  N   UNL     1      42.938 -17.003   5.254  1.00  0.00    -0.325 N 
HETATM    7  H   UNL     1      41.975 -16.971   5.568  1.00  0.00     0.169 HD
HETATM    8  O   UNL     1      45.038 -16.381   6.060  1.00  0.00    -0.271 OA
BRANCH   6   9
HETATM    9  C   UNL     1      43.315 -18.223   4.631  1.00  0.00     0.046 A 
HETATM   10  C   UNL     1      43.507 -18.217   3.228  1.00  0.00    -0.035 A 
HETATM   11  C   UNL     1      43.329 -16.983   2.384  1.00  0.00     0.050 C 
HETATM   12  C   UNL     1      43.856 -19.411   2.575  1.00  0.00     0.009 A 
HETATM   13  C   UNL     1      44.015 -20.592   3.289  1.00  0.00     0.001 A 
HETATM   14  C   UNL     1      43.865 -20.589   4.671  1.00  0.00     0.009 A 
HETATM   15  C   UNL     1      43.547 -19.407   5.365  1.00  0.00    -0.035 A 
HETATM   16  C   UNL     1      43.529 -19.490   6.866  1.00  0.00     0.050 C 
ENDBRANCH   6   9
ENDBRANCH   4   5
ENDBRANCH   1   4
BRANCH   1  17
HETATM   17  C   UNL     1      41.168 -13.840   5.360  1.00  0.00     0.276 C 
BRANCH  17  18
HETATM   18  C   UNL     1      40.628 -13.505   4.003  1.00  0.00     0.009 A 
HETATM   19  C   UNL     1      40.118 -12.259   3.666  1.00  0.00     0.134 A 
HETATM   20 CL   UNL     1      40.060 -10.943   4.772  1.00  0.00    -0.062 Cl
HETATM   21  N   UNL     1      39.626 -11.932   2.458  1.00  0.00    -0.235 NA
HETATM   22  C   UNL     1      39.665 -12.850   1.480  1.00  0.00     0.071 A 
HETATM   23  C   UNL     1      40.183 -14.142   1.692  1.00  0.00    -0.006 A 
HETATM   24  C   UNL     1      39.195 -12.527   0.215  1.00  0.00     0.069 A 
HETATM   25  C   UNL     1      40.662 -14.456   2.973  1.00  0.00     0.026 A 
HETATM   26  C   UNL     1      40.218 -15.067   0.636  1.00  0.00     0.016 A 
HETATM   27  C   UNL     1      39.746 -14.713  -0.631  1.00  0.00     0.038 A 
HETATM   28  C   UNL     1      39.235 -13.437  -0.847  1.00  0.00     0.070 A 
BRANCH  28  29
HETATM   29  O   UNL     1      38.746 -12.956  -2.028  1.00  0.00    -0.356 OA
HETATM   30  C   UNL     1      38.674 -13.866  -3.120  1.00  0.00     0.210 C 
ENDBRANCH  28  29
ENDBRANCH  17  18
ENDBRANCH   1  17
TORSDOF 6
ENDMDL
MODEL 8
REMARK VINA RESULT:      -7.8      2.323      7.218
REMARK  6 active torsions:
REMARK  status: ('A' for Active; 'I' for Inactive)
REMARK    1  A    between atoms: C_3  and  N_4 
REMARK       I    between atoms: N_4  and  C_5 
REMARK    2  A    between atoms: C_5  and  C_6 
REMARK    3  A    between atoms: C_6  and  N_7 
REMARK    4  A    between atoms: N_7  and  C_9 
REMARK    5  A    between atoms: C_9  and  C_10 
REMARK    6  A    between atoms: C_18  and  O_19 
ROOT
HETATM    1  N   UNL     1      41.390 -13.294   5.496  1.00  0.00    -0.063 N 
HETATM    2  H   UNL     1      41.788 -13.598   4.594  1.00  0.00     0.280 HD
HETATM    3  C   UNL     1      42.232 -12.150   5.972  1.00  0.00     0.270 C 
ENDROOT
BRANCH   1   4
HETATM    4  C   UNL     1      41.532 -14.526   6.400  1.00  0.00     0.337 C 
BRANCH   4   5
HETATM    5  C   UNL     1      41.661 -15.830   5.608  1.00  0.00     0.248 C 
HETATM    6  N   UNL     1      42.959 -16.152   5.254  1.00  0.00    -0.325 N 
HETATM    7  H   UNL     1      43.614 -15.382   5.173  1.00  0.00     0.169 HD
HETATM    8  O   UNL     1      40.645 -16.452   5.304  1.00  0.00    -0.271 OA
BRANCH   6   9
HETATM    9  C   UNL     1      43.294 -17.296   4.481  1.00  0.00     0.046 A 
HETATM   10  C   UNL     1      43.585 -18.498   5.170  1.00  0.00    -0.035 A 
HETATM   11  C   UNL     1      43.552 -18.609   6.671  1.00  0.00     0.050 C 
HETATM   12  C   UNL     1      43.944 -19.642   4.438  1.00  0.00     0.009 A 
HETATM   13  C   UNL     1      44.016 -19.606   3.051  1.00  0.00     0.001 A 
HETATM   14  C   UNL     1      43.693 -18.436   2.373  1.00  0.00     0.009 A 
HETATM   15  C   UNL     1      43.298 -17.279   3.069  1.00  0.00    -0.035 A 
HETATM   16  C   UNL     1      42.854 -16.109   2.235  1.00  0.00     0.050 C 
ENDBRANCH   6   9
ENDBRANCH   4   5
ENDBRANCH   1   4
BRANCH   1  17
HETATM   17  C   UNL     1      39.967 -12.896   5.115  1.00  0.00     0.276 C 
BRANCH  17  18
HETATM   18  C   UNL     1      39.661 -12.725   3.658  1.00  0.00     0.009 A 
HETATM   19  C   UNL     1      39.093 -11.577   3.123  1.00  0.00     0.134 A 
HETATM   20 CL   UNL     1      38.684 -10.205   4.076  1.00  0.00    -0.062 Cl
HETATM   21  N   UNL     1      38.806 -11.398   1.822  1.00  0.00    -0.235 NA
HETATM   22  C   UNL     1      39.128 -12.370   0.954  1.00  0.00     0.071 A 
HETATM   23  C   UNL     1      39.734 -13.569   1.372  1.00  0.00    -0.006 A 
HETATM   24  C   UNL     1      38.874 -12.195  -0.399  1.00  0.00     0.069 A 
HETATM   25  C   UNL     1      39.992 -13.733   2.742  1.00  0.00     0.026 A 
HETATM   26  C   UNL     1      40.068 -14.554   0.428  1.00  0.00     0.016 A 
HETATM   27  C   UNL     1      39.809 -14.350  -0.929  1.00  0.00     0.038 A 
HETATM   28  C   UNL     1      39.213 -13.164  -1.349  1.00  0.00     0.070 A 
BRANCH  28  29
HETATM   29  O   UNL     1      38.908 -12.830  -2.637  1.00  0.00    -0.356 OA
HETATM   30  C   UNL     1      39.045 -11.461  -3.003  1.00  0.00     0.210 C 
ENDBRANCH  28  29
ENDBRANCH  17  18
ENDBRANCH   1  17
TORSDOF 6
ENDMDL
MODEL 9
REMARK VINA RESULT:      -7.5      4.531      7.939
REMARK  6 active torsions:
REMARK  status: ('A' for Active; 'I' for Inactive)
REMARK    1  A    between atoms: C_3  and  N_4 
REMARK       I    between atoms: N_4  and  C_5 
REMARK    2  A    between atoms: C_5  and  C_6 
REMARK    3  A    between atoms: C_6  and  N_7 
REMARK    4  A    between atoms: N_7  and  C_9 
REMARK    5  A    between atoms: C_9  and  C_10 
REMARK    6  A    between atoms: C_18  and  O_19 
ROOT
HETATM    1  N   UNL     1      42.955 -11.861   6.785  1.00  0.00    -0.063 N 
HETATM    2  H   UNL     1      42.697 -11.907   7.783  1.00  0.00     0.280 HD
HETATM    3  C   UNL     1      44.351 -12.392   6.678  1.00  0.00     0.270 C 
ENDROOT
BRANCH   1   4
HETATM    4  C   UNL     1      42.883 -10.365   6.451  1.00  0.00     0.337 C 
BRANCH   4   5
HETATM    5  C   UNL     1      42.821  -9.481   7.700  1.00  0.00     0.248 C 
HETATM    6  N   UNL     1      42.691 -10.184   8.885  1.00  0.00    -0.325 N 
HETATM    7  H   UNL     1      42.261 -11.100   8.827  1.00  0.00     0.169 HD
HETATM    8  O   UNL     1      42.836  -8.259   7.573  1.00  0.00    -0.271 OA
BRANCH   6   9
HETATM    9  C   UNL     1      42.572  -9.555  10.153  1.00  0.00     0.046 A 
HETATM   10  C   UNL     1      43.764  -9.231  10.846  1.00  0.00    -0.035 A 
HETATM   11  C   UNL     1      45.135  -9.524  10.295  1.00  0.00     0.050 C 
HETATM   12  C   UNL     1      43.684  -8.631  12.113  1.00  0.00     0.009 A 
HETATM   13  C   UNL     1      42.452  -8.352  12.691  1.00  0.00     0.001 A 
HETATM   14  C   UNL     1      41.282  -8.635  11.994  1.00  0.00     0.009 A 
HETATM   15  C   UNL     1      41.322  -9.206  10.710  1.00  0.00    -0.035 A 
HETATM   16  C   UNL     1      40.006  -9.357   9.997  1.00  0.00     0.050 C 
ENDBRANCH   6   9
ENDBRANCH   4   5
ENDBRANCH   1   4
BRANCH   1  17
HETATM   17  C   UNL     1      41.904 -12.751   6.128  1.00  0.00     0.276 C 
BRANCH  17  18
HETATM   18  C   UNL     1      42.362 -14.057   5.554  1.00  0.00     0.009 A 
HETATM   19  C   UNL     1      42.739 -14.222   4.228  1.00  0.00     0.134 A 
HETATM   20 CL   UNL     1      42.736 -12.934   3.088  1.00  0.00    -0.062 Cl
HETATM   21  N   UNL     1      43.151 -15.382   3.686  1.00  0.00    -0.235 NA
HETATM   22  C   UNL     1      43.257 -16.458   4.480  1.00  0.00     0.071 A 
HETATM   23  C   UNL     1      42.930 -16.409   5.848  1.00  0.00    -0.006 A 
HETATM   24  C   UNL     1      43.713 -17.658   3.953  1.00  0.00     0.069 A 
HETATM   25  C   UNL     1      42.476 -15.189   6.373  1.00  0.00     0.026 A 
HETATM   26  C   UNL     1      43.071 -17.556   6.646  1.00  0.00     0.016 A 
HETATM   27  C   UNL     1      43.539 -18.750   6.092  1.00  0.00     0.038 A 
HETATM   28  C   UNL     1      43.867 -18.804   4.741  1.00  0.00     0.070 A 
BRANCH  28  29
HETATM   29  O   UNL     1      44.339 -19.896   4.071  1.00  0.00    -0.356 OA
HETATM   30  C   UNL     1      43.758 -20.182   2.804  1.00  0.00     0.210 C 
ENDBRANCH  28  29
ENDBRANCH  17  18
ENDBRANCH   1  17
TORSDOF 6
ENDMDL
MODEL 10
REMARK VINA RESULT:      -7.5      4.538      7.856
REMARK  6 active torsions:
REMARK  status: ('A' for Active; 'I' for Inactive)
REMARK    1  A    between atoms: C_3  and  N_4 
REMARK       I    between atoms: N_4  and  C_5 
REMARK    2  A    between atoms: C_5  and  C_6 
REMARK    3  A    between atoms: C_6  and  N_7 
REMARK    4  A    between atoms: N_7  and  C_9 
REMARK    5  A    between atoms: C_9  and  C_10 
REMARK    6  A    between atoms: C_18  and  O_19 
ROOT
HETATM    1  N   UNL     1      43.494 -11.837   6.131  1.00  0.00    -0.063 N 
HETATM    2  H   UNL     1      43.970 -12.053   5.242  1.00  0.00     0.280 HD
HETATM    3  C   UNL     1      42.916 -10.463   5.985  1.00  0.00     0.270 C 
ENDROOT
BRANCH   1   4
HETATM    4  C   UNL     1      44.617 -11.879   7.175  1.00  0.00     0.337 C 
BRANCH   4   5
HETATM    5  C   UNL     1      44.597 -10.671   8.115  1.00  0.00     0.248 C 
HETATM    6  N   UNL     1      43.456 -10.577   8.893  1.00  0.00    -0.325 N 
HETATM    7  H   UNL     1      42.617 -11.013   8.527  1.00  0.00     0.169 HD
HETATM    8  O   UNL     1      45.528  -9.869   8.084  1.00  0.00    -0.271 OA
BRANCH   6   9
HETATM    9  C   UNL     1      43.218  -9.509   9.799  1.00  0.00     0.046 A 
HETATM   10  C   UNL     1      43.439  -9.749  11.177  1.00  0.00    -0.035 A 
HETATM   11  C   UNL     1      43.911 -11.076  11.711  1.00  0.00     0.050 C 
HETATM   12  C   UNL     1      43.190  -8.723  12.104  1.00  0.00     0.009 A 
HETATM   13  C   UNL     1      42.732  -7.481  11.684  1.00  0.00     0.001 A 
HETATM   14  C   UNL     1      42.552  -7.234  10.328  1.00  0.00     0.009 A 
HETATM   15  C   UNL     1      42.822  -8.225   9.367  1.00  0.00    -0.035 A 
HETATM   16  C   UNL     1      42.711  -7.814   7.924  1.00  0.00     0.050 C 
ENDBRANCH   6   9
ENDBRANCH   4   5
ENDBRANCH   1   4
BRANCH   1  17
HETATM   17  C   UNL     1      42.444 -12.940   6.224  1.00  0.00     0.276 C 
BRANCH  17  18
HETATM   18  C   UNL     1      42.810 -14.293   5.691  1.00  0.00     0.009 A 
HETATM   19  C   UNL     1      43.107 -15.381   6.501  1.00  0.00     0.134 A 
HETATM   20 CL   UNL     1      43.074 -15.305   8.219  1.00  0.00    -0.062 Cl
HETATM   21  N   UNL     1      43.441 -16.603   6.050  1.00  0.00    -0.235 NA
HETATM   22  C   UNL     1      43.447 -16.819   4.725  1.00  0.00     0.071 A 
HETATM   23  C   UNL     1      43.137 -15.800   3.804  1.00  0.00    -0.006 A 
HETATM   24  C   UNL     1      43.755 -18.080   4.236  1.00  0.00     0.069 A 
HETATM   25  C   UNL     1      42.822 -14.530   4.310  1.00  0.00     0.026 A 
HETATM   26  C   UNL     1      43.142 -16.074   2.427  1.00  0.00     0.016 A 
HETATM   27  C   UNL     1      43.447 -17.355   1.960  1.00  0.00     0.038 A 
HETATM   28  C   UNL     1      43.751 -18.366   2.866  1.00  0.00     0.070 A 
BRANCH  28  29
HETATM   29  O   UNL     1      44.062 -19.659   2.554  1.00  0.00    -0.356 OA
HETATM   30  C   UNL     1      43.090 -20.404   1.828  1.00  0.00     0.210 C 
ENDBRANCH  28  29
ENDBRANCH  17  18
ENDBRANCH   1  17
TORSDOF 6
ENDMDL
