MODEL 1
REMARK VINA RESULT:      -8.5      0.000      0.000
REMARK  7 active torsions:
REMARK  status: ('A' for Active; 'I' for Inactive)
REMARK    1  A    between atoms: C_8  and  C_9 
REMARK    2  A    between atoms: C_9  and  N_10 
REMARK    3  A    between atoms: C_9  and  C_14 
REMARK       I    between atoms: C_14  and  N_15 
REMARK    4  A    between atoms: N_15  and  C_16 
REMARK    5  A    between atoms: C_16  and  C_17 
REMARK    6  A    between atoms: C_17  and  C_18 
REMARK    7  A    between atoms: C_20  and  C_21 
ROOT
HETATM    1  C   UNL     1      40.292 -13.314   1.114  1.00  0.00     0.253 C 
HETATM    2  N   UNL     1      41.645 -13.248   1.348  1.00  0.00    -0.359 N 
HETATM    3  O   UNL     1      39.530 -14.075   1.713  1.00  0.00    -0.271 OA
HETATM    4  H   UNL     1      42.255 -12.798   0.670  1.00  0.00     0.162 HD
ENDROOT
BRANCH   1   5
HETATM    5  C   UNL     1      39.703 -12.310   0.097  1.00  0.00     0.311 C 
BRANCH   5   6
HETATM    6  C   UNL     1      40.247 -12.502  -1.276  1.00  0.00     0.031 A 
HETATM    7  C   UNL     1      41.051 -11.660  -2.035  1.00  0.00     0.035 A 
HETATM    8  C   UNL     1      41.647 -10.324  -1.785  1.00  0.00     0.070 C 
HETATM    9  N   UNL     1      41.235 -12.297  -3.236  1.00  0.00    -0.282 N 
HETATM   10  H   UNL     1      41.730 -11.967  -4.063  1.00  0.00     0.189 HD
HETATM   11  N   UNL     1      40.645 -13.495  -3.288  1.00  0.00    -0.179 NA
HETATM   12  C   UNL     1      40.033 -13.634  -2.114  1.00  0.00     0.061 A 
HETATM   13  C   UNL     1      39.253 -14.870  -1.839  1.00  0.00     0.073 C 
ENDBRANCH   5   6
BRANCH   5  14
HETATM   14  N   UNL     1      38.210 -12.428   0.095  1.00  0.00    -0.062 N 
HETATM   15  H   UNL     1      37.822 -11.723  -0.543  1.00  0.00     0.275 HD
HETATM   16  H   UNL     1      37.938 -13.336  -0.302  1.00  0.00     0.275 HD
HETATM   17  H   UNL     1      37.807 -12.303   1.028  1.00  0.00     0.275 HD
ENDBRANCH   5  14
ENDBRANCH   1   5
BRANCH   2  18
HETATM   18  C   UNL     1      42.308 -14.137   2.295  1.00  0.00     0.127 C 
BRANCH  18  19
HETATM   19  C   UNL     1      42.991 -15.334   1.622  1.00  0.00     0.058 C 
BRANCH  19  20
HETATM   20  C   UNL     1      43.271 -16.476   2.573  1.00  0.00    -0.056 A 
HETATM   21  C   UNL     1      43.236 -17.801   2.117  1.00  0.00     0.023 A 
HETATM   22  C   UNL     1      43.498 -18.876   2.985  1.00  0.00     0.048 A 
HETATM   23  C   UNL     1      43.805 -18.606   4.324  1.00  0.00     0.016 A 
HETATM   24  C   UNL     1      43.824 -17.292   4.792  1.00  0.00     0.001 A 
HETATM   25  C   UNL     1      43.555 -16.234   3.923  1.00  0.00     0.007 A 
BRANCH  22  26
HETATM   26  C   UNL     1      43.487 -20.292   2.465  1.00  0.00     0.417 C 
HETATM   27  F   UNL     1      43.596 -21.221   3.456  1.00  0.00    -0.166 F 
HETATM   28  F   UNL     1      42.314 -20.590   1.827  1.00  0.00    -0.166 F 
HETATM   29  F   UNL     1      44.479 -20.563   1.577  1.00  0.00    -0.166 F 
ENDBRANCH  22  26
ENDBRANCH  19  20
ENDBRANCH  18  19
ENDBRANCH   2  18
TORSDOF 7
ENDMDL
MODEL 2
REMARK VINA RESULT:      -8.2      0.617      1.776
REMARK  7 active torsions:
REMARK  status: ('A' for Active; 'I' for Inactive)
REMARK    1  A    between atoms: C_8  and  C_9 
REMARK    2  A    between atoms: C_9  and  N_10 
REMARK    3  A    between atoms: C_9  and  C_14 
REMARK       I    between atoms: C_14  and  N_15 
REMARK    4  A    between atoms: N_15  and  C_16 
REMARK    5  A    between atoms: C_16  and  C_17 
REMARK    6  A    between atoms: C_17  and  C_18 
REMARK    7  A    between atoms: C_20  and  C_21 
ROOT
HETATM    1  C   UNL     1      40.327 -13.773   1.127  1.00  0.00     0.253 C 
HETATM    2  N   UNL     1      41.522 -14.311   0.715  1.00  0.00    -0.359 N 
HETATM    3  O   UNL     1      39.644 -14.240   2.041  1.00  0.00    -0.271 OA
HETATM    4  H   UNL     1      41.913 -14.047  -0.186  1.00  0.00     0.162 HD
ENDROOT
BRANCH   1   5
HETATM    5  C   UNL     1      39.873 -12.462   0.446  1.00  0.00     0.311 C 
BRANCH   5   6
HETATM    6  C   UNL     1      40.198 -12.429  -1.006  1.00  0.00     0.031 A 
HETATM    7  C   UNL     1      39.843 -13.318  -2.013  1.00  0.00     0.035 A 
HETATM    8  C   UNL     1      39.047 -14.571  -2.031  1.00  0.00     0.070 C 
HETATM    9  N   UNL     1      40.427 -12.841  -3.159  1.00  0.00    -0.282 N 
HETATM   10  H   UNL     1      40.429 -13.253  -4.091  1.00  0.00     0.189 HD
HETATM   11  N   UNL     1      41.092 -11.698  -2.971  1.00  0.00    -0.179 NA
HETATM   12  C   UNL     1      40.973 -11.436  -1.671  1.00  0.00     0.061 A 
HETATM   13  C   UNL     1      41.622 -10.221  -1.109  1.00  0.00     0.073 C 
ENDBRANCH   5   6
BRANCH   5  14
HETATM   14  N   UNL     1      38.402 -12.277   0.663  1.00  0.00    -0.062 N 
HETATM   15  H   UNL     1      38.088 -11.458   0.130  1.00  0.00     0.275 HD
HETATM   16  H   UNL     1      37.893 -13.076   0.264  1.00  0.00     0.275 HD
HETATM   17  H   UNL     1      38.165 -12.152   1.651  1.00  0.00     0.275 HD
ENDBRANCH   5  14
ENDBRANCH   1   5
BRANCH   2  18
HETATM   18  C   UNL     1      42.057 -15.539   1.293  1.00  0.00     0.127 C 
BRANCH  18  19
HETATM   19  C   UNL     1      42.964 -15.290   2.506  1.00  0.00     0.058 C 
BRANCH  19  20
HETATM   20  C   UNL     1      43.353 -16.557   3.232  1.00  0.00    -0.056 A 
HETATM   21  C   UNL     1      43.278 -17.797   2.583  1.00  0.00     0.023 A 
HETATM   22  C   UNL     1      43.640 -18.986   3.240  1.00  0.00     0.048 A 
HETATM   23  C   UNL     1      44.090 -18.917   4.565  1.00  0.00     0.016 A 
HETATM   24  C   UNL     1      44.150 -17.691   5.226  1.00  0.00     0.001 A 
HETATM   25  C   UNL     1      43.781 -16.518   4.566  1.00  0.00     0.007 A 
BRANCH  22  26
HETATM   26  C   UNL     1      43.583 -20.305   2.511  1.00  0.00     0.417 C 
HETATM   27  F   UNL     1      43.707 -21.376   3.344  1.00  0.00    -0.166 F 
HETATM   28  F   UNL     1      42.384 -20.484   1.879  1.00  0.00    -0.166 F 
HETATM   29  F   UNL     1      44.539 -20.451   1.557  1.00  0.00    -0.166 F 
ENDBRANCH  22  26
ENDBRANCH  19  20
ENDBRANCH  18  19
ENDBRANCH   2  18
TORSDOF 7
ENDMDL
MODEL 3
REMARK VINA RESULT:      -8.2      3.777      5.383
REMARK  7 active torsions:
REMARK  status: ('A' for Active; 'I' for Inactive)
REMARK    1  A    between atoms: C_8  and  C_9 
REMARK    2  A    between atoms: C_9  and  N_10 
REMARK    3  A    between atoms: C_9  and  C_14 
REMARK       I    between atoms: C_14  and  N_15 
REMARK    4  A    between atoms: N_15  and  C_16 
REMARK    5  A    between atoms: C_16  and  C_17 
REMARK    6  A    between atoms: C_17  and  C_18 
REMARK    7  A    between atoms: C_20  and  C_21 
ROOT
HETATM    1  C   UNL     1      42.005 -14.511   6.431  1.00  0.00     0.253 C 
HETATM    2  N   UNL     1      43.143 -15.054   6.976  1.00  0.00    -0.359 N 
HETATM    3  O   UNL     1      41.048 -15.180   6.035  1.00  0.00    -0.271 OA
HETATM    4  H   UNL     1      43.987 -14.492   7.052  1.00  0.00     0.162 HD
ENDROOT
BRANCH   1   5
HETATM    5  C   UNL     1      41.906 -12.969   6.397  1.00  0.00     0.311 C 
BRANCH   5   6
HETATM    6  C   UNL     1      42.717 -12.368   5.303  1.00  0.00     0.031 A 
HETATM    7  C   UNL     1      42.525 -12.418   3.927  1.00  0.00     0.035 A 
HETATM    8  C   UNL     1      41.494 -13.051   3.067  1.00  0.00     0.070 C 
HETATM    9  N   UNL     1      43.574 -11.730   3.375  1.00  0.00    -0.282 N 
HETATM   10  H   UNL     1      43.798 -11.593   2.390  1.00  0.00     0.189 HD
HETATM   11  N   UNL     1      44.399 -11.211   4.289  1.00  0.00    -0.179 NA
HETATM   12  C   UNL     1      43.903 -11.594   5.463  1.00  0.00     0.061 A 
HETATM   13  C   UNL     1      44.600 -11.196   6.716  1.00  0.00     0.073 C 
ENDBRANCH   5   6
BRANCH   5  14
HETATM   14  N   UNL     1      40.468 -12.569   6.270  1.00  0.00    -0.062 N 
HETATM   15  H   UNL     1      40.393 -11.818   5.574  1.00  0.00     0.275 HD
HETATM   16  H   UNL     1      39.926 -13.353   5.887  1.00  0.00     0.275 HD
HETATM   17  H   UNL     1      40.071 -12.252   7.159  1.00  0.00     0.275 HD
ENDBRANCH   5  14
ENDBRANCH   1   5
BRANCH   2  18
HETATM   18  C   UNL     1      43.341 -16.496   7.071  1.00  0.00     0.127 C 
BRANCH  18  19
HETATM   19  C   UNL     1      44.451 -17.015   6.148  1.00  0.00     0.058 C 
BRANCH  19  20
HETATM   20  C   UNL     1      43.980 -17.281   4.736  1.00  0.00    -0.056 A 
HETATM   21  C   UNL     1      43.963 -18.588   4.231  1.00  0.00     0.023 A 
HETATM   22  C   UNL     1      43.524 -18.856   2.922  1.00  0.00     0.048 A 
HETATM   23  C   UNL     1      43.092 -17.792   2.121  1.00  0.00     0.016 A 
HETATM   24  C   UNL     1      43.124 -16.486   2.608  1.00  0.00     0.001 A 
HETATM   25  C   UNL     1      43.568 -16.231   3.906  1.00  0.00     0.007 A 
BRANCH  22  26
HETATM   26  C   UNL     1      43.483 -20.275   2.410  1.00  0.00     0.417 C 
HETATM   27  F   UNL     1      43.693 -21.198   3.390  1.00  0.00    -0.166 F 
HETATM   28  F   UNL     1      42.261 -20.589   1.883  1.00  0.00    -0.166 F 
HETATM   29  F   UNL     1      44.393 -20.538   1.436  1.00  0.00    -0.166 F 
ENDBRANCH  22  26
ENDBRANCH  19  20
ENDBRANCH  18  19
ENDBRANCH   2  18
TORSDOF 7
ENDMDL
MODEL 4
REMARK VINA RESULT:      -8.1      3.286      4.801
REMARK  7 active torsions:
REMARK  status: ('A' for Active; 'I' for Inactive)
REMARK    1  A    between atoms: C_8  and  C_9 
REMARK    2  A    between atoms: C_9  and  N_10 
REMARK    3  A    between atoms: C_9  and  C_14 
REMARK       I    between atoms: C_14  and  N_15 
REMARK    4  A    between atoms: N_15  and  C_16 
REMARK    5  A    between atoms: C_16  and  C_17 
REMARK    6  A    between atoms: C_17  and  C_18 
REMARK    7  A    between atoms: C_20  and  C_21 
ROOT
HETATM    1  C   UNL     1      41.318 -14.738   6.235  1.00  0.00     0.253 C 
HETATM    2  N   UNL     1      42.643 -14.976   6.508  1.00  0.00    -0.359 N 
HETATM    3  O   UNL     1      40.426 -15.576   6.389  1.00  0.00    -0.271 OA
HETATM    4  H   UNL     1      43.357 -14.354   6.135  1.00  0.00     0.162 HD
ENDROOT
BRANCH   1   5
HETATM    5  C   UNL     1      40.935 -13.308   5.789  1.00  0.00     0.311 C 
BRANCH   5   6
HETATM    6  C   UNL     1      41.515 -12.947   4.466  1.00  0.00     0.031 A 
HETATM    7  C   UNL     1      41.145 -13.364   3.194  1.00  0.00     0.035 A 
HETATM    8  C   UNL     1      40.088 -14.276   2.689  1.00  0.00     0.070 C 
HETATM    9  N   UNL     1      42.023 -12.761   2.330  1.00  0.00    -0.282 N 
HETATM   10  H   UNL     1      42.094 -12.865   1.319  1.00  0.00     0.189 HD
HETATM   11  N   UNL     1      42.899 -11.962   2.946  1.00  0.00    -0.179 NA
HETATM   12  C   UNL     1      42.614 -12.068   4.243  1.00  0.00     0.061 A 
HETATM   13  C   UNL     1      43.423 -11.308   5.233  1.00  0.00     0.073 C 
ENDBRANCH   5   6
BRANCH   5  14
HETATM   14  N   UNL     1      39.443 -13.182   5.764  1.00  0.00    -0.062 N 
HETATM   15  H   UNL     1      39.067 -13.823   5.056  1.00  0.00     0.275 HD
HETATM   16  H   UNL     1      39.056 -13.504   6.660  1.00  0.00     0.275 HD
HETATM   17  H   UNL     1      39.135 -12.228   5.558  1.00  0.00     0.275 HD
ENDBRANCH   5  14
ENDBRANCH   1   5
BRANCH   2  18
HETATM   18  C   UNL     1      43.119 -16.282   6.948  1.00  0.00     0.127 C 
BRANCH  18  19
HETATM   19  C   UNL     1      44.277 -16.821   6.096  1.00  0.00     0.058 C 
BRANCH  19  20
HETATM   20  C   UNL     1      43.872 -17.157   4.679  1.00  0.00    -0.056 A 
HETATM   21  C   UNL     1      43.866 -18.489   4.242  1.00  0.00     0.023 A 
HETATM   22  C   UNL     1      43.488 -18.822   2.929  1.00  0.00     0.048 A 
HETATM   23  C   UNL     1      43.106 -17.798   2.054  1.00  0.00     0.016 A 
HETATM   24  C   UNL     1      43.126 -16.468   2.473  1.00  0.00     0.001 A 
HETATM   25  C   UNL     1      43.510 -16.148   3.777  1.00  0.00     0.007 A 
BRANCH  22  26
HETATM   26  C   UNL     1      43.458 -20.264   2.490  1.00  0.00     0.417 C 
HETATM   27  F   UNL     1      42.305 -20.597   1.844  1.00  0.00    -0.166 F 
HETATM   28  F   UNL     1      44.457 -20.546   1.600  1.00  0.00    -0.166 F 
HETATM   29  F   UNL     1      43.596 -21.155   3.507  1.00  0.00    -0.166 F 
ENDBRANCH  22  26
ENDBRANCH  19  20
ENDBRANCH  18  19
ENDBRANCH   2  18
TORSDOF 7
ENDMDL
MODEL 5
REMARK VINA RESULT:      -8.1      1.399      2.019
REMARK  7 active torsions:
REMARK  status: ('A' for Active; 'I' for Inactive)
REMARK    1  A    between atoms: C_8  and  C_9 
REMARK    2  A    between atoms: C_9  and  N_10 
REMARK    3  A    between atoms: C_9  and  C_14 
REMARK       I    between atoms: C_14  and  N_15 
REMARK    4  A    between atoms: N_15  and  C_16 
REMARK    5  A    between atoms: C_16  and  C_17 
REMARK    6  A    between atoms: C_17  and  C_18 
REMARK    7  A    between atoms: C_20  and  C_21 
ROOT
HETATM    1  C   UNL     1      40.859 -13.214   0.174  1.00  0.00     0.253 C 
HETATM    2  N   UNL     1      41.166 -14.552   0.239  1.00  0.00    -0.359 N 
HETATM    3  O   UNL     1      40.810 -12.474   1.158  1.00  0.00    -0.271 OA
HETATM    4  H   UNL     1      40.952 -15.160  -0.548  1.00  0.00     0.162 HD
ENDROOT
BRANCH   1   5
HETATM    5  C   UNL     1      40.648 -12.607  -1.232  1.00  0.00     0.311 C 
BRANCH   5   6
HETATM    6  C   UNL     1      39.211 -12.535  -1.614  1.00  0.00     0.031 A 
HETATM    7  C   UNL     1      38.277 -11.537  -1.362  1.00  0.00     0.035 A 
HETATM    8  C   UNL     1      38.347 -10.232  -0.657  1.00  0.00     0.070 C 
HETATM    9  N   UNL     1      37.097 -11.982  -1.901  1.00  0.00    -0.282 N 
HETATM   10  H   UNL     1      36.178 -11.542  -1.872  1.00  0.00     0.189 HD
HETATM   11  N   UNL     1      37.212 -13.165  -2.511  1.00  0.00    -0.179 NA
HETATM   12  C   UNL     1      38.484 -13.521  -2.341  1.00  0.00     0.061 A 
HETATM   13  C   UNL     1      38.958 -14.819  -2.891  1.00  0.00     0.073 C 
ENDBRANCH   5   6
BRANCH   5  14
HETATM   14  N   UNL     1      41.278 -11.249  -1.284  1.00  0.00    -0.062 N 
HETATM   15  H   UNL     1      41.211 -10.817  -0.355  1.00  0.00     0.275 HD
HETATM   16  H   UNL     1      42.284 -11.344  -1.471  1.00  0.00     0.275 HD
HETATM   17  H   UNL     1      40.835 -10.639  -1.976  1.00  0.00     0.275 HD
ENDBRANCH   5  14
ENDBRANCH   1   5
BRANCH   2  18
HETATM   18  C   UNL     1      41.398 -15.230   1.509  1.00  0.00     0.127 C 
BRANCH  18  19
HETATM   19  C   UNL     1      42.878 -15.266   1.912  1.00  0.00     0.058 C 
BRANCH  19  20
HETATM   20  C   UNL     1      43.236 -16.458   2.771  1.00  0.00    -0.056 A 
HETATM   21  C   UNL     1      43.175 -17.754   2.242  1.00  0.00     0.023 A 
HETATM   22  C   UNL     1      43.508 -18.875   3.023  1.00  0.00     0.048 A 
HETATM   23  C   UNL     1      43.914 -18.680   4.349  1.00  0.00     0.016 A 
HETATM   24  C   UNL     1      43.960 -17.396   4.891  1.00  0.00     0.001 A 
HETATM   25  C   UNL     1      43.620 -16.291   4.108  1.00  0.00     0.007 A 
BRANCH  22  26
HETATM   26  C   UNL     1      43.467 -20.259   2.423  1.00  0.00     0.417 C 
HETATM   27  F   UNL     1      42.294 -20.524   1.784  1.00  0.00    -0.166 F 
HETATM   28  F   UNL     1      44.436 -20.429   1.473  1.00  0.00    -0.166 F 
HETATM   29  F   UNL     1      43.644 -21.258   3.326  1.00  0.00    -0.166 F 
ENDBRANCH  22  26
ENDBRANCH  19  20
ENDBRANCH  18  19
ENDBRANCH   2  18
TORSDOF 7
ENDMDL
MODEL 6
REMARK VINA RESULT:      -8.1      2.249      2.791
REMARK  7 active torsions:
REMARK  status: ('A' for Active; 'I' for Inactive)
REMARK    1  A    between atoms: C_8  and  C_9 
REMARK    2  A    between atoms: C_9  and  N_10 
REMARK    3  A    between atoms: C_9  and  C_14 
REMARK       I    between atoms: C_14  and  N_15 
REMARK    4  A    between atoms: N_15  and  C_16 
REMARK    5  A    between atoms: C_16  and  C_17 
REMARK    6  A    between atoms: C_17  and  C_18 
REMARK    7  A    between atoms: C_20  and  C_21 
ROOT
HETATM    1  C   UNL     1      40.391 -13.277   1.120  1.00  0.00     0.253 C 
HETATM    2  N   UNL     1      41.739 -13.504   0.989  1.00  0.00    -0.359 N 
HETATM    3  O   UNL     1      39.710 -13.712   2.051  1.00  0.00    -0.271 OA
HETATM    4  H   UNL     1      42.196 -13.343   0.094  1.00  0.00     0.162 HD
ENDROOT
BRANCH   1   5
HETATM    5  C   UNL     1      39.726 -12.355   0.072  1.00  0.00     0.311 C 
BRANCH   5   6
HETATM    6  C   UNL     1      40.272 -12.558  -1.298  1.00  0.00     0.031 A 
HETATM    7  C   UNL     1      41.076 -11.723  -2.064  1.00  0.00     0.035 A 
HETATM    8  C   UNL     1      41.671 -10.384  -1.825  1.00  0.00     0.070 C 
HETATM    9  N   UNL     1      41.262 -12.371  -3.258  1.00  0.00    -0.282 N 
HETATM   10  H   UNL     1      41.758 -12.048  -4.087  1.00  0.00     0.189 HD
HETATM   11  N   UNL     1      40.674 -13.570  -3.300  1.00  0.00    -0.179 NA
HETATM   12  C   UNL     1      40.061 -13.698  -2.126  1.00  0.00     0.061 A 
HETATM   13  C   UNL     1      39.281 -14.933  -1.840  1.00  0.00     0.073 C 
ENDBRANCH   5   6
BRANCH   5  14
HETATM   14  N   UNL     1      38.244 -12.575   0.089  1.00  0.00    -0.062 N 
HETATM   15  H   UNL     1      37.804 -11.826   0.636  1.00  0.00     0.275 HD
HETATM   16  H   UNL     1      37.872 -12.475  -0.863  1.00  0.00     0.275 HD
HETATM   17  H   UNL     1      37.989 -13.484   0.486  1.00  0.00     0.275 HD
ENDBRANCH   5  14
ENDBRANCH   1   5
BRANCH   2  18
HETATM   18  C   UNL     1      42.475 -14.348   1.924  1.00  0.00     0.127 C 
BRANCH  18  19
HETATM   19  C   UNL     1      42.425 -15.837   1.560  1.00  0.00     0.058 C 
BRANCH  19  20
HETATM   20  C   UNL     1      43.047 -16.731   2.610  1.00  0.00    -0.056 A 
HETATM   21  C   UNL     1      43.363 -16.221   3.876  1.00  0.00     0.023 A 
HETATM   22  C   UNL     1      43.937 -17.037   4.867  1.00  0.00     0.048 A 
HETATM   23  C   UNL     1      44.188 -18.383   4.574  1.00  0.00     0.016 A 
HETATM   24  C   UNL     1      43.896 -18.895   3.310  1.00  0.00     0.001 A 
HETATM   25  C   UNL     1      43.332 -18.074   2.333  1.00  0.00     0.007 A 
BRANCH  22  26
HETATM   26  C   UNL     1      44.237 -16.475   6.234  1.00  0.00     0.417 C 
HETATM   27  F   UNL     1      45.572 -16.316   6.460  1.00  0.00    -0.166 F 
HETATM   28  F   UNL     1      43.699 -15.229   6.401  1.00  0.00    -0.166 F 
HETATM   29  F   UNL     1      43.764 -17.231   7.259  1.00  0.00    -0.166 F 
ENDBRANCH  22  26
ENDBRANCH  19  20
ENDBRANCH  18  19
ENDBRANCH   2  18
TORSDOF 7
ENDMDL
MODEL 7
REMARK VINA RESULT:      -8.0      2.004      3.163
REMARK  7 active torsions:
REMARK  status: ('A' for Active; 'I' for Inactive)
REMARK    1  A    between atoms: C_8  and  C_9 
REMARK    2  A    between atoms: C_9  and  N_10 
REMARK    3  A    between atoms: C_9  and  C_14 
REMARK       I    between atoms: C_14  and  N_15 
REMARK    4  A    between atoms: N_15  and  C_16 
REMARK    5  A    between atoms: C_16  and  C_17 
REMARK    6  A    between atoms: C_17  and  C_18 
REMARK    7  A    between atoms: C_20  and  C_21 
ROOT
HETATM    1  C   UNL     1      41.615 -13.127   3.005  1.00  0.00     0.253 C 
HETATM    2  N   UNL     1      41.706 -13.733   4.234  1.00  0.00    -0.359 N 
HETATM    3  O   UNL     1      42.582 -12.924   2.268  1.00  0.00    -0.271 OA
HETATM    4  H   UNL     1      40.939 -13.652   4.898  1.00  0.00     0.162 HD
ENDROOT
BRANCH   1   5
HETATM    5  C   UNL     1      40.199 -12.761   2.503  1.00  0.00     0.311 C 
BRANCH   5   6
HETATM    6  C   UNL     1      39.885 -13.372   1.181  1.00  0.00     0.031 A 
HETATM    7  C   UNL     1      39.864 -14.710   0.807  1.00  0.00     0.035 A 
HETATM    8  C   UNL     1      40.127 -15.975   1.537  1.00  0.00     0.070 C 
HETATM    9  N   UNL     1      39.548 -14.722  -0.528  1.00  0.00    -0.282 N 
HETATM   10  H   UNL     1      39.485 -15.518  -1.160  1.00  0.00     0.189 HD
HETATM   11  N   UNL     1      39.327 -13.501  -1.025  1.00  0.00    -0.179 NA
HETATM   12  C   UNL     1      39.536 -12.668  -0.007  1.00  0.00     0.061 A 
HETATM   13  C   UNL     1      39.390 -11.203  -0.221  1.00  0.00     0.073 C 
ENDBRANCH   5   6
BRANCH   5  14
HETATM   14  N   UNL     1      39.189 -13.175   3.529  1.00  0.00    -0.062 N 
HETATM   15  H   UNL     1      38.752 -14.054   3.229  1.00  0.00     0.275 HD
HETATM   16  H   UNL     1      39.667 -13.393   4.412  1.00  0.00     0.275 HD
HETATM   17  H   UNL     1      38.465 -12.465   3.673  1.00  0.00     0.275 HD
ENDBRANCH   5  14
ENDBRANCH   1   5
BRANCH   2  18
HETATM   18  C   UNL     1      42.987 -14.134   4.805  1.00  0.00     0.127 C 
BRANCH  18  19
HETATM   19  C   UNL     1      42.933 -15.493   5.516  1.00  0.00     0.058 C 
BRANCH  19  20
HETATM   20  C   UNL     1      43.239 -16.658   4.602  1.00  0.00    -0.056 A 
HETATM   21  C   UNL     1      43.502 -17.926   5.138  1.00  0.00     0.023 A 
HETATM   22  C   UNL     1      43.784 -19.024   4.305  1.00  0.00     0.048 A 
HETATM   23  C   UNL     1      43.792 -18.836   2.918  1.00  0.00     0.016 A 
HETATM   24  C   UNL     1      43.549 -17.574   2.375  1.00  0.00     0.001 A 
HETATM   25  C   UNL     1      43.278 -16.491   3.212  1.00  0.00     0.007 A 
BRANCH  22  26
HETATM   26  C   UNL     1      44.032 -20.387   4.902  1.00  0.00     0.417 C 
HETATM   27  F   UNL     1      43.417 -20.557   6.106  1.00  0.00    -0.166 F 
HETATM   28  F   UNL     1      43.540 -21.386   4.108  1.00  0.00    -0.166 F 
HETATM   29  F   UNL     1      45.345 -20.673   5.100  1.00  0.00    -0.166 F 
ENDBRANCH  22  26
ENDBRANCH  19  20
ENDBRANCH  18  19
ENDBRANCH   2  18
TORSDOF 7
ENDMDL
MODEL 8
REMARK VINA RESULT:      -8.0      3.262      4.569
REMARK  7 active torsions:
REMARK  status: ('A' for Active; 'I' for Inactive)
REMARK    1  A    between atoms: C_8  and  C_9 
REMARK    2  A    between atoms: C_9  and  N_10 
REMARK    3  A    between atoms: C_9  and  C_14 
REMARK       I    between atoms: C_14  and  N_15 
REMARK    4  A    between atoms: N_15  and  C_16 
REMARK    5  A    between atoms: C_16  and  C_17 
REMARK    6  A    between atoms: C_17  and  C_18 
REMARK    7  A    between atoms: C_20  and  C_21 
ROOT
HETATM    1  C   UNL     1      41.315 -14.814   6.119  1.00  0.00     0.253 C 
HETATM    2  N   UNL     1      42.577 -15.043   6.612  1.00  0.00    -0.359 N 
HETATM    3  O   UNL     1      40.457 -15.691   5.999  1.00  0.00    -0.271 OA
HETATM    4  H   UNL     1      43.313 -14.357   6.459  1.00  0.00     0.162 HD
ENDROOT
BRANCH   1   5
HETATM    5  C   UNL     1      40.945 -13.352   5.779  1.00  0.00     0.311 C 
BRANCH   5   6
HETATM    6  C   UNL     1      41.593 -12.874   4.527  1.00  0.00     0.031 A 
HETATM    7  C   UNL     1      42.649 -11.987   4.359  1.00  0.00     0.035 A 
HETATM    8  C   UNL     1      43.493 -11.218   5.308  1.00  0.00     0.070 C 
HETATM    9  N   UNL     1      42.829 -11.868   3.004  1.00  0.00    -0.282 N 
HETATM   10  H   UNL     1      43.481 -11.270   2.499  1.00  0.00     0.189 HD
HETATM   11  N   UNL     1      41.998 -12.639   2.296  1.00  0.00    -0.179 NA
HETATM   12  C   UNL     1      41.235 -13.250   3.200  1.00  0.00     0.061 A 
HETATM   13  C   UNL     1      40.172 -14.186   2.745  1.00  0.00     0.073 C 
ENDBRANCH   5   6
BRANCH   5  14
HETATM   14  N   UNL     1      39.455 -13.229   5.684  1.00  0.00    -0.062 N 
HETATM   15  H   UNL     1      39.131 -12.564   6.396  1.00  0.00     0.275 HD
HETATM   16  H   UNL     1      39.203 -12.808   4.781  1.00  0.00     0.275 HD
HETATM   17  H   UNL     1      38.980 -14.126   5.813  1.00  0.00     0.275 HD
ENDBRANCH   5  14
ENDBRANCH   1   5
BRANCH   2  18
HETATM   18  C   UNL     1      43.032 -16.379   6.978  1.00  0.00     0.127 C 
BRANCH  18  19
HETATM   19  C   UNL     1      44.218 -16.865   6.134  1.00  0.00     0.058 C 
BRANCH  19  20
HETATM   20  C   UNL     1      43.845 -17.176   4.702  1.00  0.00    -0.056 A 
HETATM   21  C   UNL     1      43.831 -18.502   4.248  1.00  0.00     0.023 A 
HETATM   22  C   UNL     1      43.482 -18.812   2.921  1.00  0.00     0.048 A 
HETATM   23  C   UNL     1      43.140 -17.771   2.050  1.00  0.00     0.016 A 
HETATM   24  C   UNL     1      43.170 -16.447   2.487  1.00  0.00     0.001 A 
HETATM   25  C   UNL     1      43.524 -16.150   3.804  1.00  0.00     0.007 A 
BRANCH  22  26
HETATM   26  C   UNL     1      43.441 -20.248   2.462  1.00  0.00     0.417 C 
HETATM   27  F   UNL     1      42.289 -20.562   1.806  1.00  0.00    -0.166 F 
HETATM   28  F   UNL     1      44.442 -20.527   1.573  1.00  0.00    -0.166 F 
HETATM   29  F   UNL     1      43.566 -21.154   3.468  1.00  0.00    -0.166 F 
ENDBRANCH  22  26
ENDBRANCH  19  20
ENDBRANCH  18  19
ENDBRANCH   2  18
TORSDOF 7
ENDMDL
MODEL 9
REMARK VINA RESULT:      -7.9      4.047      5.678
REMARK  7 active torsions:
REMARK  status: ('A' for Active; 'I' for Inactive)
REMARK    1  A    between atoms: C_8  and  C_9 
REMARK    2  A    between atoms: C_9  and  N_10 
REMARK    3  A    between atoms: C_9  and  C_14 
REMARK       I    between atoms: C_14  and  N_15 
REMARK    4  A    between atoms: N_15  and  C_16 
REMARK    5  A    between atoms: C_16  and  C_17 
REMARK    6  A    between atoms: C_17  and  C_18 
REMARK    7  A    between atoms: C_20  and  C_21 
ROOT
HETATM    1  C   UNL     1      41.644 -13.343   5.661  1.00  0.00     0.253 C 
HETATM    2  N   UNL     1      41.263 -13.589   4.364  1.00  0.00    -0.359 N 
HETATM    3  O   UNL     1      41.852 -14.227   6.494  1.00  0.00    -0.271 OA
HETATM    4  H   UNL     1      40.868 -12.840   3.801  1.00  0.00     0.162 HD
ENDROOT
BRANCH   1   5
HETATM    5  C   UNL     1      41.900 -11.869   6.052  1.00  0.00     0.311 C 
BRANCH   5   6
HETATM    6  C   UNL     1      43.349 -11.531   6.093  1.00  0.00     0.031 A 
HETATM    7  C   UNL     1      44.145 -11.176   7.175  1.00  0.00     0.035 A 
HETATM    8  C   UNL     1      43.876 -11.010   8.626  1.00  0.00     0.070 C 
HETATM    9  N   UNL     1      45.394 -10.936   6.661  1.00  0.00    -0.282 N 
HETATM   10  H   UNL     1      46.229 -10.610   7.144  1.00  0.00     0.189 HD
HETATM   11  N   UNL     1      45.467 -11.148   5.344  1.00  0.00    -0.179 NA
HETATM   12  C   UNL     1      44.236 -11.500   4.979  1.00  0.00     0.061 A 
HETATM   13  C   UNL     1      43.955 -11.797   3.549  1.00  0.00     0.073 C 
ENDBRANCH   5   6
BRANCH   5  14
HETATM   14  N   UNL     1      41.174 -10.972   5.097  1.00  0.00    -0.062 N 
HETATM   15  H   UNL     1      41.863 -10.448   4.545  1.00  0.00     0.275 HD
HETATM   16  H   UNL     1      40.654 -11.542   4.418  1.00  0.00     0.275 HD
HETATM   17  H   UNL     1      40.549 -10.316   5.575  1.00  0.00     0.275 HD
ENDBRANCH   5  14
ENDBRANCH   1   5
BRANCH   2  18
HETATM   18  C   UNL     1      41.006 -14.940   3.879  1.00  0.00     0.127 C 
BRANCH  18  19
HETATM   19  C   UNL     1      42.059 -15.432   2.877  1.00  0.00     0.058 C 
BRANCH  19  20
HETATM   20  C   UNL     1      42.883 -16.590   3.393  1.00  0.00    -0.056 A 
HETATM   21  C   UNL     1      42.848 -17.830   2.740  1.00  0.00     0.023 A 
HETATM   22  C   UNL     1      43.611 -18.917   3.202  1.00  0.00     0.048 A 
HETATM   23  C   UNL     1      44.420 -18.745   4.332  1.00  0.00     0.016 A 
HETATM   24  C   UNL     1      44.446 -17.521   5.001  1.00  0.00     0.001 A 
HETATM   25  C   UNL     1      43.680 -16.451   4.537  1.00  0.00     0.007 A 
BRANCH  22  26
HETATM   26  C   UNL     1      43.584 -20.232   2.464  1.00  0.00     0.417 C 
HETATM   27  F   UNL     1      43.823 -21.300   3.276  1.00  0.00    -0.166 F 
HETATM   28  F   UNL     1      42.359 -20.477   1.907  1.00  0.00    -0.166 F 
HETATM   29  F   UNL     1      44.484 -20.315   1.450  1.00  0.00    -0.166 F 
ENDBRANCH  22  26
ENDBRANCH  19  20
ENDBRANCH  18  19
ENDBRANCH   2  18
TORSDOF 7
ENDMDL
MODEL 10
REMARK VINA RESULT:      -7.8      3.703      5.519
REMARK  7 active torsions:
REMARK  status: ('A' for Active; 'I' for Inactive)
REMARK    1  A    between atoms: C_8  and  C_9 
REMARK    2  A    between atoms: C_9  and  N_10 
REMARK    3  A    between atoms: C_9  and  C_14 
REMARK       I    between atoms: C_14  and  N_15 
REMARK    4  A    between atoms: N_15  and  C_16 
REMARK    5  A    between atoms: C_16  and  C_17 
REMARK    6  A    between atoms: C_17  and  C_18 
REMARK    7  A    between atoms: C_20  and  C_21 
ROOT
HETATM    1  C   UNL     1      42.483 -13.078   2.768  1.00  0.00     0.253 C 
HETATM    2  N   UNL     1      41.479 -13.845   2.229  1.00  0.00    -0.359 N 
HETATM    3  O   UNL     1      43.683 -13.301   2.595  1.00  0.00    -0.271 OA
HETATM    4  H   UNL     1      40.534 -13.774   2.598  1.00  0.00     0.162 HD
ENDROOT
BRANCH   1   5
HETATM    5  C   UNL     1      42.061 -11.823   3.566  1.00  0.00     0.311 C 
BRANCH   5   6
HETATM    6  C   UNL     1      41.191 -12.150   4.729  1.00  0.00     0.031 A 
HETATM    7  C   UNL     1      41.475 -12.899   5.864  1.00  0.00     0.035 A 
HETATM    8  C   UNL     1      42.687 -13.618   6.331  1.00  0.00     0.070 C 
HETATM    9  N   UNL     1      40.319 -12.918   6.602  1.00  0.00    -0.282 N 
HETATM   10  H   UNL     1      40.130 -13.407   7.475  1.00  0.00     0.189 HD
HETATM   11  N   UNL     1      39.332 -12.208   6.047  1.00  0.00    -0.179 NA
HETATM   12  C   UNL     1      39.837 -11.742   4.907  1.00  0.00     0.061 A 
HETATM   13  C   UNL     1      38.984 -10.910   4.016  1.00  0.00     0.073 C 
ENDBRANCH   5   6
BRANCH   5  14
HETATM   14  N   UNL     1      43.286 -11.086   4.012  1.00  0.00    -0.062 N 
HETATM   15  H   UNL     1      44.031 -11.231   3.321  1.00  0.00     0.275 HD
HETATM   16  H   UNL     1      43.100 -10.075   4.008  1.00  0.00     0.275 HD
HETATM   17  H   UNL     1      43.612 -11.391   4.934  1.00  0.00     0.275 HD
ENDBRANCH   5  14
ENDBRANCH   1   5
BRANCH   2  18
HETATM   18  C   UNL     1      41.758 -15.045   1.448  1.00  0.00     0.127 C 
BRANCH  18  19
HETATM   19  C   UNL     1      41.216 -16.326   2.096  1.00  0.00     0.058 C 
BRANCH  19  20
HETATM   20  C   UNL     1      42.246 -17.062   2.921  1.00  0.00    -0.056 A 
HETATM   21  C   UNL     1      42.317 -16.862   4.307  1.00  0.00     0.023 A 
HETATM   22  C   UNL     1      43.266 -17.541   5.092  1.00  0.00     0.048 A 
HETATM   23  C   UNL     1      44.145 -18.435   4.470  1.00  0.00     0.016 A 
HETATM   24  C   UNL     1      44.095 -18.627   3.089  1.00  0.00     0.001 A 
HETATM   25  C   UNL     1      43.154 -17.943   2.319  1.00  0.00     0.007 A 
BRANCH  22  26
HETATM   26  C   UNL     1      43.302 -17.336   6.586  1.00  0.00     0.417 C 
HETATM   27  F   UNL     1      42.188 -16.713   7.062  1.00  0.00    -0.166 F 
HETATM   28  F   UNL     1      43.360 -18.524   7.261  1.00  0.00    -0.166 F 
HETATM   29  F   UNL     1      44.362 -16.604   7.018  1.00  0.00    -0.166 F 
ENDBRANCH  22  26
ENDBRANCH  19  20
ENDBRANCH  18  19
ENDBRANCH   2  18
TORSDOF 7
ENDMDL
