MODEL 1
REMARK VINA RESULT:      -7.6      0.000      0.000
REMARK  5 active torsions:
REMARK  status: ('A' for Active; 'I' for Inactive)
REMARK    1  A    between atoms: C_2  and  C_3 
REMARK    2  A    between atoms: C_7  and  N_8 
REMARK       I    between atoms: N_8  and  C_9 
REMARK    3  A    between atoms: C_9  and  C_10 
REMARK    4  A    between atoms: C_10  and  N_11 
REMARK    5  A    between atoms: N_11  and  C_14 
ROOT
HETATM    1  C   UNL     1      43.722 -16.283   5.310  1.00  0.00     0.043 C 
HETATM    2  N   UNL     1      43.949 -17.608   5.442  1.00  0.00    -0.252 NA
HETATM    3  C   UNL     1      43.727 -18.432   4.415  1.00  0.00     0.069 A 
HETATM    4  C   UNL     1      43.192 -18.000   3.186  1.00  0.00     0.020 A 
HETATM    5  C   UNL     1      42.815 -16.625   3.104  1.00  0.00     0.055 C 
HETATM    6  C   UNL     1      43.173 -15.731   4.147  1.00  0.00    -0.010 C 
HETATM    7  C   UNL     1      42.916 -14.249   4.039  1.00  0.00     0.052 C 
HETATM    8  C   UNL     1      44.076 -19.765   4.590  1.00  0.00     0.032 A 
HETATM    9  C   UNL     1      43.963 -20.700   3.564  1.00  0.00     0.002 A 
HETATM   10  C   UNL     1      43.511 -20.289   2.323  1.00  0.00     0.001 A 
HETATM   11  C   UNL     1      43.145 -18.955   2.134  1.00  0.00     0.016 A 
ENDROOT
BRANCH   5  12
HETATM   12  N   UNL     1      42.077 -16.072   2.007  1.00  0.00    -0.324 N 
HETATM   13  C   UNL     1      40.714 -15.822   1.988  1.00  0.00     0.248 C 
HETATM   14  O   UNL     1      39.890 -16.094   2.856  1.00  0.00    -0.271 OA
HETATM   15  H   UNL     1      42.632 -15.537   1.351  1.00  0.00     0.169 HD
BRANCH  13  16
HETATM   16  C   UNL     1      40.240 -15.103   0.720  1.00  0.00     0.335 C 
BRANCH  16  17
HETATM   17  N   UNL     1      41.273 -14.149   0.158  1.00  0.00    -0.063 N 
HETATM   18  H   UNL     1      42.167 -14.274   0.647  1.00  0.00     0.278 HD
HETATM   19  H   UNL     1      41.424 -14.450  -0.817  1.00  0.00     0.278 HD
BRANCH  17  20
HETATM   20  C   UNL     1      40.928 -12.681   0.088  1.00  0.00     0.178 C 
HETATM   21  C   UNL     1      39.442 -12.493  -0.185  1.00  0.00     0.039 C 
HETATM   22  C   UNL     1      41.320 -12.064   1.428  1.00  0.00     0.039 C 
ENDBRANCH  17  20
ENDBRANCH  16  17
ENDBRANCH  13  16
ENDBRANCH   5  12
BRANCH   1  23
HETATM   23  C   UNL     1      44.078 -15.481   6.540  1.00  0.00     0.055 C 
HETATM   24  C   UNL     1      43.039 -15.620   7.643  1.00  0.00     0.011 C 
ENDBRANCH   1  23
TORSDOF 5
ENDMDL
MODEL 2
REMARK VINA RESULT:      -7.3      1.351      3.850
REMARK  5 active torsions:
REMARK  status: ('A' for Active; 'I' for Inactive)
REMARK    1  A    between atoms: C_2  and  C_3 
REMARK    2  A    between atoms: C_7  and  N_8 
REMARK       I    between atoms: N_8  and  C_9 
REMARK    3  A    between atoms: C_9  and  C_10 
REMARK    4  A    between atoms: C_10  and  N_11 
REMARK    5  A    between atoms: N_11  and  C_14 
ROOT
HETATM    1  C   UNL     1      43.861 -18.120   4.408  1.00  0.00     0.043 C 
HETATM    2  N   UNL     1      44.128 -17.366   5.496  1.00  0.00    -0.252 NA
HETATM    3  C   UNL     1      43.697 -16.103   5.560  1.00  0.00     0.069 A 
HETATM    4  C   UNL     1      43.017 -15.471   4.502  1.00  0.00     0.020 A 
HETATM    5  C   UNL     1      42.868 -16.225   3.299  1.00  0.00     0.055 C 
HETATM    6  C   UNL     1      43.210 -17.604   3.282  1.00  0.00    -0.010 C 
HETATM    7  C   UNL     1      42.942 -18.469   2.077  1.00  0.00     0.052 C 
HETATM    8  C   UNL     1      43.922 -15.420   6.748  1.00  0.00     0.032 A 
HETATM    9  C   UNL     1      43.450 -14.127   6.959  1.00  0.00     0.002 A 
HETATM   10  C   UNL     1      42.713 -13.508   5.965  1.00  0.00     0.001 A 
HETATM   11  C   UNL     1      42.488 -14.176   4.760  1.00  0.00     0.016 A 
ENDROOT
BRANCH   5  12
HETATM   12  N   UNL     1      42.384 -15.667   2.070  1.00  0.00    -0.324 N 
HETATM   13  C   UNL     1      41.055 -15.457   1.740  1.00  0.00     0.248 C 
HETATM   14  O   UNL     1      40.063 -15.775   2.389  1.00  0.00    -0.271 OA
HETATM   15  H   UNL     1      43.058 -15.100   1.570  1.00  0.00     0.169 HD
BRANCH  13  16
HETATM   16  C   UNL     1      40.863 -14.722   0.409  1.00  0.00     0.335 C 
BRANCH  16  17
HETATM   17  N   UNL     1      39.511 -14.983  -0.222  1.00  0.00    -0.063 N 
HETATM   18  H   UNL     1      39.375 -15.992  -0.355  1.00  0.00     0.278 HD
HETATM   19  H   UNL     1      38.817 -14.681   0.479  1.00  0.00     0.278 HD
BRANCH  17  20
HETATM   20  C   UNL     1      39.161 -14.247  -1.492  1.00  0.00     0.178 C 
HETATM   21  C   UNL     1      40.339 -13.408  -1.967  1.00  0.00     0.039 C 
HETATM   22  C   UNL     1      38.786 -15.301  -2.532  1.00  0.00     0.039 C 
ENDBRANCH  17  20
ENDBRANCH  16  17
ENDBRANCH  13  16
ENDBRANCH   5  12
BRANCH   1  23
HETATM   23  C   UNL     1      44.365 -19.540   4.515  1.00  0.00     0.055 C 
HETATM   24  C   UNL     1      43.834 -20.252   5.751  1.00  0.00     0.011 C 
ENDBRANCH   1  23
TORSDOF 5
ENDMDL
MODEL 3
REMARK VINA RESULT:      -7.3      1.961      2.776
REMARK  5 active torsions:
REMARK  status: ('A' for Active; 'I' for Inactive)
REMARK    1  A    between atoms: C_2  and  C_3 
REMARK    2  A    between atoms: C_7  and  N_8 
REMARK       I    between atoms: N_8  and  C_9 
REMARK    3  A    between atoms: C_9  and  C_10 
REMARK    4  A    between atoms: C_10  and  N_11 
REMARK    5  A    between atoms: N_11  and  C_14 
ROOT
HETATM    1  C   UNL     1      42.872 -13.815   4.652  1.00  0.00     0.043 C 
HETATM    2  N   UNL     1      43.152 -15.064   5.084  1.00  0.00    -0.252 NA
HETATM    3  C   UNL     1      43.211 -16.077   4.215  1.00  0.00     0.069 A 
HETATM    4  C   UNL     1      42.927 -15.930   2.845  1.00  0.00     0.020 A 
HETATM    5  C   UNL     1      42.488 -14.639   2.420  1.00  0.00     0.055 C 
HETATM    6  C   UNL     1      42.552 -13.540   3.318  1.00  0.00    -0.010 C 
HETATM    7  C   UNL     1      42.229 -12.137   2.872  1.00  0.00     0.052 C 
HETATM    8  C   UNL     1      43.601 -17.314   4.715  1.00  0.00     0.032 A 
HETATM    9  C   UNL     1      43.772 -18.423   3.892  1.00  0.00     0.002 A 
HETATM   10  C   UNL     1      43.573 -18.290   2.529  1.00  0.00     0.001 A 
HETATM   11  C   UNL     1      43.170 -17.057   2.012  1.00  0.00     0.016 A 
ENDROOT
BRANCH   5  12
HETATM   12  N   UNL     1      41.968 -14.371   1.111  1.00  0.00    -0.324 N 
HETATM   13  C   UNL     1      40.687 -14.662   0.669  1.00  0.00     0.248 C 
HETATM   14  O   UNL     1      39.804 -15.262   1.275  1.00  0.00    -0.271 OA
HETATM   15  H   UNL     1      42.454 -13.640   0.606  1.00  0.00     0.169 HD
BRANCH  13  16
HETATM   16  C   UNL     1      40.390 -14.134  -0.738  1.00  0.00     0.335 C 
BRANCH  16  17
HETATM   17  N   UNL     1      38.919 -14.195  -1.096  1.00  0.00    -0.063 N 
HETATM   18  H   UNL     1      38.557 -15.142  -0.929  1.00  0.00     0.278 HD
HETATM   19  H   UNL     1      38.446 -13.574  -0.422  1.00  0.00     0.278 HD
BRANCH  17  20
HETATM   20  C   UNL     1      38.495 -13.718  -2.463  1.00  0.00     0.178 C 
HETATM   21  C   UNL     1      38.312 -14.898  -3.408  1.00  0.00     0.039 C 
HETATM   22  C   UNL     1      37.186 -12.953  -2.285  1.00  0.00     0.039 C 
ENDBRANCH  17  20
ENDBRANCH  16  17
ENDBRANCH  13  16
ENDBRANCH   5  12
BRANCH   1  23
HETATM   23  C   UNL     1      42.901 -12.774   5.746  1.00  0.00     0.055 C 
HETATM   24  C   UNL     1      44.070 -12.969   6.701  1.00  0.00     0.011 C 
ENDBRANCH   1  23
TORSDOF 5
ENDMDL
MODEL 4
REMARK VINA RESULT:      -7.1      2.726      5.213
REMARK  5 active torsions:
REMARK  status: ('A' for Active; 'I' for Inactive)
REMARK    1  A    between atoms: C_2  and  C_3 
REMARK    2  A    between atoms: C_7  and  N_8 
REMARK       I    between atoms: N_8  and  C_9 
REMARK    3  A    between atoms: C_9  and  C_10 
REMARK    4  A    between atoms: C_10  and  N_11 
REMARK    5  A    between atoms: N_11  and  C_14 
ROOT
HETATM    1  C   UNL     1      40.969 -15.767   2.273  1.00  0.00     0.043 C 
HETATM    2  N   UNL     1      41.590 -16.923   1.950  1.00  0.00    -0.252 NA
HETATM    3  C   UNL     1      42.570 -17.397   2.723  1.00  0.00     0.069 A 
HETATM    4  C   UNL     1      43.055 -16.712   3.853  1.00  0.00     0.020 A 
HETATM    5  C   UNL     1      42.497 -15.422   4.105  1.00  0.00     0.055 C 
HETATM    6  C   UNL     1      41.370 -14.982   3.360  1.00  0.00    -0.010 C 
HETATM    7  C   UNL     1      40.665 -13.689   3.684  1.00  0.00     0.052 C 
HETATM    8  C   UNL     1      43.095 -18.638   2.385  1.00  0.00     0.032 A 
HETATM    9  C   UNL     1      44.065 -19.267   3.161  1.00  0.00     0.002 A 
HETATM   10  C   UNL     1      44.506 -18.652   4.319  1.00  0.00     0.001 A 
HETATM   11  C   UNL     1      43.998 -17.399   4.667  1.00  0.00     0.016 A 
ENDROOT
BRANCH   5  12
HETATM   12  N   UNL     1      43.014 -14.513   5.085  1.00  0.00    -0.324 N 
HETATM   13  C   UNL     1      42.751 -14.548   6.445  1.00  0.00     0.248 C 
HETATM   14  O   UNL     1      41.982 -15.297   7.041  1.00  0.00    -0.271 OA
HETATM   15  H   UNL     1      43.866 -14.038   4.812  1.00  0.00     0.169 HD
BRANCH  13  16
HETATM   16  C   UNL     1      43.557 -13.525   7.252  1.00  0.00     0.335 C 
BRANCH  16  17
HETATM   17  N   UNL     1      43.099 -12.098   7.027  1.00  0.00    -0.063 N 
HETATM   18  H   UNL     1      42.565 -12.037   6.152  1.00  0.00     0.278 HD
HETATM   19  H   UNL     1      42.438 -11.898   7.793  1.00  0.00     0.278 HD
BRANCH  17  20
HETATM   20  C   UNL     1      44.132 -10.999   7.076  1.00  0.00     0.178 C 
HETATM   21  C   UNL     1      44.468 -10.644   8.518  1.00  0.00     0.039 C 
HETATM   22  C   UNL     1      45.366 -11.512   6.338  1.00  0.00     0.039 C 
ENDBRANCH  17  20
ENDBRANCH  16  17
ENDBRANCH  13  16
ENDBRANCH   5  12
BRANCH   1  23
HETATM   23  C   UNL     1      39.845 -15.399   1.333  1.00  0.00     0.055 C 
HETATM   24  C   UNL     1      40.340 -14.656   0.101  1.00  0.00     0.011 C 
ENDBRANCH   1  23
TORSDOF 5
ENDMDL
MODEL 5
REMARK VINA RESULT:      -6.9      1.990      4.036
REMARK  5 active torsions:
REMARK  status: ('A' for Active; 'I' for Inactive)
REMARK    1  A    between atoms: C_2  and  C_3 
REMARK    2  A    between atoms: C_7  and  N_8 
REMARK       I    between atoms: N_8  and  C_9 
REMARK    3  A    between atoms: C_9  and  C_10 
REMARK    4  A    between atoms: C_10  and  N_11 
REMARK    5  A    between atoms: N_11  and  C_14 
ROOT
HETATM    1  C   UNL     1      42.732 -17.360   3.161  1.00  0.00     0.043 C 
HETATM    2  N   UNL     1      43.555 -17.472   4.227  1.00  0.00    -0.252 NA
HETATM    3  C   UNL     1      43.285 -16.812   5.356  1.00  0.00     0.069 A 
HETATM    4  C   UNL     1      42.198 -15.927   5.485  1.00  0.00     0.020 A 
HETATM    5  C   UNL     1      41.419 -15.698   4.311  1.00  0.00     0.055 C 
HETATM    6  C   UNL     1      41.629 -16.498   3.156  1.00  0.00    -0.010 C 
HETATM    7  C   UNL     1      40.741 -16.384   1.944  1.00  0.00     0.052 C 
HETATM    8  C   UNL     1      44.118 -17.052   6.441  1.00  0.00     0.032 A 
HETATM    9  C   UNL     1      43.889 -16.481   7.690  1.00  0.00     0.002 A 
HETATM   10  C   UNL     1      42.785 -15.667   7.868  1.00  0.00     0.001 A 
HETATM   11  C   UNL     1      41.944 -15.405   6.784  1.00  0.00     0.016 A 
ENDROOT
BRANCH   5  12
HETATM   12  N   UNL     1      40.410 -14.684   4.215  1.00  0.00    -0.324 N 
HETATM   13  C   UNL     1      40.624 -13.351   3.902  1.00  0.00     0.248 C 
HETATM   14  O   UNL     1      41.699 -12.785   3.730  1.00  0.00    -0.271 OA
HETATM   15  H   UNL     1      39.475 -15.033   4.043  1.00  0.00     0.169 HD
BRANCH  13  16
HETATM   16  C   UNL     1      39.331 -12.543   3.747  1.00  0.00     0.335 C 
BRANCH  16  17
HETATM   17  N   UNL     1      38.611 -12.821   2.443  1.00  0.00    -0.063 N 
HETATM   18  H   UNL     1      38.923 -13.719   2.056  1.00  0.00     0.278 HD
HETATM   19  H   UNL     1      37.618 -12.936   2.697  1.00  0.00     0.278 HD
BRANCH  17  20
HETATM   20  C   UNL     1      38.643 -11.761   1.369  1.00  0.00     0.178 C 
HETATM   21  C   UNL     1      39.130 -12.349   0.052  1.00  0.00     0.039 C 
HETATM   22  C   UNL     1      37.221 -11.220   1.233  1.00  0.00     0.039 C 
ENDBRANCH  17  20
ENDBRANCH  16  17
ENDBRANCH  13  16
ENDBRANCH   5  12
BRANCH   1  23
HETATM   23  C   UNL     1      43.142 -18.214   1.985  1.00  0.00     0.055 C 
HETATM   24  C   UNL     1      43.438 -19.651   2.387  1.00  0.00     0.011 C 
ENDBRANCH   1  23
TORSDOF 5
ENDMDL
MODEL 6
REMARK VINA RESULT:      -6.8      2.171      4.433
REMARK  5 active torsions:
REMARK  status: ('A' for Active; 'I' for Inactive)
REMARK    1  A    between atoms: C_2  and  C_3 
REMARK    2  A    between atoms: C_7  and  N_8 
REMARK       I    between atoms: N_8  and  C_9 
REMARK    3  A    between atoms: C_9  and  C_10 
REMARK    4  A    between atoms: C_10  and  N_11 
REMARK    5  A    between atoms: N_11  and  C_14 
ROOT
HETATM    1  C   UNL     1      43.407 -17.829   3.063  1.00  0.00     0.043 C 
HETATM    2  N   UNL     1      43.629 -18.107   4.366  1.00  0.00    -0.252 NA
HETATM    3  C   UNL     1      43.532 -17.143   5.284  1.00  0.00     0.069 A 
HETATM    4  C   UNL     1      43.269 -15.799   4.960  1.00  0.00     0.020 A 
HETATM    5  C   UNL     1      43.182 -15.484   3.570  1.00  0.00     0.055 C 
HETATM    6  C   UNL     1      43.155 -16.529   2.609  1.00  0.00    -0.010 C 
HETATM    7  C   UNL     1      42.927 -16.251   1.145  1.00  0.00     0.052 C 
HETATM    8  C   UNL     1      43.676 -17.522   6.613  1.00  0.00     0.032 A 
HETATM    9  C   UNL     1      43.519 -16.617   7.661  1.00  0.00     0.002 A 
HETATM   10  C   UNL     1      43.186 -15.305   7.376  1.00  0.00     0.001 A 
HETATM   11  C   UNL     1      43.049 -14.906   6.045  1.00  0.00     0.016 A 
ENDROOT
BRANCH   5  12
HETATM   12  N   UNL     1      43.121 -14.144   3.064  1.00  0.00    -0.324 N 
HETATM   13  C   UNL     1      41.994 -13.337   3.035  1.00  0.00     0.248 C 
HETATM   14  O   UNL     1      40.848 -13.638   3.355  1.00  0.00    -0.271 OA
HETATM   15  H   UNL     1      44.010 -13.661   3.039  1.00  0.00     0.169 HD
BRANCH  13  16
HETATM   16  C   UNL     1      42.276 -11.908   2.557  1.00  0.00     0.335 C 
BRANCH  16  17
HETATM   17  N   UNL     1      43.181 -11.136   3.497  1.00  0.00    -0.063 N 
HETATM   18  H   UNL     1      44.164 -11.320   3.265  1.00  0.00     0.278 HD
HETATM   19  H   UNL     1      43.008 -10.141   3.288  1.00  0.00     0.278 HD
BRANCH  17  20
HETATM   20  C   UNL     1      42.966 -11.290   4.982  1.00  0.00     0.178 C 
HETATM   21  C   UNL     1      44.301 -11.381   5.709  1.00  0.00     0.039 C 
HETATM   22  C   UNL     1      42.172 -10.072   5.449  1.00  0.00     0.039 C 
ENDBRANCH  17  20
ENDBRANCH  16  17
ENDBRANCH  13  16
ENDBRANCH   5  12
BRANCH   1  23
HETATM   23  C   UNL     1      43.495 -19.037   2.160  1.00  0.00     0.055 C 
HETATM   24  C   UNL     1      43.622 -20.336   2.941  1.00  0.00     0.011 C 
ENDBRANCH   1  23
TORSDOF 5
ENDMDL
MODEL 7
REMARK VINA RESULT:      -6.6      3.847      6.183
REMARK  5 active torsions:
REMARK  status: ('A' for Active; 'I' for Inactive)
REMARK    1  A    between atoms: C_2  and  C_3 
REMARK    2  A    between atoms: C_7  and  N_8 
REMARK       I    between atoms: N_8  and  C_9 
REMARK    3  A    between atoms: C_9  and  C_10 
REMARK    4  A    between atoms: C_10  and  N_11 
REMARK    5  A    between atoms: N_11  and  C_14 
ROOT
HETATM    1  C   UNL     1      40.822 -14.847   3.512  1.00  0.00     0.043 C 
HETATM    2  N   UNL     1      41.736 -15.840   3.466  1.00  0.00    -0.252 NA
HETATM    3  C   UNL     1      42.676 -15.931   4.410  1.00  0.00     0.069 A 
HETATM    4  C   UNL     1      42.817 -14.988   5.446  1.00  0.00     0.020 A 
HETATM    5  C   UNL     1      41.941 -13.861   5.405  1.00  0.00     0.055 C 
HETATM    6  C   UNL     1      40.864 -13.836   4.479  1.00  0.00    -0.010 C 
HETATM    7  C   UNL     1      39.837 -12.733   4.493  1.00  0.00     0.052 C 
HETATM    8  C   UNL     1      43.521 -17.033   4.354  1.00  0.00     0.032 A 
HETATM    9  C   UNL     1      44.487 -17.274   5.327  1.00  0.00     0.002 A 
HETATM   10  C   UNL     1      44.598 -16.405   6.398  1.00  0.00     0.001 A 
HETATM   11  C   UNL     1      43.765 -15.286   6.463  1.00  0.00     0.016 A 
ENDROOT
BRANCH   5  12
HETATM   12  N   UNL     1      42.083 -12.718   6.258  1.00  0.00    -0.324 N 
HETATM   13  C   UNL     1      43.009 -11.699   6.105  1.00  0.00     0.248 C 
HETATM   14  O   UNL     1      43.912 -11.625   5.277  1.00  0.00    -0.271 OA
HETATM   15  H   UNL     1      41.255 -12.485   6.792  1.00  0.00     0.169 HD
BRANCH  13  16
HETATM   16  C   UNL     1      42.824 -10.548   7.100  1.00  0.00     0.335 C 
BRANCH  16  17
HETATM   17  N   UNL     1      43.474 -10.814   8.442  1.00  0.00    -0.063 N 
HETATM   18  H   UNL     1      42.776 -10.736   9.191  1.00  0.00     0.278 HD
HETATM   19  H   UNL     1      43.769 -11.802   8.414  1.00  0.00     0.278 HD
BRANCH  17  20
HETATM   20  C   UNL     1      44.708 -10.025   8.808  1.00  0.00     0.178 C 
HETATM   21  C   UNL     1      45.915 -10.526   8.026  1.00  0.00     0.039 C 
HETATM   22  C   UNL     1      44.417  -8.562   8.484  1.00  0.00     0.039 C 
ENDBRANCH  17  20
ENDBRANCH  16  17
ENDBRANCH  13  16
ENDBRANCH   5  12
BRANCH   1  23
HETATM   23  C   UNL     1      39.793 -14.917   2.408  1.00  0.00     0.055 C 
HETATM   24  C   UNL     1      40.427 -14.959   1.026  1.00  0.00     0.011 C 
ENDBRANCH   1  23
TORSDOF 5
ENDMDL
MODEL 8
REMARK VINA RESULT:      -6.5     13.782     15.362
REMARK  5 active torsions:
REMARK  status: ('A' for Active; 'I' for Inactive)
REMARK    1  A    between atoms: C_2  and  C_3 
REMARK    2  A    between atoms: C_7  and  N_8 
REMARK       I    between atoms: N_8  and  C_9 
REMARK    3  A    between atoms: C_9  and  C_10 
REMARK    4  A    between atoms: C_10  and  N_11 
REMARK    5  A    between atoms: N_11  and  C_14 
ROOT
HETATM    1  C   UNL     1      45.210 -28.687  -1.923  1.00  0.00     0.043 C 
HETATM    2  N   UNL     1      44.138 -28.956  -1.146  1.00  0.00    -0.252 NA
HETATM    3  C   UNL     1      44.296 -29.174   0.162  1.00  0.00     0.069 A 
HETATM    4  C   UNL     1      45.557 -29.207   0.787  1.00  0.00     0.020 A 
HETATM    5  C   UNL     1      46.695 -29.070  -0.065  1.00  0.00     0.055 C 
HETATM    6  C   UNL     1      46.518 -28.709  -1.427  1.00  0.00    -0.010 C 
HETATM    7  C   UNL     1      47.693 -28.420  -2.326  1.00  0.00     0.052 C 
HETATM    8  C   UNL     1      43.142 -29.346   0.916  1.00  0.00     0.032 A 
HETATM    9  C   UNL     1      43.179 -29.504   2.299  1.00  0.00     0.002 A 
HETATM   10  C   UNL     1      44.399 -29.465   2.951  1.00  0.00     0.001 A 
HETATM   11  C   UNL     1      45.569 -29.305   2.206  1.00  0.00     0.016 A 
ENDROOT
BRANCH   5  12
HETATM   12  N   UNL     1      48.043 -29.281   0.376  1.00  0.00    -0.324 N 
HETATM   13  C   UNL     1      48.652 -30.510   0.569  1.00  0.00     0.248 C 
HETATM   14  O   UNL     1      48.141 -31.622   0.479  1.00  0.00    -0.271 OA
HETATM   15  H   UNL     1      48.666 -28.499   0.214  1.00  0.00     0.169 HD
BRANCH  13  16
HETATM   16  C   UNL     1      50.142 -30.408   0.914  1.00  0.00     0.335 C 
BRANCH  16  17
HETATM   17  N   UNL     1      50.404 -29.625   2.184  1.00  0.00    -0.063 N 
HETATM   18  H   UNL     1      51.414 -29.576   2.363  1.00  0.00     0.278 HD
HETATM   19  H   UNL     1      50.092 -28.663   1.983  1.00  0.00     0.278 HD
BRANCH  17  20
HETATM   20  C   UNL     1      49.680 -30.039   3.442  1.00  0.00     0.178 C 
HETATM   21  C   UNL     1      50.669 -30.512   4.498  1.00  0.00     0.039 C 
HETATM   22  C   UNL     1      48.900 -28.821   3.931  1.00  0.00     0.039 C 
ENDBRANCH  17  20
ENDBRANCH  16  17
ENDBRANCH  13  16
ENDBRANCH   5  12
BRANCH   1  23
HETATM   23  C   UNL     1      44.858 -28.405  -3.365  1.00  0.00     0.055 C 
HETATM   24  C   UNL     1      43.898 -29.436  -3.940  1.00  0.00     0.011 C 
ENDBRANCH   1  23
TORSDOF 5
ENDMDL
MODEL 9
REMARK VINA RESULT:      -6.4      2.724      4.520
REMARK  5 active torsions:
REMARK  status: ('A' for Active; 'I' for Inactive)
REMARK    1  A    between atoms: C_2  and  C_3 
REMARK    2  A    between atoms: C_7  and  N_8 
REMARK       I    between atoms: N_8  and  C_9 
REMARK    3  A    between atoms: C_9  and  C_10 
REMARK    4  A    between atoms: C_10  and  N_11 
REMARK    5  A    between atoms: N_11  and  C_14 
ROOT
HETATM    1  C   UNL     1      42.575 -17.269   3.201  1.00  0.00     0.043 C 
HETATM    2  N   UNL     1      43.438 -17.428   4.228  1.00  0.00    -0.252 NA
HETATM    3  C   UNL     1      43.246 -16.771   5.375  1.00  0.00     0.069 A 
HETATM    4  C   UNL     1      42.204 -15.844   5.562  1.00  0.00     0.020 A 
HETATM    5  C   UNL     1      41.384 -15.569   4.426  1.00  0.00     0.055 C 
HETATM    6  C   UNL     1      41.510 -16.363   3.255  1.00  0.00    -0.010 C 
HETATM    7  C   UNL     1      40.574 -16.197   2.085  1.00  0.00     0.052 C 
HETATM    8  C   UNL     1      44.116 -17.059   6.419  1.00  0.00     0.032 A 
HETATM    9  C   UNL     1      43.967 -16.494   7.683  1.00  0.00     0.002 A 
HETATM   10  C   UNL     1      42.906 -15.637   7.918  1.00  0.00     0.001 A 
HETATM   11  C   UNL     1      42.030 -15.328   6.876  1.00  0.00     0.016 A 
ENDROOT
BRANCH   5  12
HETATM   12  N   UNL     1      40.415 -14.513   4.386  1.00  0.00    -0.324 N 
HETATM   13  C   UNL     1      40.673 -13.183   4.093  1.00  0.00     0.248 C 
HETATM   14  O   UNL     1      41.765 -12.658   3.896  1.00  0.00    -0.271 OA
HETATM   15  H   UNL     1      39.462 -14.820   4.239  1.00  0.00     0.169 HD
BRANCH  13  16
HETATM   16  C   UNL     1      39.411 -12.320   3.999  1.00  0.00     0.335 C 
BRANCH  16  17
HETATM   17  N   UNL     1      39.702 -10.883   3.617  1.00  0.00    -0.063 N 
HETATM   18  H   UNL     1      40.646 -10.811   3.221  1.00  0.00     0.278 HD
HETATM   19  H   UNL     1      39.043 -10.662   2.855  1.00  0.00     0.278 HD
BRANCH  17  20
HETATM   20  C   UNL     1      39.500  -9.811   4.660  1.00  0.00     0.178 C 
HETATM   21  C   UNL     1      38.509 -10.274   5.719  1.00  0.00     0.039 C 
HETATM   22  C   UNL     1      40.866  -9.526   5.279  1.00  0.00     0.039 C 
ENDBRANCH  17  20
ENDBRANCH  16  17
ENDBRANCH  13  16
ENDBRANCH   5  12
BRANCH   1  23
HETATM   23  C   UNL     1      42.896 -18.125   1.999  1.00  0.00     0.055 C 
HETATM   24  C   UNL     1      43.494 -19.469   2.388  1.00  0.00     0.011 C 
ENDBRANCH   1  23
TORSDOF 5
ENDMDL
MODEL 10
REMARK VINA RESULT:      -6.3     13.584     15.128
REMARK  5 active torsions:
REMARK  status: ('A' for Active; 'I' for Inactive)
REMARK    1  A    between atoms: C_2  and  C_3 
REMARK    2  A    between atoms: C_7  and  N_8 
REMARK       I    between atoms: N_8  and  C_9 
REMARK    3  A    between atoms: C_9  and  C_10 
REMARK    4  A    between atoms: C_10  and  N_11 
REMARK    5  A    between atoms: N_11  and  C_14 
ROOT
HETATM    1  C   UNL     1      48.916 -29.939   2.529  1.00  0.00     0.043 C 
HETATM    2  N   UNL     1      49.944 -30.521   1.875  1.00  0.00    -0.252 NA
HETATM    3  C   UNL     1      50.006 -30.472   0.542  1.00  0.00     0.069 A 
HETATM    4  C   UNL     1      49.000 -29.889  -0.251  1.00  0.00     0.020 A 
HETATM    5  C   UNL     1      47.845 -29.407   0.437  1.00  0.00     0.055 C 
HETATM    6  C   UNL     1      47.843 -29.343   1.855  1.00  0.00    -0.010 C 
HETATM    7  C   UNL     1      46.702 -28.716   2.616  1.00  0.00     0.052 C 
HETATM    8  C   UNL     1      51.141 -31.006  -0.056  1.00  0.00     0.032 A 
HETATM    9  C   UNL     1      51.351 -30.942  -1.431  1.00  0.00     0.002 A 
HETATM   10  C   UNL     1      50.415 -30.308  -2.229  1.00  0.00     0.001 A 
HETATM   11  C   UNL     1      49.264 -29.777  -1.644  1.00  0.00     0.016 A 
ENDROOT
BRANCH   5  12
HETATM   12  N   UNL     1      46.652 -28.972  -0.229  1.00  0.00    -0.324 N 
HETATM   13  C   UNL     1      45.598 -29.783  -0.620  1.00  0.00     0.248 C 
HETATM   14  O   UNL     1      45.525 -31.005  -0.544  1.00  0.00    -0.271 OA
HETATM   15  H   UNL     1      46.432 -27.992  -0.103  1.00  0.00     0.169 HD
BRANCH  13  16
HETATM   16  C   UNL     1      44.406 -29.006  -1.188  1.00  0.00     0.335 C 
BRANCH  16  17
HETATM   17  N   UNL     1      43.947 -29.525  -2.536  1.00  0.00    -0.063 N 
HETATM   18  H   UNL     1      43.632 -30.498  -2.447  1.00  0.00     0.278 HD
HETATM   19  H   UNL     1      43.116 -28.965  -2.777  1.00  0.00     0.278 HD
BRANCH  17  20
HETATM   20  C   UNL     1      44.887 -29.396  -3.709  1.00  0.00     0.178 C 
HETATM   21  C   UNL     1      44.238 -29.935  -4.977  1.00  0.00     0.039 C 
HETATM   22  C   UNL     1      45.222 -27.913  -3.854  1.00  0.00     0.039 C 
ENDBRANCH  17  20
ENDBRANCH  16  17
ENDBRANCH  13  16
ENDBRANCH   5  12
BRANCH   1  23
HETATM   23  C   UNL     1      49.023 -30.030   4.033  1.00  0.00     0.055 C 
HETATM   24  C   UNL     1      50.413 -30.444   4.491  1.00  0.00     0.011 C 
ENDBRANCH   1  23
TORSDOF 5
ENDMDL
