MODEL 1
REMARK VINA RESULT:      -9.0      0.000      0.000
REMARK  6 active torsions:
REMARK  status: ('A' for Active; 'I' for Inactive)
REMARK    1  A    between atoms: O_2  and  C_3 
REMARK    2  A    between atoms: C_6  and  C_7 
REMARK    3  A    between atoms: C_13  and  C_14 
REMARK       I    between atoms: C_14  and  N_15 
REMARK    4  A    between atoms: N_15  and  C_16 
REMARK    5  A    between atoms: C_18  and  O_19 
REMARK    6  A    between atoms: C_24  and  C_25 
ROOT
HETATM    1  C   UNL     1      43.244 -14.869   2.155  1.00  0.00     0.118 C 
HETATM    2  N   UNL     1      43.153 -13.656   2.984  1.00  0.00    -0.365 N 
HETATM    3  C   UNL     1      41.941 -13.141   3.341  1.00  0.00     0.138 A 
HETATM    4  N   UNL     1      40.768 -13.677   2.861  1.00  0.00    -0.240 N 
HETATM    5  N   UNL     1      39.672 -12.987   3.208  1.00  0.00    -0.181 NA
HETATM    6  C   UNL     1      40.155 -12.021   3.992  1.00  0.00     0.160 A 
HETATM    7  C   UNL     1      41.566 -12.056   4.116  1.00  0.00     0.096 A 
HETATM    8  C   UNL     1      40.686 -14.743   1.879  1.00  0.00     0.221 C 
HETATM    9  C   UNL     1      42.048 -14.930   1.189  1.00  0.00     0.066 C 
HETATM   10  H   UNL     1      43.924 -13.010   2.809  1.00  0.00     0.161 HD
ENDROOT
BRANCH   7  11
HETATM   11  C   UNL     1      42.374 -11.110   4.872  1.00  0.00     0.261 C 
HETATM   12  N   UNL     1      43.014 -11.666   5.963  1.00  0.00    -0.323 N 
HETATM   13  H   UNL     1      42.746 -12.618   6.183  1.00  0.00     0.169 HD
HETATM   14  O   UNL     1      42.443  -9.938   4.521  1.00  0.00    -0.267 OA
BRANCH  12  15
HETATM   15  C   UNL     1      43.984 -11.067   6.793  1.00  0.00     0.037 A 
HETATM   16  C   UNL     1      45.362 -11.168   6.581  1.00  0.00     0.066 A 
HETATM   17  C   UNL     1      46.249 -10.572   7.476  1.00  0.00     0.067 A 
HETATM   18  C   UNL     1      45.789  -9.881   8.590  1.00  0.00     0.036 A 
HETATM   19  C   UNL     1      44.419  -9.773   8.808  1.00  0.00     0.005 A 
HETATM   20  C   UNL     1      43.520 -10.358   7.911  1.00  0.00     0.029 A 
BRANCH  17  21
HETATM   21  O   UNL     1      47.599 -10.648   7.291  1.00  0.00    -0.361 OA
HETATM   22  H   UNL     1      47.794 -11.451   6.777  1.00  0.00     0.217 HD
ENDBRANCH  17  21
ENDBRANCH  12  15
ENDBRANCH   7  11
BRANCH   1  23
HETATM   23  C   UNL     1      43.460 -16.134   2.971  1.00  0.00    -0.035 A 
HETATM   24  C   UNL     1      43.544 -17.410   2.394  1.00  0.00     0.012 A 
HETATM   25  C   UNL     1      43.801 -18.540   3.179  1.00  0.00     0.037 A 
HETATM   26  C   UNL     1      43.981 -18.422   4.556  1.00  0.00     0.068 A 
HETATM   27  C   UNL     1      43.841 -17.173   5.154  1.00  0.00     0.037 A 
HETATM   28  C   UNL     1      43.578 -16.044   4.370  1.00  0.00     0.012 A 
BRANCH  26  29
HETATM   29  O   UNL     1      44.264 -19.589   5.211  1.00  0.00    -0.356 OA
HETATM   30  C   UNL     1      44.014 -20.785   4.481  1.00  0.00     0.210 C 
ENDBRANCH  26  29
ENDBRANCH   1  23
BRANCH   8  31
HETATM   31  C   UNL     1      40.110 -15.993   2.505  1.00  0.00     0.409 C 
HETATM   32  F   UNL     1      40.453 -16.172   3.794  1.00  0.00    -0.169 F 
HETATM   33  F   UNL     1      38.759 -16.011   2.441  1.00  0.00    -0.169 F 
HETATM   34  F   UNL     1      40.532 -17.090   1.821  1.00  0.00    -0.169 F 
ENDBRANCH   8  31
TORSDOF 6
ENDMDL
MODEL 2
REMARK VINA RESULT:      -8.9      3.534      6.778
REMARK  6 active torsions:
REMARK  status: ('A' for Active; 'I' for Inactive)
REMARK    1  A    between atoms: O_2  and  C_3 
REMARK    2  A    between atoms: C_6  and  C_7 
REMARK    3  A    between atoms: C_13  and  C_14 
REMARK       I    between atoms: C_14  and  N_15 
REMARK    4  A    between atoms: N_15  and  C_16 
REMARK    5  A    between atoms: C_18  and  O_19 
REMARK    6  A    between atoms: C_24  and  C_25 
ROOT
HETATM    1  C   UNL     1      40.573 -15.152   5.217  1.00  0.00     0.118 C 
HETATM    2  N   UNL     1      40.202 -14.395   4.012  1.00  0.00    -0.365 N 
HETATM    3  C   UNL     1      40.693 -13.141   3.794  1.00  0.00     0.138 A 
HETATM    4  N   UNL     1      41.469 -12.505   4.735  1.00  0.00    -0.240 N 
HETATM    5  N   UNL     1      41.773 -11.236   4.423  1.00  0.00    -0.181 NA
HETATM    6  C   UNL     1      41.231 -11.081   3.212  1.00  0.00     0.160 A 
HETATM    7  C   UNL     1      40.539 -12.232   2.760  1.00  0.00     0.096 A 
HETATM    8  C   UNL     1      41.761 -13.027   6.057  1.00  0.00     0.221 C 
HETATM    9  C   UNL     1      40.804 -14.183   6.390  1.00  0.00     0.066 C 
HETATM   10  H   UNL     1      39.254 -14.608   3.698  1.00  0.00     0.161 HD
ENDROOT
BRANCH   7  11
HETATM   11  C   UNL     1      39.819 -12.346   1.500  1.00  0.00     0.261 C 
HETATM   12  N   UNL     1      40.428 -13.177   0.579  1.00  0.00    -0.323 N 
HETATM   13  H   UNL     1      41.355 -13.499   0.834  1.00  0.00     0.169 HD
HETATM   14  O   UNL     1      38.769 -11.737   1.331  1.00  0.00    -0.267 OA
BRANCH  12  15
HETATM   15  C   UNL     1      39.914 -13.622  -0.656  1.00  0.00     0.037 A 
HETATM   16  C   UNL     1      39.355 -14.887  -0.858  1.00  0.00     0.066 A 
HETATM   17  C   UNL     1      38.904 -15.254  -2.126  1.00  0.00     0.067 A 
HETATM   18  C   UNL     1      39.008 -14.384  -3.204  1.00  0.00     0.036 A 
HETATM   19  C   UNL     1      39.561 -13.122  -3.012  1.00  0.00     0.005 A 
HETATM   20  C   UNL     1      40.006 -12.740  -1.743  1.00  0.00     0.029 A 
BRANCH  17  21
HETATM   21  O   UNL     1      38.348 -16.480  -2.351  1.00  0.00    -0.361 OA
HETATM   22  H   UNL     1      37.469 -16.499  -1.934  1.00  0.00     0.217 HD
ENDBRANCH  17  21
ENDBRANCH  12  15
ENDBRANCH   7  11
BRANCH   1  23
HETATM   23  C   UNL     1      41.710 -16.134   4.979  1.00  0.00    -0.035 A 
HETATM   24  C   UNL     1      42.329 -16.852   6.014  1.00  0.00     0.012 A 
HETATM   25  C   UNL     1      43.332 -17.788   5.740  1.00  0.00     0.037 A 
HETATM   26  C   UNL     1      43.740 -18.029   4.430  1.00  0.00     0.068 A 
HETATM   27  C   UNL     1      43.181 -17.284   3.397  1.00  0.00     0.037 A 
HETATM   28  C   UNL     1      42.181 -16.342   3.670  1.00  0.00     0.012 A 
BRANCH  26  29
HETATM   29  O   UNL     1      44.701 -18.993   4.284  1.00  0.00    -0.356 OA
HETATM   30  C   UNL     1      44.397 -20.261   4.854  1.00  0.00     0.210 C 
ENDBRANCH  26  29
ENDBRANCH   1  23
BRANCH   8  31
HETATM   31  C   UNL     1      43.231 -13.359   6.179  1.00  0.00     0.409 C 
HETATM   32  F   UNL     1      43.512 -14.273   7.125  1.00  0.00    -0.169 F 
HETATM   33  F   UNL     1      43.744 -13.815   5.013  1.00  0.00    -0.169 F 
HETATM   34  F   UNL     1      43.936 -12.237   6.485  1.00  0.00    -0.169 F 
ENDBRANCH   8  31
TORSDOF 6
ENDMDL
MODEL 3
REMARK VINA RESULT:      -8.0      2.143      3.042
REMARK  6 active torsions:
REMARK  status: ('A' for Active; 'I' for Inactive)
REMARK    1  A    between atoms: O_2  and  C_3 
REMARK    2  A    between atoms: C_6  and  C_7 
REMARK    3  A    between atoms: C_13  and  C_14 
REMARK       I    between atoms: C_14  and  N_15 
REMARK    4  A    between atoms: N_15  and  C_16 
REMARK    5  A    between atoms: C_18  and  O_19 
REMARK    6  A    between atoms: C_24  and  C_25 
ROOT
HETATM    1  C   UNL     1      42.739 -12.090   2.700  1.00  0.00     0.118 C 
HETATM    2  N   UNL     1      42.645 -11.248   3.903  1.00  0.00    -0.365 N 
HETATM    3  C   UNL     1      41.432 -10.890   4.414  1.00  0.00     0.138 A 
HETATM    4  N   UNL     1      40.261 -11.220   3.772  1.00  0.00    -0.240 N 
HETATM    5  N   UNL     1      39.164 -10.695   4.337  1.00  0.00    -0.181 NA
HETATM    6  C   UNL     1      39.644 -10.068   5.414  1.00  0.00     0.160 A 
HETATM    7  C   UNL     1      41.055 -10.147   5.521  1.00  0.00     0.096 A 
HETATM    8  C   UNL     1      40.182 -11.870   2.478  1.00  0.00     0.221 C 
HETATM    9  C   UNL     1      41.546 -11.805   1.770  1.00  0.00     0.066 C 
HETATM   10  H   UNL     1      43.417 -10.583   3.970  1.00  0.00     0.161 HD
ENDROOT
BRANCH   7  11
HETATM   11  C   UNL     1      41.860  -9.530   6.565  1.00  0.00     0.261 C 
HETATM   12  N   UNL     1      42.401 -10.431   7.463  1.00  0.00    -0.323 N 
HETATM   13  H   UNL     1      42.071 -11.385   7.370  1.00  0.00     0.169 HD
HETATM   14  O   UNL     1      42.011  -8.314   6.591  1.00  0.00    -0.267 OA
BRANCH  12  15
HETATM   15  C   UNL     1      43.345 -10.177   8.478  1.00  0.00     0.037 A 
HETATM   16  C   UNL     1      43.026  -9.614   9.717  1.00  0.00     0.066 A 
HETATM   17  C   UNL     1      44.033  -9.365  10.649  1.00  0.00     0.067 A 
HETATM   18  C   UNL     1      45.361  -9.659  10.366  1.00  0.00     0.036 A 
HETATM   19  C   UNL     1      45.688 -10.223   9.136  1.00  0.00     0.005 A 
HETATM   20  C   UNL     1      44.685 -10.486   8.199  1.00  0.00     0.029 A 
BRANCH  17  21
HETATM   21  O   UNL     1      43.750  -8.823  11.869  1.00  0.00    -0.361 OA
HETATM   22  H   UNL     1      42.904  -9.190  12.180  1.00  0.00     0.217 HD
ENDBRANCH  17  21
ENDBRANCH  12  15
ENDBRANCH   7  11
BRANCH   1  23
HETATM   23  C   UNL     1      42.951 -13.563   3.018  1.00  0.00    -0.035 A 
HETATM   24  C   UNL     1      42.928 -14.073   4.324  1.00  0.00     0.012 A 
HETATM   25  C   UNL     1      43.071 -15.445   4.563  1.00  0.00     0.037 A 
HETATM   26  C   UNL     1      43.238 -16.337   3.505  1.00  0.00     0.068 A 
HETATM   27  C   UNL     1      43.323 -15.842   2.208  1.00  0.00     0.037 A 
HETATM   28  C   UNL     1      43.187 -14.469   1.968  1.00  0.00     0.012 A 
BRANCH  26  29
HETATM   29  O   UNL     1      43.328 -17.655   3.860  1.00  0.00    -0.356 OA
HETATM   30  C   UNL     1      43.602 -18.565   2.800  1.00  0.00     0.210 C 
ENDBRANCH  26  29
ENDBRANCH   1  23
BRANCH   8  31
HETATM   31  C   UNL     1      39.603 -13.260   2.620  1.00  0.00     0.409 C 
HETATM   32  F   UNL     1      40.011 -14.126   1.676  1.00  0.00    -0.169 F 
HETATM   33  F   UNL     1      39.896 -13.807   3.822  1.00  0.00    -0.169 F 
HETATM   34  F   UNL     1      38.246 -13.205   2.555  1.00  0.00    -0.169 F 
ENDBRANCH   8  31
TORSDOF 6
ENDMDL
MODEL 4
REMARK VINA RESULT:      -7.9      4.168      7.954
REMARK  6 active torsions:
REMARK  status: ('A' for Active; 'I' for Inactive)
REMARK    1  A    between atoms: O_2  and  C_3 
REMARK    2  A    between atoms: C_6  and  C_7 
REMARK    3  A    between atoms: C_13  and  C_14 
REMARK       I    between atoms: C_14  and  N_15 
REMARK    4  A    between atoms: N_15  and  C_16 
REMARK    5  A    between atoms: C_18  and  O_19 
REMARK    6  A    between atoms: C_24  and  C_25 
ROOT
HETATM    1  C   UNL     1      41.165 -11.823  -0.237  1.00  0.00     0.118 C 
HETATM    2  N   UNL     1      41.719 -13.021   0.412  1.00  0.00    -0.365 N 
HETATM    3  C   UNL     1      41.410 -13.323   1.707  1.00  0.00     0.138 A 
HETATM    4  N   UNL     1      40.652 -12.471   2.477  1.00  0.00    -0.240 N 
HETATM    5  N   UNL     1      40.537 -12.852   3.757  1.00  0.00    -0.181 NA
HETATM    6  C   UNL     1      41.183 -14.019   3.789  1.00  0.00     0.160 A 
HETATM    7  C   UNL     1      41.756 -14.372   2.541  1.00  0.00     0.096 A 
HETATM    8  C   UNL     1      40.197 -11.159   2.056  1.00  0.00     0.221 C 
HETATM    9  C   UNL     1      40.972 -10.708   0.806  1.00  0.00     0.066 C 
HETATM   10  H   UNL     1      42.653 -13.250   0.070  1.00  0.00     0.161 HD
ENDROOT
BRANCH   7  11
HETATM   11  C   UNL     1      42.548 -15.566   2.281  1.00  0.00     0.261 C 
HETATM   12  N   UNL     1      42.535 -16.485   3.313  1.00  0.00    -0.323 N 
HETATM   13  H   UNL     1      42.092 -16.168   4.169  1.00  0.00     0.169 HD
HETATM   14  O   UNL     1      43.149 -15.689   1.220  1.00  0.00    -0.267 OA
BRANCH  12  15
HETATM   15  C   UNL     1      43.059 -17.793   3.312  1.00  0.00     0.037 A 
HETATM   16  C   UNL     1      42.901 -18.696   2.256  1.00  0.00     0.066 A 
HETATM   17  C   UNL     1      43.424 -19.984   2.358  1.00  0.00     0.067 A 
HETATM   18  C   UNL     1      44.097 -20.397   3.501  1.00  0.00     0.036 A 
HETATM   19  C   UNL     1      44.262 -19.505   4.556  1.00  0.00     0.005 A 
HETATM   20  C   UNL     1      43.750 -18.208   4.460  1.00  0.00     0.029 A 
BRANCH  17  21
HETATM   21  O   UNL     1      43.291 -20.884   1.341  1.00  0.00    -0.361 OA
HETATM   22  H   UNL     1      42.785 -21.648   1.670  1.00  0.00     0.217 HD
ENDBRANCH  17  21
ENDBRANCH  12  15
ENDBRANCH   7  11
BRANCH   1  23
HETATM   23  C   UNL     1      39.934 -12.117  -1.080  1.00  0.00    -0.035 A 
HETATM   24  C   UNL     1      39.356 -13.392  -1.171  1.00  0.00     0.012 A 
HETATM   25  C   UNL     1      38.188 -13.602  -1.914  1.00  0.00     0.037 A 
HETATM   26  C   UNL     1      37.572 -12.546  -2.582  1.00  0.00     0.068 A 
HETATM   27  C   UNL     1      38.164 -11.287  -2.553  1.00  0.00     0.037 A 
HETATM   28  C   UNL     1      39.335 -11.077  -1.815  1.00  0.00     0.012 A 
BRANCH  26  29
HETATM   29  O   UNL     1      36.417 -12.866  -3.242  1.00  0.00    -0.356 OA
HETATM   30  C   UNL     1      35.524 -11.785  -3.486  1.00  0.00     0.210 C 
ENDBRANCH  26  29
ENDBRANCH   1  23
BRANCH   8  31
HETATM   31  C   UNL     1      38.692 -11.143   1.914  1.00  0.00     0.409 C 
HETATM   32  F   UNL     1      38.159 -12.328   1.564  1.00  0.00    -0.169 F 
HETATM   33  F   UNL     1      38.083 -10.750   3.057  1.00  0.00    -0.169 F 
HETATM   34  F   UNL     1      38.325 -10.242   0.965  1.00  0.00    -0.169 F 
ENDBRANCH   8  31
TORSDOF 6
ENDMDL
MODEL 5
REMARK VINA RESULT:      -7.8      3.577      6.612
REMARK  6 active torsions:
REMARK  status: ('A' for Active; 'I' for Inactive)
REMARK    1  A    between atoms: O_2  and  C_3 
REMARK    2  A    between atoms: C_6  and  C_7 
REMARK    3  A    between atoms: C_13  and  C_14 
REMARK       I    between atoms: C_14  and  N_15 
REMARK    4  A    between atoms: N_15  and  C_16 
REMARK    5  A    between atoms: C_18  and  O_19 
REMARK    6  A    between atoms: C_24  and  C_25 
ROOT
HETATM    1  C   UNL     1      40.686 -15.060   4.688  1.00  0.00     0.118 C 
HETATM    2  N   UNL     1      40.655 -14.163   3.523  1.00  0.00    -0.365 N 
HETATM    3  C   UNL     1      41.235 -12.929   3.572  1.00  0.00     0.138 A 
HETATM    4  N   UNL     1      41.782 -12.444   4.738  1.00  0.00    -0.240 N 
HETATM    5  N   UNL     1      42.205 -11.175   4.653  1.00  0.00    -0.181 NA
HETATM    6  C   UNL     1      41.985 -10.863   3.374  1.00  0.00     0.160 A 
HETATM    7  C   UNL     1      41.377 -11.914   2.642  1.00  0.00     0.096 A 
HETATM    8  C   UNL     1      41.719 -13.114   6.023  1.00  0.00     0.221 C 
HETATM    9  C   UNL     1      40.662 -14.231   5.984  1.00  0.00     0.066 C 
HETATM   10  H   UNL     1      39.805 -14.279   2.969  1.00  0.00     0.161 HD
ENDROOT
BRANCH   7  11
HETATM   11  C   UNL     1      40.985 -11.853   1.241  1.00  0.00     0.261 C 
HETATM   12  N   UNL     1      39.789 -12.486   0.965  1.00  0.00    -0.323 N 
HETATM   13  H   UNL     1      39.398 -13.024   1.730  1.00  0.00     0.169 HD
HETATM   14  O   UNL     1      41.694 -11.273   0.426  1.00  0.00    -0.267 OA
BRANCH  12  15
HETATM   15  C   UNL     1      39.061 -12.470  -0.242  1.00  0.00     0.037 A 
HETATM   16  C   UNL     1      39.400 -13.227  -1.368  1.00  0.00     0.066 A 
HETATM   17  C   UNL     1      38.642 -13.120  -2.533  1.00  0.00     0.067 A 
HETATM   18  C   UNL     1      37.552 -12.262  -2.603  1.00  0.00     0.036 A 
HETATM   19  C   UNL     1      37.206 -11.505  -1.488  1.00  0.00     0.005 A 
HETATM   20  C   UNL     1      37.953 -11.613  -0.311  1.00  0.00     0.029 A 
BRANCH  17  21
HETATM   21  O   UNL     1      38.945 -13.853  -3.644  1.00  0.00    -0.361 OA
HETATM   22  H   UNL     1      38.638 -14.766  -3.503  1.00  0.00     0.217 HD
ENDBRANCH  17  21
ENDBRANCH  12  15
ENDBRANCH   7  11
BRANCH   1  23
HETATM   23  C   UNL     1      41.805 -16.089   4.620  1.00  0.00    -0.035 A 
HETATM   24  C   UNL     1      42.209 -16.852   5.726  1.00  0.00     0.012 A 
HETATM   25  C   UNL     1      43.205 -17.828   5.600  1.00  0.00     0.037 A 
HETATM   26  C   UNL     1      43.818 -18.064   4.372  1.00  0.00     0.068 A 
HETATM   27  C   UNL     1      43.473 -17.275   3.279  1.00  0.00     0.037 A 
HETATM   28  C   UNL     1      42.482 -16.294   3.404  1.00  0.00     0.012 A 
BRANCH  26  29
HETATM   29  O   UNL     1      44.748 -19.067   4.366  1.00  0.00    -0.356 OA
HETATM   30  C   UNL     1      44.321 -20.311   4.909  1.00  0.00     0.210 C 
ENDBRANCH  26  29
ENDBRANCH   1  23
BRANCH   8  31
HETATM   31  C   UNL     1      43.098 -13.556   6.456  1.00  0.00     0.409 C 
HETATM   32  F   UNL     1      43.863 -14.032   5.457  1.00  0.00    -0.169 F 
HETATM   33  F   UNL     1      43.786 -12.551   7.047  1.00  0.00    -0.169 F 
HETATM   34  F   UNL     1      42.998 -14.540   7.389  1.00  0.00    -0.169 F 
ENDBRANCH   8  31
TORSDOF 6
ENDMDL
MODEL 6
REMARK VINA RESULT:      -7.8     16.089     19.040
REMARK  6 active torsions:
REMARK  status: ('A' for Active; 'I' for Inactive)
REMARK    1  A    between atoms: O_2  and  C_3 
REMARK    2  A    between atoms: C_6  and  C_7 
REMARK    3  A    between atoms: C_13  and  C_14 
REMARK       I    between atoms: C_14  and  N_15 
REMARK    4  A    between atoms: N_15  and  C_16 
REMARK    5  A    between atoms: C_18  and  O_19 
REMARK    6  A    between atoms: C_24  and  C_25 
ROOT
HETATM    1  C   UNL     1      46.676 -28.297  -1.980  1.00  0.00     0.118 C 
HETATM    2  N   UNL     1      47.869 -28.914  -1.378  1.00  0.00    -0.365 N 
HETATM    3  C   UNL     1      47.788 -29.584  -0.192  1.00  0.00     0.138 A 
HETATM    4  N   UNL     1      46.616 -29.624   0.527  1.00  0.00    -0.240 N 
HETATM    5  N   UNL     1      46.731 -30.220   1.723  1.00  0.00    -0.181 NA
HETATM    6  C   UNL     1      48.000 -30.635   1.737  1.00  0.00     0.160 A 
HETATM    7  C   UNL     1      48.718 -30.268   0.572  1.00  0.00     0.096 A 
HETATM    8  C   UNL     1      45.406 -28.903   0.178  1.00  0.00     0.221 C 
HETATM    9  C   UNL     1      45.720 -27.823  -0.871  1.00  0.00     0.066 C 
HETATM   10  H   UNL     1      48.720 -28.389  -1.583  1.00  0.00     0.161 HD
ENDROOT
BRANCH   7  11
HETATM   11  C   UNL     1      50.125 -30.548   0.322  1.00  0.00     0.261 C 
HETATM   12  N   UNL     1      50.344 -31.457  -0.695  1.00  0.00    -0.323 N 
HETATM   13  H   UNL     1      49.513 -31.915  -1.052  1.00  0.00     0.169 HD
HETATM   14  O   UNL     1      50.993 -29.993   0.987  1.00  0.00    -0.267 OA
BRANCH  12  15
HETATM   15  C   UNL     1      51.574 -31.815  -1.284  1.00  0.00     0.037 A 
HETATM   16  C   UNL     1      51.965 -31.431  -2.570  1.00  0.00     0.066 A 
HETATM   17  C   UNL     1      53.186 -31.863  -3.085  1.00  0.00     0.067 A 
HETATM   18  C   UNL     1      54.027 -32.683  -2.343  1.00  0.00     0.036 A 
HETATM   19  C   UNL     1      53.649 -33.069  -1.061  1.00  0.00     0.005 A 
HETATM   20  C   UNL     1      52.431 -32.633  -0.531  1.00  0.00     0.029 A 
BRANCH  17  21
HETATM   21  O   UNL     1      53.597 -31.497  -4.334  1.00  0.00    -0.361 OA
HETATM   22  H   UNL     1      53.031 -30.768  -4.642  1.00  0.00     0.217 HD
ENDBRANCH  17  21
ENDBRANCH  12  15
ENDBRANCH   7  11
BRANCH   1  23
HETATM   23  C   UNL     1      46.025 -29.169  -3.042  1.00  0.00    -0.035 A 
HETATM   24  C   UNL     1      46.478 -30.460  -3.354  1.00  0.00     0.012 A 
HETATM   25  C   UNL     1      45.811 -31.248  -4.299  1.00  0.00     0.037 A 
HETATM   26  C   UNL     1      44.678 -30.767  -4.953  1.00  0.00     0.068 A 
HETATM   27  C   UNL     1      44.250 -29.467  -4.701  1.00  0.00     0.037 A 
HETATM   28  C   UNL     1      44.920 -28.676  -3.760  1.00  0.00     0.012 A 
BRANCH  26  29
HETATM   29  O   UNL     1      44.091 -31.642  -5.825  1.00  0.00    -0.356 OA
HETATM   30  C   UNL     1      44.305 -31.376  -7.207  1.00  0.00     0.210 C 
ENDBRANCH  26  29
ENDBRANCH   1  23
BRANCH   8  31
HETATM   31  C   UNL     1      44.309 -29.870  -0.209  1.00  0.00     0.409 C 
HETATM   32  F   UNL     1      44.751 -31.002  -0.786  1.00  0.00    -0.169 F 
HETATM   33  F   UNL     1      43.555 -30.228   0.855  1.00  0.00    -0.169 F 
HETATM   34  F   UNL     1      43.458 -29.277  -1.088  1.00  0.00    -0.169 F 
ENDBRANCH   8  31
TORSDOF 6
ENDMDL
MODEL 7
REMARK VINA RESULT:      -7.6     15.835     17.745
REMARK  6 active torsions:
REMARK  status: ('A' for Active; 'I' for Inactive)
REMARK    1  A    between atoms: O_2  and  C_3 
REMARK    2  A    between atoms: C_6  and  C_7 
REMARK    3  A    between atoms: C_13  and  C_14 
REMARK       I    between atoms: C_14  and  N_15 
REMARK    4  A    between atoms: N_15  and  C_16 
REMARK    5  A    between atoms: C_18  and  O_19 
REMARK    6  A    between atoms: C_24  and  C_25 
ROOT
HETATM    1  C   UNL     1      46.983 -28.240   2.256  1.00  0.00     0.118 C 
HETATM    2  N   UNL     1      45.592 -28.697   2.116  1.00  0.00    -0.365 N 
HETATM    3  C   UNL     1      45.167 -29.311   0.974  1.00  0.00     0.138 A 
HETATM    4  N   UNL     1      45.994 -29.438  -0.118  1.00  0.00    -0.240 N 
HETATM    5  N   UNL     1      45.393 -29.956  -1.199  1.00  0.00    -0.181 NA
HETATM    6  C   UNL     1      44.163 -30.234  -0.760  1.00  0.00     0.160 A 
HETATM    7  C   UNL     1      43.953 -29.854   0.588  1.00  0.00     0.096 A 
HETATM    8  C   UNL     1      47.324 -28.866  -0.220  1.00  0.00     0.221 C 
HETATM    9  C   UNL     1      47.531 -27.814   0.882  1.00  0.00     0.066 C 
HETATM   10  H   UNL     1      44.936 -28.097   2.618  1.00  0.00     0.161 HD
ENDROOT
BRANCH   7  11
HETATM   11  C   UNL     1      42.704 -29.997   1.324  1.00  0.00     0.261 C 
HETATM   12  N   UNL     1      42.652 -31.120   2.127  1.00  0.00    -0.323 N 
HETATM   13  H   UNL     1      43.420 -31.772   2.010  1.00  0.00     0.169 HD
HETATM   14  O   UNL     1      41.817 -29.161   1.203  1.00  0.00    -0.267 OA
BRANCH  12  15
HETATM   15  C   UNL     1      41.666 -31.459   3.075  1.00  0.00     0.037 A 
HETATM   16  C   UNL     1      40.435 -32.036   2.749  1.00  0.00     0.066 A 
HETATM   17  C   UNL     1      39.504 -32.304   3.752  1.00  0.00     0.067 A 
HETATM   18  C   UNL     1      39.772 -31.998   5.080  1.00  0.00     0.036 A 
HETATM   19  C   UNL     1      40.995 -31.425   5.415  1.00  0.00     0.005 A 
HETATM   20  C   UNL     1      41.940 -31.162   4.419  1.00  0.00     0.029 A 
BRANCH  17  21
HETATM   21  O   UNL     1      38.298 -32.874   3.463  1.00  0.00    -0.361 OA
HETATM   22  H   UNL     1      38.349 -33.823   3.672  1.00  0.00     0.217 HD
ENDBRANCH  17  21
ENDBRANCH  12  15
ENDBRANCH   7  11
BRANCH   1  23
HETATM   23  C   UNL     1      47.864 -29.229   3.005  1.00  0.00    -0.035 A 
HETATM   24  C   UNL     1      49.208 -28.972   3.315  1.00  0.00     0.012 A 
HETATM   25  C   UNL     1      49.962 -29.888   4.057  1.00  0.00     0.037 A 
HETATM   26  C   UNL     1      49.394 -31.078   4.507  1.00  0.00     0.068 A 
HETATM   27  C   UNL     1      48.080 -31.377   4.158  1.00  0.00     0.037 A 
HETATM   28  C   UNL     1      47.326 -30.464   3.410  1.00  0.00     0.012 A 
BRANCH  26  29
HETATM   29  O   UNL     1      50.218 -31.874   5.254  1.00  0.00    -0.356 OA
HETATM   30  C   UNL     1      51.480 -31.312   5.596  1.00  0.00     0.210 C 
ENDBRANCH  26  29
ENDBRANCH   1  23
BRANCH   8  31
HETATM   31  C   UNL     1      48.366 -29.961  -0.261  1.00  0.00     0.409 C 
HETATM   32  F   UNL     1      49.550 -29.615   0.276  1.00  0.00    -0.169 F 
HETATM   33  F   UNL     1      47.947 -31.080   0.374  1.00  0.00    -0.169 F 
HETATM   34  F   UNL     1      48.602 -30.328  -1.549  1.00  0.00    -0.169 F 
ENDBRANCH   8  31
TORSDOF 6
ENDMDL
MODEL 8
REMARK VINA RESULT:      -7.6      3.474      7.738
REMARK  6 active torsions:
REMARK  status: ('A' for Active; 'I' for Inactive)
REMARK    1  A    between atoms: O_2  and  C_3 
REMARK    2  A    between atoms: C_6  and  C_7 
REMARK    3  A    between atoms: C_13  and  C_14 
REMARK       I    between atoms: C_14  and  N_15 
REMARK    4  A    between atoms: N_15  and  C_16 
REMARK    5  A    between atoms: C_18  and  O_19 
REMARK    6  A    between atoms: C_24  and  C_25 
ROOT
HETATM    1  C   UNL     1      42.747 -11.449   2.670  1.00  0.00     0.118 C 
HETATM    2  N   UNL     1      42.994 -12.885   2.871  1.00  0.00    -0.365 N 
HETATM    3  C   UNL     1      42.491 -13.537   3.959  1.00  0.00     0.138 A 
HETATM    4  N   UNL     1      41.820 -12.859   4.951  1.00  0.00    -0.240 N 
HETATM    5  N   UNL     1      41.493 -13.620   6.005  1.00  0.00    -0.181 NA
HETATM    6  C   UNL     1      41.906 -14.837   5.644  1.00  0.00     0.160 A 
HETATM    7  C   UNL     1      42.541 -14.856   4.378  1.00  0.00     0.096 A 
HETATM    8  C   UNL     1      41.665 -11.417   5.007  1.00  0.00     0.221 C 
HETATM    9  C   UNL     1      42.646 -10.742   4.033  1.00  0.00     0.066 C 
HETATM   10  H   UNL     1      43.903 -13.176   2.508  1.00  0.00     0.161 HD
ENDROOT
BRANCH   7  11
HETATM   11  C   UNL     1      43.125 -16.029   3.741  1.00  0.00     0.261 C 
HETATM   12  N   UNL     1      43.169 -17.145   4.554  1.00  0.00    -0.323 N 
HETATM   13  H   UNL     1      42.918 -16.985   5.524  1.00  0.00     0.169 HD
HETATM   14  O   UNL     1      43.520 -15.970   2.583  1.00  0.00    -0.267 OA
BRANCH  12  15
HETATM   15  C   UNL     1      43.519 -18.462   4.195  1.00  0.00     0.037 A 
HETATM   16  C   UNL     1      43.381 -18.982   2.905  1.00  0.00     0.066 A 
HETATM   17  C   UNL     1      43.719 -20.310   2.649  1.00  0.00     0.067 A 
HETATM   18  C   UNL     1      44.187 -21.138   3.661  1.00  0.00     0.036 A 
HETATM   19  C   UNL     1      44.331 -20.630   4.948  1.00  0.00     0.005 A 
HETATM   20  C   UNL     1      44.004 -19.297   5.213  1.00  0.00     0.029 A 
BRANCH  17  21
HETATM   21  O   UNL     1      43.601 -20.842   1.397  1.00  0.00    -0.361 OA
HETATM   22  H   UNL     1      44.492 -21.057   1.070  1.00  0.00     0.217 HD
ENDBRANCH  17  21
ENDBRANCH  12  15
ENDBRANCH   7  11
BRANCH   1  23
HETATM   23  C   UNL     1      41.586 -11.169   1.728  1.00  0.00    -0.035 A 
HETATM   24  C   UNL     1      41.209  -9.874   1.344  1.00  0.00     0.012 A 
HETATM   25  C   UNL     1      40.170  -9.669   0.429  1.00  0.00     0.037 A 
HETATM   26  C   UNL     1      39.485 -10.749  -0.123  1.00  0.00     0.068 A 
HETATM   27  C   UNL     1      39.805 -12.038   0.292  1.00  0.00     0.037 A 
HETATM   28  C   UNL     1      40.840 -12.245   1.212  1.00  0.00     0.012 A 
BRANCH  26  29
HETATM   29  O   UNL     1      38.517 -10.425  -1.033  1.00  0.00    -0.356 OA
HETATM   30  C   UNL     1      37.306 -11.167  -0.940  1.00  0.00     0.210 C 
ENDBRANCH  26  29
ENDBRANCH   1  23
BRANCH   8  31
HETATM   31  C   UNL     1      40.214 -11.035   4.820  1.00  0.00     0.409 C 
HETATM   32  F   UNL     1      39.520 -11.879   4.035  1.00  0.00    -0.169 F 
HETATM   33  F   UNL     1      39.559 -10.952   6.000  1.00  0.00    -0.169 F 
HETATM   34  F   UNL     1      40.129  -9.801   4.256  1.00  0.00    -0.169 F 
ENDBRANCH   8  31
TORSDOF 6
ENDMDL
MODEL 9
REMARK VINA RESULT:      -7.5      3.882      6.057
REMARK  6 active torsions:
REMARK  status: ('A' for Active; 'I' for Inactive)
REMARK    1  A    between atoms: O_2  and  C_3 
REMARK    2  A    between atoms: C_6  and  C_7 
REMARK    3  A    between atoms: C_13  and  C_14 
REMARK       I    between atoms: C_14  and  N_15 
REMARK    4  A    between atoms: N_15  and  C_16 
REMARK    5  A    between atoms: C_18  and  O_19 
REMARK    6  A    between atoms: C_24  and  C_25 
ROOT
HETATM    1  C   UNL     1      40.844 -14.928   4.789  1.00  0.00     0.118 C 
HETATM    2  N   UNL     1      40.924 -14.004   3.648  1.00  0.00    -0.365 N 
HETATM    3  C   UNL     1      41.583 -12.814   3.755  1.00  0.00     0.138 A 
HETATM    4  N   UNL     1      42.110 -12.395   4.955  1.00  0.00    -0.240 N 
HETATM    5  N   UNL     1      42.621 -11.156   4.923  1.00  0.00    -0.181 NA
HETATM    6  C   UNL     1      42.478 -10.800   3.644  1.00  0.00     0.160 A 
HETATM    7  C   UNL     1      41.834 -11.788   2.859  1.00  0.00     0.096 A 
HETATM    8  C   UNL     1      41.945 -13.090   6.218  1.00  0.00     0.221 C 
HETATM    9  C   UNL     1      40.818 -14.130   6.105  1.00  0.00     0.066 C 
HETATM   10  H   UNL     1      40.094 -14.048   3.056  1.00  0.00     0.161 HD
ENDROOT
BRANCH   7  11
HETATM   11  C   UNL     1      41.509 -11.667   1.445  1.00  0.00     0.261 C 
HETATM   12  N   UNL     1      41.415 -10.362   1.001  1.00  0.00    -0.323 N 
HETATM   13  H   UNL     1      41.450  -9.655   1.726  1.00  0.00     0.169 HD
HETATM   14  O   UNL     1      41.349 -12.671   0.760  1.00  0.00    -0.267 OA
BRANCH  12  15
HETATM   15  C   UNL     1      41.277  -9.910  -0.327  1.00  0.00     0.037 A 
HETATM   16  C   UNL     1      42.135  -8.985  -0.930  1.00  0.00     0.066 A 
HETATM   17  C   UNL     1      41.899  -8.567  -2.239  1.00  0.00     0.067 A 
HETATM   18  C   UNL     1      40.815  -9.047  -2.961  1.00  0.00     0.036 A 
HETATM   19  C   UNL     1      39.956  -9.970  -2.371  1.00  0.00     0.005 A 
HETATM   20  C   UNL     1      40.189 -10.404  -1.063  1.00  0.00     0.029 A 
BRANCH  17  21
HETATM   21  O   UNL     1      42.724  -7.671  -2.855  1.00  0.00    -0.361 OA
HETATM   22  H   UNL     1      43.128  -8.105  -3.626  1.00  0.00     0.217 HD
ENDBRANCH  17  21
ENDBRANCH  12  15
ENDBRANCH   7  11
BRANCH   1  23
HETATM   23  C   UNL     1      41.893 -16.029   4.741  1.00  0.00    -0.035 A 
HETATM   24  C   UNL     1      42.183 -16.856   5.837  1.00  0.00     0.012 A 
HETATM   25  C   UNL     1      43.117 -17.893   5.727  1.00  0.00     0.037 A 
HETATM   26  C   UNL     1      43.780 -18.129   4.524  1.00  0.00     0.068 A 
HETATM   27  C   UNL     1      43.550 -17.281   3.445  1.00  0.00     0.037 A 
HETATM   28  C   UNL     1      42.621 -16.239   3.555  1.00  0.00     0.012 A 
BRANCH  26  29
HETATM   29  O   UNL     1      44.639 -19.193   4.529  1.00  0.00    -0.356 OA
HETATM   30  C   UNL     1      44.173 -20.363   5.191  1.00  0.00     0.210 C 
ENDBRANCH  26  29
ENDBRANCH   1  23
BRANCH   8  31
HETATM   31  C   UNL     1      43.271 -13.635   6.698  1.00  0.00     0.409 C 
HETATM   32  F   UNL     1      43.165 -14.628   7.600  1.00  0.00    -0.169 F 
HETATM   33  F   UNL     1      44.024 -14.099   5.674  1.00  0.00    -0.169 F 
HETATM   34  F   UNL     1      43.998 -12.642   7.277  1.00  0.00    -0.169 F 
ENDBRANCH   8  31
TORSDOF 6
ENDMDL
MODEL 10
REMARK VINA RESULT:      -7.3      4.566      7.045
REMARK  6 active torsions:
REMARK  status: ('A' for Active; 'I' for Inactive)
REMARK    1  A    between atoms: O_2  and  C_3 
REMARK    2  A    between atoms: C_6  and  C_7 
REMARK    3  A    between atoms: C_13  and  C_14 
REMARK       I    between atoms: C_14  and  N_15 
REMARK    4  A    between atoms: N_15  and  C_16 
REMARK    5  A    between atoms: C_18  and  O_19 
REMARK    6  A    between atoms: C_24  and  C_25 
ROOT
HETATM    1  C   UNL     1      40.349 -14.526   3.413  1.00  0.00     0.118 C 
HETATM    2  N   UNL     1      40.270 -13.689   2.206  1.00  0.00    -0.365 N 
HETATM    3  C   UNL     1      40.951 -12.509   2.126  1.00  0.00     0.138 A 
HETATM    4  N   UNL     1      41.654 -12.017   3.201  1.00  0.00    -0.240 N 
HETATM    5  N   UNL     1      42.168 -10.794   3.001  1.00  0.00    -0.181 NA
HETATM    6  C   UNL     1      41.842 -10.529   1.734  1.00  0.00     0.160 A 
HETATM    7  C   UNL     1      41.078 -11.557   1.128  1.00  0.00     0.096 A 
HETATM    8  C   UNL     1      41.671 -12.614   4.523  1.00  0.00     0.221 C 
HETATM    9  C   UNL     1      40.528 -13.635   4.655  1.00  0.00     0.066 C 
HETATM   10  H   UNL     1      39.360 -13.757   1.748  1.00  0.00     0.161 HD
ENDROOT
BRANCH   7  11
HETATM   11  C   UNL     1      40.548 -11.532  -0.228  1.00  0.00     0.261 C 
HETATM   12  N   UNL     1      40.198 -10.270  -0.670  1.00  0.00    -0.323 N 
HETATM   13  H   UNL     1      40.225  -9.542   0.035  1.00  0.00     0.169 HD
HETATM   14  O   UNL     1      40.448 -12.570  -0.871  1.00  0.00    -0.267 OA
BRANCH  12  15
HETATM   15  C   UNL     1      39.813  -9.887  -1.971  1.00  0.00     0.037 A 
HETATM   16  C   UNL     1      38.535 -10.095  -2.499  1.00  0.00     0.066 A 
HETATM   17  C   UNL     1      38.254  -9.715  -3.811  1.00  0.00     0.067 A 
HETATM   18  C   UNL     1      39.229  -9.137  -4.614  1.00  0.00     0.036 A 
HETATM   19  C   UNL     1      40.503  -8.923  -4.097  1.00  0.00     0.005 A 
HETATM   20  C   UNL     1      40.792  -9.291  -2.779  1.00  0.00     0.029 A 
BRANCH  17  21
HETATM   21  O   UNL     1      37.015  -9.899  -4.351  1.00  0.00    -0.361 OA
HETATM   22  H   UNL     1      36.679 -10.766  -4.062  1.00  0.00     0.217 HD
ENDBRANCH  17  21
ENDBRANCH  12  15
ENDBRANCH   7  11
BRANCH   1  23
HETATM   23  C   UNL     1      41.367 -15.650   3.294  1.00  0.00    -0.035 A 
HETATM   24  C   UNL     1      42.011 -15.973   2.089  1.00  0.00     0.012 A 
HETATM   25  C   UNL     1      42.984 -16.978   2.041  1.00  0.00     0.037 A 
HETATM   26  C   UNL     1      43.336 -17.682   3.191  1.00  0.00     0.068 A 
HETATM   27  C   UNL     1      42.665 -17.417   4.381  1.00  0.00     0.037 A 
HETATM   28  C   UNL     1      41.688 -16.417   4.429  1.00  0.00     0.012 A 
BRANCH  26  29
HETATM   29  O   UNL     1      44.325 -18.613   3.026  1.00  0.00    -0.356 OA
HETATM   30  C   UNL     1      43.895 -19.910   2.628  1.00  0.00     0.210 C 
ENDBRANCH  26  29
ENDBRANCH   1  23
BRANCH   8  31
HETATM   31  C   UNL     1      43.047 -13.152   4.841  1.00  0.00     0.409 C 
HETATM   32  F   UNL     1      43.908 -12.226   5.301  1.00  0.00    -0.169 F 
HETATM   33  F   UNL     1      43.000 -14.147   5.756  1.00  0.00    -0.169 F 
HETATM   34  F   UNL     1      43.602 -13.696   3.725  1.00  0.00    -0.169 F 
ENDBRANCH   8  31
TORSDOF 6
ENDMDL
