MODEL 1
REMARK VINA RESULT:      -8.2      0.000      0.000
REMARK  11 active torsions:
REMARK  status: ('A' for Active; 'I' for Inactive)
REMARK    1  A    between atoms: O_2  and  C_3 
REMARK    2  A    between atoms: C_6  and  C_7 
REMARK    3  A    between atoms: C_7  and  N_8 
REMARK    4  A    between atoms: C_7  and  C_29 
REMARK       I    between atoms: N_8  and  C_9 
REMARK    5  A    between atoms: N_8  and  C_20 
REMARK    6  A    between atoms: C_9  and  C_10 
REMARK    7  A    between atoms: C_13  and  C_14 
REMARK       I    between atoms: C_14  and  N_15 
REMARK    8  A    between atoms: C_17  and  N_18 
REMARK    9  A    between atoms: C_20  and  C_21 
REMARK   10  A    between atoms: C_21  and  N_22 
REMARK       I    between atoms: C_29  and  N_30 
REMARK   11  A    between atoms: N_30  and  C_31 
ROOT
HETATM    1  N   UNL     1      42.095 -13.408   3.956  1.00  0.00    -0.328 N 
HETATM    2  C   UNL     1      43.079 -12.398   4.137  1.00  0.00     0.265 C 
HETATM    3  O   UNL     1      43.948 -12.238   3.277  1.00  0.00    -0.267 OA
ENDROOT
BRANCH   1   4
HETATM    4  C   UNL     1      42.255 -14.272   2.758  1.00  0.00     0.213 C 
BRANCH   4   5
HETATM    5  C   UNL     1      42.697 -15.710   3.016  1.00  0.00    -0.026 A 
HETATM    6  C   UNL     1      42.488 -16.703   2.044  1.00  0.00     0.012 A 
HETATM    7  C   UNL     1      42.957 -18.010   2.226  1.00  0.00     0.037 A 
HETATM    8  C   UNL     1      43.659 -18.349   3.379  1.00  0.00     0.068 A 
HETATM    9  C   UNL     1      43.891 -17.369   4.344  1.00  0.00     0.037 A 
HETATM   10  C   UNL     1      43.425 -16.064   4.165  1.00  0.00     0.012 A 
BRANCH   8  11
HETATM   11  O   UNL     1      44.175 -19.577   3.679  1.00  0.00    -0.356 OA
HETATM   12  C   UNL     1      44.189 -19.953   5.052  1.00  0.00     0.210 C 
ENDBRANCH   8  11
ENDBRANCH   4   5
BRANCH   4  13
HETATM   13  C   UNL     1      41.123 -14.066   1.725  1.00  0.00     0.245 C 
HETATM   14  N   UNL     1      41.462 -13.411   0.568  1.00  0.00    -0.354 N 
HETATM   15  H   UNL     1      42.390 -12.984   0.523  1.00  0.00     0.162 HD
HETATM   16  O   UNL     1      39.999 -14.519   1.948  1.00  0.00    -0.271 OA
BRANCH  14  17
HETATM   17  C   UNL     1      40.491 -13.059  -0.444  1.00  0.00     0.084 C 
HETATM   18  C   UNL     1      41.054 -12.061  -1.453  1.00  0.00     0.025 C 
HETATM   19  C   UNL     1      40.157 -12.260  -2.662  1.00  0.00     0.002 C 
HETATM   20  C   UNL     1      39.980 -13.770  -2.730  1.00  0.00     0.002 C 
HETATM   21  C   UNL     1      40.048 -14.262  -1.284  1.00  0.00     0.025 C 
ENDBRANCH  14  17
ENDBRANCH   4  13
ENDBRANCH   1   4
BRANCH   1  22
HETATM   22  C   UNL     1      41.326 -13.988   5.082  1.00  0.00     0.155 C 
BRANCH  22  23
HETATM   23  C   UNL     1      39.854 -13.516   5.171  1.00  0.00     0.255 C 
BRANCH  23  24
HETATM   24  N   UNL     1      39.686 -12.018   5.002  1.00  0.00    -0.066 N 
HETATM   25  H   UNL     1      40.616 -11.584   5.055  1.00  0.00     0.280 HD
HETATM   26  C   UNL     1      39.034 -11.622   3.672  1.00  0.00     0.261 C 
HETATM   27  C   UNL     1      38.938 -10.094   3.588  1.00  0.00     0.195 C 
HETATM   28  O   UNL     1      38.186  -9.572   4.688  1.00  0.00    -0.388 OA
HETATM   29  C   UNL     1      38.795  -9.879   5.946  1.00  0.00     0.195 C 
HETATM   30  C   UNL     1      38.888 -11.396   6.152  1.00  0.00     0.261 C 
ENDBRANCH  23  24
ENDBRANCH  22  23
ENDBRANCH   1  22
BRANCH   2  31
HETATM   31  C   UNL     1      43.086 -11.592   5.334  1.00  0.00     0.120 A 
HETATM   32  S   UNL     1      42.458 -10.012   5.375  1.00  0.00     0.020 SA
HETATM   33  N   UNL     1      42.800  -9.709   6.961  1.00  0.00    -0.203 NA
HETATM   34  C   UNL     1      43.527 -10.726   7.456  1.00  0.00     0.160 A 
HETATM   35  C   UNL     1      43.721 -11.828   6.539  1.00  0.00     0.085 A 
BRANCH  34  36
HETATM   36  C   UNL     1      44.072 -10.654   8.823  1.00  0.00     0.271 C 
HETATM   37  N   UNL     1      43.172 -10.320   9.798  1.00  0.00    -0.365 N 
HETATM   38  H   UNL     1      42.220 -10.079   9.552  1.00  0.00     0.159 HD
HETATM   39  H   UNL     1      43.502 -10.191  10.743  1.00  0.00     0.159 HD
HETATM   40  O   UNL     1      45.252 -10.860   9.095  1.00  0.00    -0.266 OA
ENDBRANCH  34  36
BRANCH  35  41
HETATM   41  N   UNL     1      44.423 -12.956   6.816  1.00  0.00    -0.396 N 
HETATM   42  H   UNL     1      45.052 -12.954   7.629  1.00  0.00     0.156 HD
HETATM   43  H   UNL     1      44.798 -13.534   6.062  1.00  0.00     0.156 HD
ENDBRANCH  35  41
ENDBRANCH   2  31
TORSDOF 11
ENDMDL
MODEL 2
REMARK VINA RESULT:      -8.1      1.841      3.328
REMARK  11 active torsions:
REMARK  status: ('A' for Active; 'I' for Inactive)
REMARK    1  A    between atoms: O_2  and  C_3 
REMARK    2  A    between atoms: C_6  and  C_7 
REMARK    3  A    between atoms: C_7  and  N_8 
REMARK    4  A    between atoms: C_7  and  C_29 
REMARK       I    between atoms: N_8  and  C_9 
REMARK    5  A    between atoms: N_8  and  C_20 
REMARK    6  A    between atoms: C_9  and  C_10 
REMARK    7  A    between atoms: C_13  and  C_14 
REMARK       I    between atoms: C_14  and  N_15 
REMARK    8  A    between atoms: C_17  and  N_18 
REMARK    9  A    between atoms: C_20  and  C_21 
REMARK   10  A    between atoms: C_21  and  N_22 
REMARK       I    between atoms: C_29  and  N_30 
REMARK   11  A    between atoms: N_30  and  C_31 
ROOT
HETATM    1  N   UNL     1      41.967 -12.377   3.854  1.00  0.00    -0.328 N 
HETATM    2  C   UNL     1      43.036 -11.515   4.221  1.00  0.00     0.265 C 
HETATM    3  O   UNL     1      43.933 -11.281   3.408  1.00  0.00    -0.267 OA
ENDROOT
BRANCH   1   4
HETATM    4  C   UNL     1      42.072 -13.018   2.517  1.00  0.00     0.213 C 
BRANCH   4   5
HETATM    5  C   UNL     1      42.218 -14.537   2.505  1.00  0.00    -0.026 A 
HETATM    6  C   UNL     1      41.081 -15.361   2.577  1.00  0.00     0.012 A 
HETATM    7  C   UNL     1      41.186 -16.754   2.487  1.00  0.00     0.037 A 
HETATM    8  C   UNL     1      42.429 -17.355   2.309  1.00  0.00     0.068 A 
HETATM    9  C   UNL     1      43.563 -16.549   2.215  1.00  0.00     0.037 A 
HETATM   10  C   UNL     1      43.463 -15.158   2.305  1.00  0.00     0.012 A 
BRANCH   8  11
HETATM   11  O   UNL     1      42.671 -18.694   2.199  1.00  0.00    -0.356 OA
HETATM   12  C   UNL     1      43.848 -19.190   2.827  1.00  0.00     0.210 C 
ENDBRANCH   8  11
ENDBRANCH   4   5
BRANCH   4  13
HETATM   13  C   UNL     1      41.094 -12.404   1.489  1.00  0.00     0.245 C 
HETATM   14  N   UNL     1      41.211 -12.843   0.194  1.00  0.00    -0.354 N 
HETATM   15  H   UNL     1      42.015 -13.433  -0.032  1.00  0.00     0.162 HD
HETATM   16  O   UNL     1      40.240 -11.597   1.861  1.00  0.00    -0.271 OA
BRANCH  14  17
HETATM   17  C   UNL     1      40.435 -12.289  -0.892  1.00  0.00     0.084 C 
HETATM   18  C   UNL     1      41.320 -11.807  -2.039  1.00  0.00     0.025 C 
HETATM   19  C   UNL     1      40.370 -11.808  -3.224  1.00  0.00     0.002 C 
HETATM   20  C   UNL     1      39.570 -13.090  -3.038  1.00  0.00     0.002 C 
HETATM   21  C   UNL     1      39.490 -13.314  -1.528  1.00  0.00     0.025 C 
ENDBRANCH  14  17
ENDBRANCH   4  13
ENDBRANCH   1   4
BRANCH   1  22
HETATM   22  C   UNL     1      41.126 -13.079   4.850  1.00  0.00     0.155 C 
BRANCH  22  23
HETATM   23  C   UNL     1      41.890 -13.588   6.098  1.00  0.00     0.255 C 
BRANCH  23  24
HETATM   24  N   UNL     1      42.634 -14.889   5.864  1.00  0.00    -0.066 N 
HETATM   25  H   UNL     1      42.818 -14.976   4.857  1.00  0.00     0.280 HD
HETATM   26  C   UNL     1      43.967 -14.975   6.617  1.00  0.00     0.261 C 
HETATM   27  C   UNL     1      44.649 -16.309   6.290  1.00  0.00     0.195 C 
HETATM   28  O   UNL     1      43.805 -17.409   6.642  1.00  0.00    -0.388 OA
HETATM   29  C   UNL     1      42.571 -17.390   5.919  1.00  0.00     0.195 C 
HETATM   30  C   UNL     1      41.781 -16.110   6.221  1.00  0.00     0.261 C 
ENDBRANCH  23  24
ENDBRANCH  22  23
ENDBRANCH   1  22
BRANCH   2  31
HETATM   31  C   UNL     1      43.093 -10.946   5.546  1.00  0.00     0.120 A 
HETATM   32  S   UNL     1      41.916  -9.864   6.126  1.00  0.00     0.020 SA
HETATM   33  N   UNL     1      42.591  -9.624   7.614  1.00  0.00    -0.203 NA
HETATM   34  C   UNL     1      43.790 -10.231   7.655  1.00  0.00     0.160 A 
HETATM   35  C   UNL     1      44.117 -10.996   6.471  1.00  0.00     0.085 A 
BRANCH  34  36
HETATM   36  C   UNL     1      44.664 -10.072   8.831  1.00  0.00     0.271 C 
HETATM   37  N   UNL     1      44.495  -8.911   9.535  1.00  0.00    -0.365 N 
HETATM   38  H   UNL     1      43.853  -8.202   9.204  1.00  0.00     0.159 HD
HETATM   39  H   UNL     1      45.110  -8.717  10.312  1.00  0.00     0.159 HD
HETATM   40  O   UNL     1      45.504 -10.901   9.170  1.00  0.00    -0.266 OA
ENDBRANCH  34  36
BRANCH  35  41
HETATM   41  N   UNL     1      45.271 -11.686   6.286  1.00  0.00    -0.396 N 
HETATM   42  H   UNL     1      45.223 -12.709   6.204  1.00  0.00     0.156 HD
HETATM   43  H   UNL     1      46.132 -11.395   6.753  1.00  0.00     0.156 HD
ENDBRANCH  35  41
ENDBRANCH   2  31
TORSDOF 11
ENDMDL
MODEL 3
REMARK VINA RESULT:      -7.9      1.960      6.025
REMARK  11 active torsions:
REMARK  status: ('A' for Active; 'I' for Inactive)
REMARK    1  A    between atoms: O_2  and  C_3 
REMARK    2  A    between atoms: C_6  and  C_7 
REMARK    3  A    between atoms: C_7  and  N_8 
REMARK    4  A    between atoms: C_7  and  C_29 
REMARK       I    between atoms: N_8  and  C_9 
REMARK    5  A    between atoms: N_8  and  C_20 
REMARK    6  A    between atoms: C_9  and  C_10 
REMARK    7  A    between atoms: C_13  and  C_14 
REMARK       I    between atoms: C_14  and  N_15 
REMARK    8  A    between atoms: C_17  and  N_18 
REMARK    9  A    between atoms: C_20  and  C_21 
REMARK   10  A    between atoms: C_21  and  N_22 
REMARK       I    between atoms: C_29  and  N_30 
REMARK   11  A    between atoms: N_30  and  C_31 
ROOT
HETATM    1  N   UNL     1      41.026 -13.439   3.268  1.00  0.00    -0.328 N 
HETATM    2  C   UNL     1      39.708 -12.960   3.500  1.00  0.00     0.265 C 
HETATM    3  O   UNL     1      38.776 -13.394   2.819  1.00  0.00    -0.267 OA
ENDROOT
BRANCH   1   4
HETATM    4  C   UNL     1      41.190 -14.380   2.130  1.00  0.00     0.213 C 
BRANCH   4   5
HETATM    5  C   UNL     1      40.895 -13.819   0.741  1.00  0.00    -0.026 A 
HETATM    6  C   UNL     1      40.153 -14.571  -0.186  1.00  0.00     0.012 A 
HETATM    7  C   UNL     1      39.802 -14.045  -1.436  1.00  0.00     0.037 A 
HETATM    8  C   UNL     1      40.173 -12.748  -1.780  1.00  0.00     0.068 A 
HETATM    9  C   UNL     1      40.892 -11.983  -0.862  1.00  0.00     0.037 A 
HETATM   10  C   UNL     1      41.244 -12.505   0.385  1.00  0.00     0.012 A 
BRANCH   8  11
HETATM   11  O   UNL     1      39.892 -12.112  -2.955  1.00  0.00    -0.356 OA
HETATM   12  C   UNL     1      40.214 -10.728  -3.032  1.00  0.00     0.210 C 
ENDBRANCH   8  11
ENDBRANCH   4   5
BRANCH   4  13
HETATM   13  C   UNL     1      42.451 -15.264   2.271  1.00  0.00     0.245 C 
HETATM   14  N   UNL     1      42.343 -16.357   3.092  1.00  0.00    -0.354 N 
HETATM   15  H   UNL     1      41.496 -16.439   3.659  1.00  0.00     0.162 HD
HETATM   16  O   UNL     1      43.466 -14.990   1.628  1.00  0.00    -0.271 OA
BRANCH  14  17
HETATM   17  C   UNL     1      43.464 -17.218   3.399  1.00  0.00     0.084 C 
HETATM   18  C   UNL     1      43.408 -17.739   4.833  1.00  0.00     0.025 C 
HETATM   19  C   UNL     1      44.274 -18.985   4.773  1.00  0.00     0.002 C 
HETATM   20  C   UNL     1      43.882 -19.629   3.451  1.00  0.00     0.002 C 
HETATM   21  C   UNL     1      43.502 -18.475   2.523  1.00  0.00     0.025 C 
ENDBRANCH  14  17
ENDBRANCH   4  13
ENDBRANCH   1   4
BRANCH   1  22
HETATM   22  C   UNL     1      42.235 -12.685   3.671  1.00  0.00     0.155 C 
BRANCH  22  23
HETATM   23  C   UNL     1      42.981 -13.266   4.897  1.00  0.00     0.255 C 
BRANCH  23  24
HETATM   24  N   UNL     1      43.141 -12.276   6.035  1.00  0.00    -0.066 N 
HETATM   25  H   UNL     1      42.400 -12.458   6.723  1.00  0.00     0.280 HD
HETATM   26  C   UNL     1      44.500 -12.367   6.738  1.00  0.00     0.261 C 
HETATM   27  C   UNL     1      44.547 -11.350   7.885  1.00  0.00     0.195 C 
HETATM   28  O   UNL     1      44.326 -10.024   7.396  1.00  0.00    -0.388 OA
HETATM   29  C   UNL     1      43.042  -9.889   6.778  1.00  0.00     0.195 C 
HETATM   30  C   UNL     1      42.914 -10.832   5.575  1.00  0.00     0.261 C 
ENDBRANCH  23  24
ENDBRANCH  22  23
ENDBRANCH   1  22
BRANCH   2  31
HETATM   31  C   UNL     1      39.465 -11.945   4.497  1.00  0.00     0.120 A 
HETATM   32  S   UNL     1      39.319 -10.296   4.105  1.00  0.00     0.020 SA
HETATM   33  N   UNL     1      39.084  -9.751   5.645  1.00  0.00    -0.203 NA
HETATM   34  C   UNL     1      39.260 -10.771   6.503  1.00  0.00     0.160 A 
HETATM   35  C   UNL     1      39.492 -12.053   5.874  1.00  0.00     0.085 A 
BRANCH  34  36
HETATM   36  C   UNL     1      39.228 -10.534   7.957  1.00  0.00     0.271 C 
HETATM   37  N   UNL     1      40.156  -9.643   8.427  1.00  0.00    -0.365 N 
HETATM   38  H   UNL     1      40.844  -9.246   7.800  1.00  0.00     0.159 HD
HETATM   39  H   UNL     1      40.225  -9.490   9.422  1.00  0.00     0.159 HD
HETATM   40  O   UNL     1      38.446 -11.093   8.721  1.00  0.00    -0.266 OA
ENDBRANCH  34  36
BRANCH  35  41
HETATM   41  N   UNL     1      39.701 -13.218   6.537  1.00  0.00    -0.396 N 
HETATM   42  H   UNL     1      40.660 -13.583   6.597  1.00  0.00     0.156 HD
HETATM   43  H   UNL     1      39.021 -13.978   6.481  1.00  0.00     0.156 HD
ENDBRANCH  35  41
ENDBRANCH   2  31
TORSDOF 11
ENDMDL
MODEL 4
REMARK VINA RESULT:      -7.9      1.983      3.928
REMARK  11 active torsions:
REMARK  status: ('A' for Active; 'I' for Inactive)
REMARK    1  A    between atoms: O_2  and  C_3 
REMARK    2  A    between atoms: C_6  and  C_7 
REMARK    3  A    between atoms: C_7  and  N_8 
REMARK    4  A    between atoms: C_7  and  C_29 
REMARK       I    between atoms: N_8  and  C_9 
REMARK    5  A    between atoms: N_8  and  C_20 
REMARK    6  A    between atoms: C_9  and  C_10 
REMARK    7  A    between atoms: C_13  and  C_14 
REMARK       I    between atoms: C_14  and  N_15 
REMARK    8  A    between atoms: C_17  and  N_18 
REMARK    9  A    between atoms: C_20  and  C_21 
REMARK   10  A    between atoms: C_21  and  N_22 
REMARK       I    between atoms: C_29  and  N_30 
REMARK   11  A    between atoms: N_30  and  C_31 
ROOT
HETATM    1  N   UNL     1      41.399 -12.167   3.090  1.00  0.00    -0.328 N 
HETATM    2  C   UNL     1      40.009 -12.194   3.385  1.00  0.00     0.265 C 
HETATM    3  O   UNL     1      39.247 -12.838   2.660  1.00  0.00    -0.267 OA
ENDROOT
BRANCH   1   4
HETATM    4  C   UNL     1      41.817 -12.859   1.844  1.00  0.00     0.213 C 
BRANCH   4   5
HETATM    5  C   UNL     1      42.063 -14.362   1.954  1.00  0.00    -0.026 A 
HETATM    6  C   UNL     1      43.309 -14.907   1.601  1.00  0.00     0.012 A 
HETATM    7  C   UNL     1      43.582 -16.270   1.769  1.00  0.00     0.037 A 
HETATM    8  C   UNL     1      42.619 -17.116   2.311  1.00  0.00     0.068 A 
HETATM    9  C   UNL     1      41.384 -16.586   2.686  1.00  0.00     0.037 A 
HETATM   10  C   UNL     1      41.109 -15.226   2.518  1.00  0.00     0.012 A 
BRANCH   8  11
HETATM   11  O   UNL     1      42.755 -18.456   2.535  1.00  0.00    -0.356 OA
HETATM   12  C   UNL     1      44.052 -18.922   2.891  1.00  0.00     0.210 C 
ENDBRANCH   8  11
ENDBRANCH   4   5
BRANCH   4  13
HETATM   13  C   UNL     1      41.033 -12.370   0.604  1.00  0.00     0.245 C 
HETATM   14  N   UNL     1      40.461 -13.340  -0.180  1.00  0.00    -0.354 N 
HETATM   15  H   UNL     1      40.704 -14.313   0.022  1.00  0.00     0.162 HD
HETATM   16  O   UNL     1      40.914 -11.163   0.391  1.00  0.00    -0.271 OA
BRANCH  14  17
HETATM   17  C   UNL     1      39.783 -13.042  -1.422  1.00  0.00     0.084 C 
HETATM   18  C   UNL     1      39.607 -14.285  -2.290  1.00  0.00     0.025 C 
HETATM   19  C   UNL     1      38.451 -13.903  -3.197  1.00  0.00     0.002 C 
HETATM   20  C   UNL     1      37.489 -13.181  -2.264  1.00  0.00     0.002 C 
HETATM   21  C   UNL     1      38.364 -12.506  -1.207  1.00  0.00     0.025 C 
ENDBRANCH  14  17
ENDBRANCH   4  13
ENDBRANCH   1   4
BRANCH   1  22
HETATM   22  C   UNL     1      42.301 -11.098   3.578  1.00  0.00     0.155 C 
BRANCH  22  23
HETATM   23  C   UNL     1      43.697 -11.589   4.036  1.00  0.00     0.255 C 
BRANCH  23  24
HETATM   24  N   UNL     1      43.915 -11.482   5.533  1.00  0.00    -0.066 N 
HETATM   25  H   UNL     1      43.577 -12.349   5.969  1.00  0.00     0.280 HD
HETATM   26  C   UNL     1      45.383 -11.275   5.923  1.00  0.00     0.261 C 
HETATM   27  C   UNL     1      45.498 -11.210   7.451  1.00  0.00     0.195 C 
HETATM   28  O   UNL     1      44.689 -10.153   7.975  1.00  0.00    -0.388 OA
HETATM   29  C   UNL     1      43.303 -10.341   7.674  1.00  0.00     0.195 C 
HETATM   30  C   UNL     1      43.072 -10.365   6.157  1.00  0.00     0.261 C 
ENDBRANCH  23  24
ENDBRANCH  22  23
ENDBRANCH   1  22
BRANCH   2  31
HETATM   31  C   UNL     1      39.485 -11.444   4.501  1.00  0.00     0.120 A 
HETATM   32  S   UNL     1      38.674  -9.962   4.304  1.00  0.00     0.020 SA
HETATM   33  N   UNL     1      38.390  -9.682   5.906  1.00  0.00    -0.203 NA
HETATM   34  C   UNL     1      39.027 -10.615   6.634  1.00  0.00     0.160 A 
HETATM   35  C   UNL     1      39.680 -11.644   5.854  1.00  0.00     0.085 A 
BRANCH  34  36
HETATM   36  C   UNL     1      39.041 -10.529   8.105  1.00  0.00     0.271 C 
HETATM   37  N   UNL     1      39.982  -9.688   8.635  1.00  0.00    -0.365 N 
HETATM   38  H   UNL     1      40.651  -9.226   8.032  1.00  0.00     0.159 HD
HETATM   39  H   UNL     1      40.083  -9.638   9.638  1.00  0.00     0.159 HD
HETATM   40  O   UNL     1      38.283 -11.167   8.831  1.00  0.00    -0.266 OA
ENDBRANCH  34  36
BRANCH  35  41
HETATM   41  N   UNL     1      40.385 -12.682   6.371  1.00  0.00    -0.396 N 
HETATM   42  H   UNL     1      40.383 -12.817   7.390  1.00  0.00     0.156 HD
HETATM   43  H   UNL     1      41.283 -12.953   5.967  1.00  0.00     0.156 HD
ENDBRANCH  35  41
ENDBRANCH   2  31
TORSDOF 11
ENDMDL
MODEL 5
REMARK VINA RESULT:      -7.8      1.752      4.743
REMARK  11 active torsions:
REMARK  status: ('A' for Active; 'I' for Inactive)
REMARK    1  A    between atoms: O_2  and  C_3 
REMARK    2  A    between atoms: C_6  and  C_7 
REMARK    3  A    between atoms: C_7  and  N_8 
REMARK    4  A    between atoms: C_7  and  C_29 
REMARK       I    between atoms: N_8  and  C_9 
REMARK    5  A    between atoms: N_8  and  C_20 
REMARK    6  A    between atoms: C_9  and  C_10 
REMARK    7  A    between atoms: C_13  and  C_14 
REMARK       I    between atoms: C_14  and  N_15 
REMARK    8  A    between atoms: C_17  and  N_18 
REMARK    9  A    between atoms: C_20  and  C_21 
REMARK   10  A    between atoms: C_21  and  N_22 
REMARK       I    between atoms: C_29  and  N_30 
REMARK   11  A    between atoms: N_30  and  C_31 
ROOT
HETATM    1  N   UNL     1      40.733 -13.263   4.261  1.00  0.00    -0.328 N 
HETATM    2  C   UNL     1      42.123 -13.135   4.525  1.00  0.00     0.265 C 
HETATM    3  O   UNL     1      42.920 -13.889   3.963  1.00  0.00    -0.267 OA
ENDROOT
BRANCH   1   4
HETATM    4  C   UNL     1      40.335 -14.388   3.377  1.00  0.00     0.213 C 
BRANCH   4   5
HETATM    5  C   UNL     1      40.418 -14.130   1.874  1.00  0.00    -0.026 A 
HETATM    6  C   UNL     1      39.920 -15.076   0.962  1.00  0.00     0.012 A 
HETATM    7  C   UNL     1      39.914 -14.825  -0.415  1.00  0.00     0.037 A 
HETATM    8  C   UNL     1      40.392 -13.615  -0.911  1.00  0.00     0.068 A 
HETATM    9  C   UNL     1      40.870 -12.659  -0.015  1.00  0.00     0.037 A 
HETATM   10  C   UNL     1      40.878 -12.906   1.360  1.00  0.00     0.012 A 
BRANCH   8  11
HETATM   11  O   UNL     1      40.436 -13.240  -2.223  1.00  0.00    -0.356 OA
HETATM   12  C   UNL     1      39.198 -13.191  -2.921  1.00  0.00     0.210 C 
ENDBRANCH   8  11
ENDBRANCH   4   5
BRANCH   4  13
HETATM   13  C   UNL     1      40.864 -15.751   3.880  1.00  0.00     0.245 C 
HETATM   14  N   UNL     1      41.862 -16.332   3.140  1.00  0.00    -0.354 N 
HETATM   15  H   UNL     1      42.090 -15.904   2.239  1.00  0.00     0.162 HD
HETATM   16  O   UNL     1      40.417 -16.235   4.921  1.00  0.00    -0.271 OA
BRANCH  14  17
HETATM   17  C   UNL     1      42.385 -17.648   3.430  1.00  0.00     0.084 C 
HETATM   18  C   UNL     1      42.972 -18.317   2.189  1.00  0.00     0.025 C 
HETATM   19  C   UNL     1      43.919 -19.348   2.776  1.00  0.00     0.002 C 
HETATM   20  C   UNL     1      44.581 -18.609   3.929  1.00  0.00     0.002 C 
HETATM   21  C   UNL     1      43.536 -17.617   4.442  1.00  0.00     0.025 C 
ENDBRANCH  14  17
ENDBRANCH   4  13
ENDBRANCH   1   4
BRANCH   1  22
HETATM   22  C   UNL     1      39.692 -12.761   5.188  1.00  0.00     0.155 C 
BRANCH  22  23
HETATM   23  C   UNL     1      38.975 -11.471   4.718  1.00  0.00     0.255 C 
BRANCH  23  24
HETATM   24  N   UNL     1      39.280 -10.261   5.581  1.00  0.00    -0.066 N 
HETATM   25  H   UNL     1      40.250  -9.974   5.400  1.00  0.00     0.280 HD
HETATM   26  C   UNL     1      38.356  -9.068   5.310  1.00  0.00     0.261 C 
HETATM   27  C   UNL     1      38.765  -7.894   6.208  1.00  0.00     0.195 C 
HETATM   28  O   UNL     1      38.707  -8.267   7.588  1.00  0.00    -0.388 OA
HETATM   29  C   UNL     1      39.597  -9.346   7.889  1.00  0.00     0.195 C 
HETATM   30  C   UNL     1      39.235 -10.596   7.076  1.00  0.00     0.261 C 
ENDBRANCH  23  24
ENDBRANCH  22  23
ENDBRANCH   1  22
BRANCH   2  31
HETATM   31  C   UNL     1      42.599 -12.155   5.473  1.00  0.00     0.120 A 
HETATM   32  S   UNL     1      42.752 -10.507   5.083  1.00  0.00     0.020 SA
HETATM   33  N   UNL     1      43.334 -10.015   6.547  1.00  0.00    -0.203 NA
HETATM   34  C   UNL     1      43.570 -11.096   7.311  1.00  0.00     0.160 A 
HETATM   35  C   UNL     1      43.166 -12.352   6.717  1.00  0.00     0.085 A 
BRANCH  34  36
HETATM   36  C   UNL     1      44.210 -10.949   8.630  1.00  0.00     0.271 C 
HETATM   37  N   UNL     1      43.357 -10.718   9.675  1.00  0.00    -0.365 N 
HETATM   38  H   UNL     1      42.366 -10.596   9.508  1.00  0.00     0.159 HD
HETATM   39  H   UNL     1      43.743 -10.544  10.591  1.00  0.00     0.159 HD
HETATM   40  O   UNL     1      45.424 -11.009   8.807  1.00  0.00    -0.266 OA
ENDBRANCH  34  36
BRANCH  35  41
HETATM   41  N   UNL     1      43.310 -13.569   7.299  1.00  0.00    -0.396 N 
HETATM   42  H   UNL     1      42.641 -13.846   8.029  1.00  0.00     0.156 HD
HETATM   43  H   UNL     1      44.239 -13.948   7.490  1.00  0.00     0.156 HD
ENDBRANCH  35  41
ENDBRANCH   2  31
TORSDOF 11
ENDMDL
MODEL 6
REMARK VINA RESULT:      -7.7      2.403      6.978
REMARK  11 active torsions:
REMARK  status: ('A' for Active; 'I' for Inactive)
REMARK    1  A    between atoms: O_2  and  C_3 
REMARK    2  A    between atoms: C_6  and  C_7 
REMARK    3  A    between atoms: C_7  and  N_8 
REMARK    4  A    between atoms: C_7  and  C_29 
REMARK       I    between atoms: N_8  and  C_9 
REMARK    5  A    between atoms: N_8  and  C_20 
REMARK    6  A    between atoms: C_9  and  C_10 
REMARK    7  A    between atoms: C_13  and  C_14 
REMARK       I    between atoms: C_14  and  N_15 
REMARK    8  A    between atoms: C_17  and  N_18 
REMARK    9  A    between atoms: C_20  and  C_21 
REMARK   10  A    between atoms: C_21  and  N_22 
REMARK       I    between atoms: C_29  and  N_30 
REMARK   11  A    between atoms: N_30  and  C_31 
ROOT
HETATM    1  N   UNL     1      41.657 -13.468   2.961  1.00  0.00    -0.328 N 
HETATM    2  C   UNL     1      41.815 -13.688   1.566  1.00  0.00     0.265 C 
HETATM    3  O   UNL     1      42.724 -14.420   1.166  1.00  0.00    -0.267 OA
ENDROOT
BRANCH   1   4
HETATM    4  C   UNL     1      42.686 -14.079   3.841  1.00  0.00     0.213 C 
BRANCH   4   5
HETATM    5  C   UNL     1      43.201 -13.209   4.985  1.00  0.00    -0.026 A 
HETATM    6  C   UNL     1      43.086 -13.644   6.317  1.00  0.00     0.012 A 
HETATM    7  C   UNL     1      43.622 -12.899   7.374  1.00  0.00     0.037 A 
HETATM    8  C   UNL     1      44.299 -11.710   7.123  1.00  0.00     0.068 A 
HETATM    9  C   UNL     1      44.439 -11.276   5.805  1.00  0.00     0.037 A 
HETATM   10  C   UNL     1      43.905 -12.016   4.747  1.00  0.00     0.012 A 
BRANCH   8  11
HETATM   11  O   UNL     1      44.874 -10.894   8.055  1.00  0.00    -0.356 OA
HETATM   12  C   UNL     1      46.167 -10.382   7.754  1.00  0.00     0.210 C 
ENDBRANCH   8  11
ENDBRANCH   4   5
BRANCH   4  13
HETATM   13  C   UNL     1      42.377 -15.557   4.175  1.00  0.00     0.245 C 
HETATM   14  N   UNL     1      43.299 -16.484   3.761  1.00  0.00    -0.354 N 
HETATM   15  H   UNL     1      44.049 -16.160   3.145  1.00  0.00     0.162 HD
HETATM   16  O   UNL     1      41.366 -15.841   4.819  1.00  0.00    -0.271 OA
BRANCH  14  17
HETATM   17  C   UNL     1      43.098 -17.908   3.912  1.00  0.00     0.084 C 
HETATM   18  C   UNL     1      43.607 -18.689   2.703  1.00  0.00     0.025 C 
HETATM   19  C   UNL     1      43.827 -20.081   3.268  1.00  0.00     0.002 C 
HETATM   20  C   UNL     1      44.449 -19.819   4.632  1.00  0.00     0.002 C 
HETATM   21  C   UNL     1      43.863 -18.489   5.107  1.00  0.00     0.025 C 
ENDBRANCH  14  17
ENDBRANCH   4  13
ENDBRANCH   1   4
BRANCH   1  22
HETATM   22  C   UNL     1      40.943 -12.293   3.510  1.00  0.00     0.155 C 
BRANCH  22  23
HETATM   23  C   UNL     1      39.617 -12.625   4.240  1.00  0.00     0.255 C 
BRANCH  23  24
HETATM   24  N   UNL     1      39.146 -11.524   5.171  1.00  0.00    -0.066 N 
HETATM   25  H   UNL     1      38.268 -11.829   5.609  1.00  0.00     0.280 HD
HETATM   26  C   UNL     1      40.154 -11.184   6.275  1.00  0.00     0.261 C 
HETATM   27  C   UNL     1      39.572 -10.086   7.174  1.00  0.00     0.195 C 
HETATM   28  O   UNL     1      39.257  -8.919   6.409  1.00  0.00    -0.388 OA
HETATM   29  C   UNL     1      38.278  -9.188   5.400  1.00  0.00     0.195 C 
HETATM   30  C   UNL     1      38.790 -10.243   4.411  1.00  0.00     0.261 C 
ENDBRANCH  23  24
ENDBRANCH  22  23
ENDBRANCH   1  22
BRANCH   2  31
HETATM   31  C   UNL     1      40.945 -13.032   0.620  1.00  0.00     0.120 A 
HETATM   32  S   UNL     1      40.922 -11.343   0.420  1.00  0.00     0.020 SA
HETATM   33  N   UNL     1      39.748 -11.300  -0.740  1.00  0.00    -0.203 NA
HETATM   34  C   UNL     1      39.241 -12.536  -0.896  1.00  0.00     0.160 A 
HETATM   35  C   UNL     1      39.902 -13.560  -0.117  1.00  0.00     0.085 A 
BRANCH  34  36
HETATM   36  C   UNL     1      38.089 -12.760  -1.786  1.00  0.00     0.271 C 
HETATM   37  N   UNL     1      37.267 -11.680  -1.966  1.00  0.00    -0.365 N 
HETATM   38  H   UNL     1      37.432 -10.823  -1.454  1.00  0.00     0.159 HD
HETATM   39  H   UNL     1      36.426 -11.792  -2.513  1.00  0.00     0.159 HD
HETATM   40  O   UNL     1      37.849 -13.834  -2.331  1.00  0.00    -0.266 OA
ENDBRANCH  34  36
BRANCH  35  41
HETATM   41  N   UNL     1      39.560 -14.873  -0.109  1.00  0.00    -0.396 N 
HETATM   42  H   UNL     1      40.243 -15.560  -0.455  1.00  0.00     0.156 HD
HETATM   43  H   UNL     1      38.606 -15.164  -0.325  1.00  0.00     0.156 HD
ENDBRANCH  35  41
ENDBRANCH   2  31
TORSDOF 11
ENDMDL
MODEL 7
REMARK VINA RESULT:      -7.6      2.533      6.336
REMARK  11 active torsions:
REMARK  status: ('A' for Active; 'I' for Inactive)
REMARK    1  A    between atoms: O_2  and  C_3 
REMARK    2  A    between atoms: C_6  and  C_7 
REMARK    3  A    between atoms: C_7  and  N_8 
REMARK    4  A    between atoms: C_7  and  C_29 
REMARK       I    between atoms: N_8  and  C_9 
REMARK    5  A    between atoms: N_8  and  C_20 
REMARK    6  A    between atoms: C_9  and  C_10 
REMARK    7  A    between atoms: C_13  and  C_14 
REMARK       I    between atoms: C_14  and  N_15 
REMARK    8  A    between atoms: C_17  and  N_18 
REMARK    9  A    between atoms: C_20  and  C_21 
REMARK   10  A    between atoms: C_21  and  N_22 
REMARK       I    between atoms: C_29  and  N_30 
REMARK   11  A    between atoms: N_30  and  C_31 
ROOT
HETATM    1  N   UNL     1      41.141 -13.745   3.593  1.00  0.00    -0.328 N 
HETATM    2  C   UNL     1      41.024 -15.133   3.316  1.00  0.00     0.265 C 
HETATM    3  O   UNL     1      40.073 -15.540   2.644  1.00  0.00    -0.267 OA
ENDROOT
BRANCH   1   4
HETATM    4  C   UNL     1      40.026 -12.885   3.118  1.00  0.00     0.213 C 
BRANCH   4   5
HETATM    5  C   UNL     1      39.597 -11.756   4.052  1.00  0.00    -0.026 A 
HETATM    6  C   UNL     1      39.075 -12.046   5.324  1.00  0.00     0.012 A 
HETATM    7  C   UNL     1      38.750 -11.026   6.227  1.00  0.00     0.037 A 
HETATM    8  C   UNL     1      38.955  -9.693   5.883  1.00  0.00     0.068 A 
HETATM    9  C   UNL     1      39.492  -9.391   4.631  1.00  0.00     0.037 A 
HETATM   10  C   UNL     1      39.816 -10.406   3.728  1.00  0.00     0.012 A 
BRANCH   8  11
HETATM   11  O   UNL     1      38.690  -8.606   6.666  1.00  0.00    -0.356 OA
HETATM   12  C   UNL     1      39.467  -8.459   7.849  1.00  0.00     0.210 C 
ENDBRANCH   8  11
ENDBRANCH   4   5
BRANCH   4  13
HETATM   13  C   UNL     1      40.145 -12.540   1.616  1.00  0.00     0.245 C 
HETATM   14  N   UNL     1      39.170 -13.043   0.792  1.00  0.00    -0.354 N 
HETATM   15  H   UNL     1      38.517 -13.720   1.195  1.00  0.00     0.162 HD
HETATM   16  O   UNL     1      41.058 -11.811   1.225  1.00  0.00    -0.271 OA
BRANCH  14  17
HETATM   17  C   UNL     1      39.203 -12.888  -0.645  1.00  0.00     0.084 C 
HETATM   18  C   UNL     1      39.416 -14.220  -1.359  1.00  0.00     0.025 C 
HETATM   19  C   UNL     1      38.872 -13.949  -2.751  1.00  0.00     0.002 C 
HETATM   20  C   UNL     1      37.612 -13.136  -2.489  1.00  0.00     0.002 C 
HETATM   21  C   UNL     1      37.887 -12.343  -1.211  1.00  0.00     0.025 C 
ENDBRANCH  14  17
ENDBRANCH   4  13
ENDBRANCH   1   4
BRANCH   1  22
HETATM   22  C   UNL     1      41.931 -13.219   4.730  1.00  0.00     0.155 C 
BRANCH  22  23
HETATM   23  C   UNL     1      43.164 -12.373   4.324  1.00  0.00     0.255 C 
BRANCH  23  24
HETATM   24  N   UNL     1      43.659 -11.457   5.427  1.00  0.00    -0.066 N 
HETATM   25  H   UNL     1      44.174 -10.681   4.992  1.00  0.00     0.280 HD
HETATM   26  C   UNL     1      42.534 -10.877   6.292  1.00  0.00     0.261 C 
HETATM   27  C   UNL     1      43.136  -9.946   7.352  1.00  0.00     0.195 C 
HETATM   28  O   UNL     1      44.079 -10.649   8.166  1.00  0.00    -0.388 OA
HETATM   29  C   UNL     1      45.173 -11.161   7.398  1.00  0.00     0.195 C 
HETATM   30  C   UNL     1      44.678 -12.152   6.337  1.00  0.00     0.261 C 
ENDBRANCH  23  24
ENDBRANCH  22  23
ENDBRANCH   1  22
BRANCH   2  31
HETATM   31  C   UNL     1      41.988 -16.068   3.846  1.00  0.00     0.120 A 
HETATM   32  S   UNL     1      43.182 -16.796   2.878  1.00  0.00     0.020 SA
HETATM   33  N   UNL     1      43.871 -17.704   4.072  1.00  0.00    -0.203 NA
HETATM   34  C   UNL     1      43.129 -17.598   5.188  1.00  0.00     0.160 A 
HETATM   35  C   UNL     1      42.025 -16.668   5.090  1.00  0.00     0.085 A 
BRANCH  34  36
HETATM   36  C   UNL     1      43.452 -18.409   6.376  1.00  0.00     0.271 C 
HETATM   37  N   UNL     1      43.586 -19.752   6.151  1.00  0.00    -0.365 N 
HETATM   38  H   UNL     1      43.403 -20.137   5.233  1.00  0.00     0.159 HD
HETATM   39  H   UNL     1      43.743 -20.365   6.938  1.00  0.00     0.159 HD
HETATM   40  O   UNL     1      43.583 -17.940   7.503  1.00  0.00    -0.266 OA
ENDBRANCH  34  36
BRANCH  35  41
HETATM   41  N   UNL     1      41.141 -16.403   6.085  1.00  0.00    -0.396 N 
HETATM   42  H   UNL     1      41.045 -17.084   6.849  1.00  0.00     0.156 HD
HETATM   43  H   UNL     1      40.250 -15.949   5.882  1.00  0.00     0.156 HD
ENDBRANCH  35  41
ENDBRANCH   2  31
TORSDOF 11
ENDMDL
MODEL 8
REMARK VINA RESULT:      -7.5      2.921      7.249
REMARK  11 active torsions:
REMARK  status: ('A' for Active; 'I' for Inactive)
REMARK    1  A    between atoms: O_2  and  C_3 
REMARK    2  A    between atoms: C_6  and  C_7 
REMARK    3  A    between atoms: C_7  and  N_8 
REMARK    4  A    between atoms: C_7  and  C_29 
REMARK       I    between atoms: N_8  and  C_9 
REMARK    5  A    between atoms: N_8  and  C_20 
REMARK    6  A    between atoms: C_9  and  C_10 
REMARK    7  A    between atoms: C_13  and  C_14 
REMARK       I    between atoms: C_14  and  N_15 
REMARK    8  A    between atoms: C_17  and  N_18 
REMARK    9  A    between atoms: C_20  and  C_21 
REMARK   10  A    between atoms: C_21  and  N_22 
REMARK       I    between atoms: C_29  and  N_30 
REMARK   11  A    between atoms: N_30  and  C_31 
ROOT
HETATM    1  N   UNL     1      40.751 -12.403   2.921  1.00  0.00    -0.328 N 
HETATM    2  C   UNL     1      39.798 -13.188   2.218  1.00  0.00     0.265 C 
HETATM    3  O   UNL     1      39.355 -14.215   2.739  1.00  0.00    -0.267 OA
ENDROOT
BRANCH   1   4
HETATM    4  C   UNL     1      41.218 -12.948   4.222  1.00  0.00     0.213 C 
BRANCH   4   5
HETATM    5  C   UNL     1      41.907 -14.310   4.176  1.00  0.00    -0.026 A 
HETATM    6  C   UNL     1      42.731 -14.653   3.090  1.00  0.00     0.012 A 
HETATM    7  C   UNL     1      43.435 -15.863   3.066  1.00  0.00     0.037 A 
HETATM    8  C   UNL     1      43.344 -16.750   4.135  1.00  0.00     0.068 A 
HETATM    9  C   UNL     1      42.547 -16.413   5.228  1.00  0.00     0.037 A 
HETATM   10  C   UNL     1      41.842 -15.207   5.256  1.00  0.00     0.012 A 
BRANCH   8  11
HETATM   11  O   UNL     1      43.980 -17.954   4.243  1.00  0.00    -0.356 OA
HETATM   12  C   UNL     1      43.913 -18.821   3.116  1.00  0.00     0.210 C 
ENDBRANCH   8  11
ENDBRANCH   4   5
BRANCH   4  13
HETATM   13  C   UNL     1      41.869 -11.868   5.117  1.00  0.00     0.245 C 
HETATM   14  N   UNL     1      43.223 -11.968   5.312  1.00  0.00    -0.354 N 
HETATM   15  H   UNL     1      43.685 -12.817   4.977  1.00  0.00     0.162 HD
HETATM   16  O   UNL     1      41.179 -10.956   5.575  1.00  0.00    -0.271 OA
BRANCH  14  17
HETATM   17  C   UNL     1      43.951 -11.092   6.202  1.00  0.00     0.084 C 
HETATM   18  C   UNL     1      43.810 -11.514   7.663  1.00  0.00     0.025 C 
HETATM   19  C   UNL     1      45.024 -10.878   8.317  1.00  0.00     0.002 C 
HETATM   20  C   UNL     1      46.137 -11.109   7.305  1.00  0.00     0.002 C 
HETATM   21  C   UNL     1      45.460 -11.098   5.934  1.00  0.00     0.025 C 
ENDBRANCH  14  17
ENDBRANCH   4  13
ENDBRANCH   1   4
BRANCH   1  22
HETATM   22  C   UNL     1      41.669 -11.459   2.242  1.00  0.00     0.155 C 
BRANCH  22  23
HETATM   23  C   UNL     1      41.160  -9.997   2.176  1.00  0.00     0.255 C 
BRANCH  23  24
HETATM   24  N   UNL     1      41.619  -9.251   0.938  1.00  0.00    -0.066 N 
HETATM   25  H   UNL     1      42.588  -8.946   1.090  1.00  0.00     0.280 HD
HETATM   26  C   UNL     1      41.564 -10.096  -0.340  1.00  0.00     0.261 C 
HETATM   27  C   UNL     1      42.074  -9.263  -1.522  1.00  0.00     0.195 C 
HETATM   28  O   UNL     1      41.296  -8.072  -1.677  1.00  0.00    -0.388 OA
HETATM   29  C   UNL     1      41.366  -7.233  -0.520  1.00  0.00     0.195 C 
HETATM   30  C   UNL     1      40.823  -7.961   0.717  1.00  0.00     0.261 C 
ENDBRANCH  23  24
ENDBRANCH  22  23
ENDBRANCH   1  22
BRANCH   2  31
HETATM   31  C   UNL     1      39.379 -12.812   0.889  1.00  0.00     0.120 A 
HETATM   32  S   UNL     1      38.184 -11.635   0.608  1.00  0.00     0.020 SA
HETATM   33  N   UNL     1      38.203 -11.729  -1.040  1.00  0.00    -0.203 NA
HETATM   34  C   UNL     1      38.996 -12.749  -1.412  1.00  0.00     0.160 A 
HETATM   35  C   UNL     1      39.685 -13.405  -0.321  1.00  0.00     0.085 A 
BRANCH  34  36
HETATM   36  C   UNL     1      39.097 -13.133  -2.831  1.00  0.00     0.271 C 
HETATM   37  N   UNL     1      37.904 -13.272  -3.488  1.00  0.00    -0.365 N 
HETATM   38  H   UNL     1      37.031 -13.175  -2.985  1.00  0.00     0.159 HD
HETATM   39  H   UNL     1      37.908 -13.597  -4.443  1.00  0.00     0.159 HD
HETATM   40  O   UNL     1      40.163 -13.337  -3.406  1.00  0.00    -0.266 OA
ENDBRANCH  34  36
BRANCH  35  41
HETATM   41  N   UNL     1      40.529 -14.458  -0.456  1.00  0.00    -0.396 N 
HETATM   42  H   UNL     1      40.145 -15.357  -0.773  1.00  0.00     0.156 HD
HETATM   43  H   UNL     1      41.296 -14.598   0.204  1.00  0.00     0.156 HD
ENDBRANCH  35  41
ENDBRANCH   2  31
TORSDOF 11
ENDMDL
MODEL 9
REMARK VINA RESULT:      -7.1     16.644     18.975
REMARK  11 active torsions:
REMARK  status: ('A' for Active; 'I' for Inactive)
REMARK    1  A    between atoms: O_2  and  C_3 
REMARK    2  A    between atoms: C_6  and  C_7 
REMARK    3  A    between atoms: C_7  and  N_8 
REMARK    4  A    between atoms: C_7  and  C_29 
REMARK       I    between atoms: N_8  and  C_9 
REMARK    5  A    between atoms: N_8  and  C_20 
REMARK    6  A    between atoms: C_9  and  C_10 
REMARK    7  A    between atoms: C_13  and  C_14 
REMARK       I    between atoms: C_14  and  N_15 
REMARK    8  A    between atoms: C_17  and  N_18 
REMARK    9  A    between atoms: C_20  and  C_21 
REMARK   10  A    between atoms: C_21  and  N_22 
REMARK       I    between atoms: C_29  and  N_30 
REMARK   11  A    between atoms: N_30  and  C_31 
ROOT
HETATM    1  N   UNL     1      45.176 -30.038   1.580  1.00  0.00    -0.328 N 
HETATM    2  C   UNL     1      45.977 -29.334   2.519  1.00  0.00     0.265 C 
HETATM    3  O   UNL     1      45.762 -28.137   2.724  1.00  0.00    -0.267 OA
ENDROOT
BRANCH   1   4
HETATM    4  C   UNL     1      44.179 -29.229   0.832  1.00  0.00     0.213 C 
BRANCH   4   5
HETATM    5  C   UNL     1      44.346 -29.183  -0.685  1.00  0.00    -0.026 A 
HETATM    6  C   UNL     1      45.077 -28.146  -1.288  1.00  0.00     0.012 A 
HETATM    7  C   UNL     1      45.310 -28.128  -2.669  1.00  0.00     0.037 A 
HETATM    8  C   UNL     1      44.830 -29.157  -3.475  1.00  0.00     0.068 A 
HETATM    9  C   UNL     1      44.121 -30.203  -2.887  1.00  0.00     0.037 A 
HETATM   10  C   UNL     1      43.886 -30.224  -1.509  1.00  0.00     0.012 A 
BRANCH   8  11
HETATM   11  O   UNL     1      44.991 -29.266  -4.827  1.00  0.00    -0.356 OA
HETATM   12  C   UNL     1      44.281 -30.314  -5.477  1.00  0.00     0.210 C 
ENDBRANCH   8  11
ENDBRANCH   4   5
BRANCH   4  13
HETATM   13  C   UNL     1      42.742 -29.417   1.370  1.00  0.00     0.245 C 
HETATM   14  N   UNL     1      42.588 -30.294   2.414  1.00  0.00    -0.354 N 
HETATM   15  H   UNL     1      43.397 -30.864   2.672  1.00  0.00     0.162 HD
HETATM   16  O   UNL     1      41.816 -28.762   0.888  1.00  0.00    -0.271 OA
BRANCH  14  17
HETATM   17  C   UNL     1      41.294 -30.646   2.955  1.00  0.00     0.084 C 
HETATM   18  C   UNL     1      41.004 -32.139   2.815  1.00  0.00     0.025 C 
HETATM   19  C   UNL     1      39.951 -32.380   3.882  1.00  0.00     0.002 C 
HETATM   20  C   UNL     1      40.446 -31.556   5.063  1.00  0.00     0.002 C 
HETATM   21  C   UNL     1      41.184 -30.362   4.456  1.00  0.00     0.025 C 
ENDBRANCH  14  17
ENDBRANCH   4  13
ENDBRANCH   1   4
BRANCH   1  22
HETATM   22  C   UNL     1      45.621 -31.291   0.928  1.00  0.00     0.155 C 
BRANCH  22  23
HETATM   23  C   UNL     1      44.954 -32.578   1.475  1.00  0.00     0.255 C 
BRANCH  23  24
HETATM   24  N   UNL     1      44.441 -33.504   0.389  1.00  0.00    -0.066 N 
HETATM   25  H   UNL     1      44.501 -34.469   0.736  1.00  0.00     0.280 HD
HETATM   26  C   UNL     1      42.993 -33.219  -0.024  1.00  0.00     0.261 C 
HETATM   27  C   UNL     1      42.564 -34.224  -1.100  1.00  0.00     0.195 C 
HETATM   28  O   UNL     1      43.430 -34.149  -2.236  1.00  0.00    -0.388 OA
HETATM   29  C   UNL     1      44.785 -34.461  -1.897  1.00  0.00     0.195 C 
HETATM   30  C   UNL     1      45.330 -33.471  -0.859  1.00  0.00     0.261 C 
ENDBRANCH  23  24
ENDBRANCH  22  23
ENDBRANCH   1  22
BRANCH   2  31
HETATM   31  C   UNL     1      47.059 -30.003   3.202  1.00  0.00     0.120 A 
HETATM   32  S   UNL     1      46.800 -31.055   4.512  1.00  0.00     0.020 SA
HETATM   33  N   UNL     1      48.388 -31.415   4.789  1.00  0.00    -0.203 NA
HETATM   34  C   UNL     1      49.156 -30.639   4.004  1.00  0.00     0.160 A 
HETATM   35  C   UNL     1      48.421 -29.802   3.081  1.00  0.00     0.085 A 
BRANCH  34  36
HETATM   36  C   UNL     1      50.624 -30.668   4.138  1.00  0.00     0.271 C 
HETATM   37  N   UNL     1      51.094 -31.098   5.349  1.00  0.00    -0.365 N 
HETATM   38  H   UNL     1      50.451 -31.308   6.101  1.00  0.00     0.159 HD
HETATM   39  H   UNL     1      52.089 -31.077   5.521  1.00  0.00     0.159 HD
HETATM   40  O   UNL     1      51.394 -30.323   3.246  1.00  0.00    -0.266 OA
ENDBRANCH  34  36
BRANCH  35  41
HETATM   41  N   UNL     1      48.983 -28.936   2.200  1.00  0.00    -0.396 N 
HETATM   42  H   UNL     1      49.721 -29.284   1.574  1.00  0.00     0.156 HD
HETATM   43  H   UNL     1      49.150 -27.963   2.460  1.00  0.00     0.156 HD
ENDBRANCH  35  41
ENDBRANCH   2  31
TORSDOF 11
ENDMDL
MODEL 10
REMARK VINA RESULT:      -7.1      2.337      6.650
REMARK  11 active torsions:
REMARK  status: ('A' for Active; 'I' for Inactive)
REMARK    1  A    between atoms: O_2  and  C_3 
REMARK    2  A    between atoms: C_6  and  C_7 
REMARK    3  A    between atoms: C_7  and  N_8 
REMARK    4  A    between atoms: C_7  and  C_29 
REMARK       I    between atoms: N_8  and  C_9 
REMARK    5  A    between atoms: N_8  and  C_20 
REMARK    6  A    between atoms: C_9  and  C_10 
REMARK    7  A    between atoms: C_13  and  C_14 
REMARK       I    between atoms: C_14  and  N_15 
REMARK    8  A    between atoms: C_17  and  N_18 
REMARK    9  A    between atoms: C_20  and  C_21 
REMARK   10  A    between atoms: C_21  and  N_22 
REMARK       I    between atoms: C_29  and  N_30 
REMARK   11  A    between atoms: N_30  and  C_31 
ROOT
HETATM    1  N   UNL     1      40.731 -12.825   3.102  1.00  0.00    -0.328 N 
HETATM    2  C   UNL     1      39.819 -13.382   2.166  1.00  0.00     0.265 C 
HETATM    3  O   UNL     1      39.302 -14.477   2.400  1.00  0.00    -0.267 OA
ENDROOT
BRANCH   1   4
HETATM    4  C   UNL     1      41.068 -13.674   4.274  1.00  0.00     0.213 C 
BRANCH   4   5
HETATM    5  C   UNL     1      41.831 -14.962   3.978  1.00  0.00    -0.026 A 
HETATM    6  C   UNL     1      42.608 -15.077   2.812  1.00  0.00     0.012 A 
HETATM    7  C   UNL     1      43.379 -16.218   2.561  1.00  0.00     0.037 A 
HETATM    8  C   UNL     1      43.403 -17.265   3.478  1.00  0.00     0.068 A 
HETATM    9  C   UNL     1      42.654 -17.156   4.649  1.00  0.00     0.037 A 
HETATM   10  C   UNL     1      41.883 -16.019   4.903  1.00  0.00     0.012 A 
BRANCH   8  11
HETATM   11  O   UNL     1      44.114 -18.425   3.361  1.00  0.00    -0.356 OA
HETATM   12  C   UNL     1      43.668 -19.358   2.384  1.00  0.00     0.210 C 
ENDBRANCH   8  11
ENDBRANCH   4   5
BRANCH   4  13
HETATM   13  C   UNL     1      41.545 -12.844   5.488  1.00  0.00     0.245 C 
HETATM   14  N   UNL     1      42.898 -12.814   5.716  1.00  0.00    -0.354 N 
HETATM   15  H   UNL     1      43.482 -13.446   5.163  1.00  0.00     0.162 HD
HETATM   16  O   UNL     1      40.726 -12.220   6.165  1.00  0.00    -0.271 OA
BRANCH  14  17
HETATM   17  C   UNL     1      43.483 -12.164   6.867  1.00  0.00     0.084 C 
HETATM   18  C   UNL     1      45.008 -12.149   6.801  1.00  0.00     0.025 C 
HETATM   19  C   UNL     1      45.375 -11.000   7.724  1.00  0.00     0.002 C 
HETATM   20  C   UNL     1      44.342  -9.933   7.392  1.00  0.00     0.002 C 
HETATM   21  C   UNL     1      43.079 -10.690   6.982  1.00  0.00     0.025 C 
ENDBRANCH  14  17
ENDBRANCH   4  13
ENDBRANCH   1   4
BRANCH   1  22
HETATM   22  C   UNL     1      41.731 -11.797   2.732  1.00  0.00     0.155 C 
BRANCH  22  23
HETATM   23  C   UNL     1      41.207 -10.340   2.776  1.00  0.00     0.255 C 
BRANCH  23  24
HETATM   24  N   UNL     1      40.566  -9.966   4.098  1.00  0.00    -0.066 N 
HETATM   25  H   UNL     1      40.764 -10.715   4.773  1.00  0.00     0.280 HD
HETATM   26  C   UNL     1      41.077  -8.639   4.672  1.00  0.00     0.261 C 
HETATM   27  C   UNL     1      40.391  -8.370   6.017  1.00  0.00     0.195 C 
HETATM   28  O   UNL     1      38.970  -8.332   5.863  1.00  0.00    -0.388 OA
HETATM   29  C   UNL     1      38.451  -9.574   5.377  1.00  0.00     0.195 C 
HETATM   30  C   UNL     1      39.038  -9.910   4.000  1.00  0.00     0.261 C 
ENDBRANCH  23  24
ENDBRANCH  22  23
ENDBRANCH   1  22
BRANCH   2  31
HETATM   31  C   UNL     1      39.527 -12.693   0.932  1.00  0.00     0.120 A 
HETATM   32  S   UNL     1      38.327 -11.494   0.818  1.00  0.00     0.020 SA
HETATM   33  N   UNL     1      38.520 -11.178  -0.791  1.00  0.00    -0.203 NA
HETATM   34  C   UNL     1      39.383 -12.068  -1.312  1.00  0.00     0.160 A 
HETATM   35  C   UNL     1      39.977 -12.967  -0.346  1.00  0.00     0.085 A 
BRANCH  34  36
HETATM   36  C   UNL     1      39.644 -12.090  -2.762  1.00  0.00     0.271 C 
HETATM   37  N   UNL     1      38.852 -11.264  -3.514  1.00  0.00    -0.365 N 
HETATM   38  H   UNL     1      38.104 -10.740  -3.078  1.00  0.00     0.159 HD
HETATM   39  H   UNL     1      38.940 -11.285  -4.519  1.00  0.00     0.159 HD
HETATM   40  O   UNL     1      40.495 -12.801  -3.289  1.00  0.00    -0.266 OA
ENDBRANCH  34  36
BRANCH  35  41
HETATM   41  N   UNL     1      40.867 -13.947  -0.641  1.00  0.00    -0.396 N 
HETATM   42  H   UNL     1      40.550 -14.743  -1.208  1.00  0.00     0.156 HD
HETATM   43  H   UNL     1      41.565 -14.239   0.045  1.00  0.00     0.156 HD
ENDBRANCH  35  41
ENDBRANCH   2  31
TORSDOF 11
ENDMDL
