MODEL 1
REMARK VINA RESULT:      -7.9      0.000      0.000
REMARK  8 active torsions:
REMARK  status: ('A' for Active; 'I' for Inactive)
REMARK    1  A    between atoms: C_2  and  N_3 
REMARK    2  A    between atoms: N_3  and  C_5 
REMARK    3  A    between atoms: N_3  and  C_29 
REMARK    4  A    between atoms: C_5  and  C_6 
REMARK    5  A    between atoms: C_6  and  N_7 
REMARK       I    between atoms: N_7  and  C_8 
REMARK    6  A    between atoms: C_8  and  C_9 
REMARK    7  A    between atoms: C_9  and  O_10 
REMARK    8  A    between atoms: N_11  and  C_12 
ROOT
HETATM    1  C   UNL     1      42.758 -15.369   2.939  1.00  0.00     0.256 C 
HETATM    2  N   UNL     1      42.721 -14.442   4.091  1.00  0.00    -0.254 N 
HETATM    3  C   UNL     1      43.331 -14.792   5.291  1.00  0.00     0.330 C 
HETATM    4  O   UNL     1      43.533 -14.036   6.239  1.00  0.00    -0.246 OA
HETATM    5  N   UNL     1      43.720 -16.083   5.459  1.00  0.00    -0.308 N 
HETATM    6  C   UNL     1      43.646 -17.093   4.518  1.00  0.00     0.048 A 
HETATM    7  C   UNL     1      43.185 -16.788   3.250  1.00  0.00     0.034 A 
HETATM    8  C   UNL     1      44.066 -18.382   4.849  1.00  0.00     0.030 A 
HETATM    9  C   UNL     1      44.031 -19.389   3.887  1.00  0.00     0.002 A 
HETATM   10  C   UNL     1      43.599 -19.098   2.596  1.00  0.00     0.001 A 
HETATM   11  C   UNL     1      43.189 -17.803   2.274  1.00  0.00     0.015 A 
HETATM   12  H   UNL     1      44.145 -16.268   6.362  1.00  0.00     0.170 HD
ENDROOT
BRANCH   1  13
HETATM   13  C   UNL     1      41.270 -15.467   2.338  1.00  0.00     0.279 C 
HETATM   14  N   UNL     1      41.061 -14.834   1.112  1.00  0.00    -0.355 N 
HETATM   15  H   UNL     1      41.919 -14.646   0.596  1.00  0.00     0.162 HD
HETATM   16  O   UNL     1      40.324 -15.970   2.944  1.00  0.00    -0.268 OA
BRANCH  14  17
HETATM   17  C   UNL     1      39.891 -15.168   0.310  1.00  0.00     0.150 C 
BRANCH  17  18
HETATM   18  C   UNL     1      39.681 -14.400  -1.016  1.00  0.00     0.254 C 
BRANCH  18  19
HETATM   19  N   UNL     1      38.565 -13.354  -1.000  1.00  0.00    -0.070 N 
HETATM   20  H   UNL     1      37.947 -13.667  -0.241  1.00  0.00     0.279 HD
BRANCH  19  21
HETATM   21  C   UNL     1      37.714 -13.295  -2.249  1.00  0.00     0.230 C 
HETATM   22  C   UNL     1      38.179 -14.313  -3.275  1.00  0.00     0.034 C 
ENDBRANCH  19  21
BRANCH  19  23
HETATM   23  C   UNL     1      39.064 -11.989  -0.559  1.00  0.00     0.230 C 
HETATM   24  C   UNL     1      38.770 -11.760   0.914  1.00  0.00     0.034 C 
ENDBRANCH  19  23
ENDBRANCH  18  19
ENDBRANCH  17  18
ENDBRANCH  14  17
ENDBRANCH   1  13
BRANCH   1  25
HETATM   25  O   UNL     1      43.738 -14.892   2.037  1.00  0.00    -0.359 OA
HETATM   26  H   UNL     1      44.541 -14.760   2.569  1.00  0.00     0.213 HD
ENDBRANCH   1  25
BRANCH   2  27
HETATM   27  C   UNL     1      42.106 -13.127   3.930  1.00  0.00     0.043 A 
HETATM   28  C   UNL     1      40.844 -12.818   4.473  1.00  0.00     0.031 A 
HETATM   29  C   UNL     1      40.288 -11.535   4.365  1.00  0.00     0.026 A 
HETATM   30  C   UNL     1      40.984 -10.527   3.710  1.00  0.00     0.034 A 
HETATM   31 CL   UNL     1      40.314  -8.951   3.597  1.00  0.00    -0.084 Cl
HETATM   32  C   UNL     1      42.230 -10.797   3.163  1.00  0.00     0.026 A 
HETATM   33  C   UNL     1      42.782 -12.081   3.276  1.00  0.00     0.031 A 
ENDBRANCH   2  27
TORSDOF 8
ENDMDL
MODEL 2
REMARK VINA RESULT:      -7.9      1.060      2.013
REMARK  8 active torsions:
REMARK  status: ('A' for Active; 'I' for Inactive)
REMARK    1  A    between atoms: C_2  and  N_3 
REMARK    2  A    between atoms: N_3  and  C_5 
REMARK    3  A    between atoms: N_3  and  C_29 
REMARK    4  A    between atoms: C_5  and  C_6 
REMARK    5  A    between atoms: C_6  and  N_7 
REMARK       I    between atoms: N_7  and  C_8 
REMARK    6  A    between atoms: C_8  and  C_9 
REMARK    7  A    between atoms: C_9  and  O_10 
REMARK    8  A    between atoms: N_11  and  C_12 
ROOT
HETATM    1  C   UNL     1      42.956 -16.115   2.955  1.00  0.00     0.256 C 
HETATM    2  N   UNL     1      43.120 -15.279   4.164  1.00  0.00    -0.254 N 
HETATM    3  C   UNL     1      43.766 -15.790   5.286  1.00  0.00     0.330 C 
HETATM    4  O   UNL     1      44.131 -15.138   6.261  1.00  0.00    -0.246 OA
HETATM    5  N   UNL     1      44.000 -17.128   5.336  1.00  0.00    -0.308 N 
HETATM    6  C   UNL     1      43.730 -18.047   4.341  1.00  0.00     0.048 A 
HETATM    7  C   UNL     1      43.220 -17.595   3.137  1.00  0.00     0.034 A 
HETATM    8  C   UNL     1      44.006 -19.399   4.551  1.00  0.00     0.030 A 
HETATM    9  C   UNL     1      43.773 -20.319   3.532  1.00  0.00     0.002 A 
HETATM   10  C   UNL     1      43.288 -19.882   2.302  1.00  0.00     0.001 A 
HETATM   11  C   UNL     1      43.024 -18.526   2.100  1.00  0.00     0.015 A 
HETATM   12  H   UNL     1      44.463 -17.430   6.187  1.00  0.00     0.170 HD
ENDROOT
BRANCH   1  13
HETATM   13  C   UNL     1      41.427 -15.986   2.473  1.00  0.00     0.279 C 
HETATM   14  N   UNL     1      41.216 -15.289   1.282  1.00  0.00    -0.355 N 
HETATM   15  H   UNL     1      42.051 -15.205   0.704  1.00  0.00     0.162 HD
HETATM   16  O   UNL     1      40.468 -16.374   3.141  1.00  0.00    -0.268 OA
BRANCH  14  17
HETATM   17  C   UNL     1      39.954 -15.431   0.569  1.00  0.00     0.150 C 
BRANCH  17  18
HETATM   18  C   UNL     1      39.495 -14.258  -0.329  1.00  0.00     0.254 C 
BRANCH  18  19
HETATM   19  N   UNL     1      40.595 -13.604  -1.168  1.00  0.00    -0.070 N 
HETATM   20  H   UNL     1      41.409 -14.213  -1.022  1.00  0.00     0.279 HD
BRANCH  19  21
HETATM   21  C   UNL     1      41.011 -12.219  -0.725  1.00  0.00     0.230 C 
HETATM   22  C   UNL     1      40.228 -11.779   0.499  1.00  0.00     0.034 C 
ENDBRANCH  19  21
BRANCH  19  23
HETATM   23  C   UNL     1      40.308 -13.689  -2.657  1.00  0.00     0.230 C 
HETATM   24  C   UNL     1      39.075 -14.537  -2.920  1.00  0.00     0.034 C 
ENDBRANCH  19  23
ENDBRANCH  18  19
ENDBRANCH  17  18
ENDBRANCH  14  17
ENDBRANCH   1  13
BRANCH   1  25
HETATM   25  O   UNL     1      43.919 -15.694   2.009  1.00  0.00    -0.359 OA
HETATM   26  H   UNL     1      44.362 -14.928   2.411  1.00  0.00     0.213 HD
ENDBRANCH   1  25
BRANCH   2  27
HETATM   27  C   UNL     1      42.667 -13.891   4.140  1.00  0.00     0.043 A 
HETATM   28  C   UNL     1      43.286 -12.914   3.338  1.00  0.00     0.031 A 
HETATM   29  C   UNL     1      42.806 -11.597   3.276  1.00  0.00     0.026 A 
HETATM   30  C   UNL     1      41.691 -11.227   4.017  1.00  0.00     0.034 A 
HETATM   31 CL   UNL     1      41.091  -9.621   3.925  1.00  0.00    -0.084 Cl
HETATM   32  C   UNL     1      41.057 -12.165   4.818  1.00  0.00     0.026 A 
HETATM   33  C   UNL     1      41.539 -13.480   4.874  1.00  0.00     0.031 A 
ENDBRANCH   2  27
TORSDOF 8
ENDMDL
MODEL 3
REMARK VINA RESULT:      -7.4      2.341      6.369
REMARK  8 active torsions:
REMARK  status: ('A' for Active; 'I' for Inactive)
REMARK    1  A    between atoms: C_2  and  N_3 
REMARK    2  A    between atoms: N_3  and  C_5 
REMARK    3  A    between atoms: N_3  and  C_29 
REMARK    4  A    between atoms: C_5  and  C_6 
REMARK    5  A    between atoms: C_6  and  N_7 
REMARK       I    between atoms: N_7  and  C_8 
REMARK    6  A    between atoms: C_8  and  C_9 
REMARK    7  A    between atoms: C_9  and  O_10 
REMARK    8  A    between atoms: N_11  and  C_12 
ROOT
HETATM    1  C   UNL     1      40.395 -13.696   1.150  1.00  0.00     0.256 C 
HETATM    2  N   UNL     1      41.239 -12.611   1.695  1.00  0.00    -0.254 N 
HETATM    3  C   UNL     1      41.483 -11.468   0.940  1.00  0.00     0.330 C 
HETATM    4  O   UNL     1      41.997 -10.431   1.355  1.00  0.00    -0.246 OA
HETATM    5  N   UNL     1      41.155 -11.489  -0.379  1.00  0.00    -0.308 N 
HETATM    6  C   UNL     1      40.521 -12.516  -1.051  1.00  0.00     0.048 A 
HETATM    7  C   UNL     1      40.115 -13.629  -0.337  1.00  0.00     0.034 A 
HETATM    8  C   UNL     1      40.271 -12.399  -2.419  1.00  0.00     0.030 A 
HETATM    9  C   UNL     1      39.594 -13.417  -3.088  1.00  0.00     0.002 A 
HETATM   10  C   UNL     1      39.150 -14.533  -2.383  1.00  0.00     0.001 A 
HETATM   11  C   UNL     1      39.397 -14.634  -1.012  1.00  0.00     0.015 A 
HETATM   12  H   UNL     1      41.372 -10.627  -0.868  1.00  0.00     0.170 HD
ENDROOT
BRANCH   1  13
HETATM   13  C   UNL     1      41.159 -15.088   1.403  1.00  0.00     0.279 C 
HETATM   14  N   UNL     1      42.480 -15.152   0.957  1.00  0.00    -0.355 N 
HETATM   15  H   UNL     1      42.904 -14.239   0.801  1.00  0.00     0.162 HD
HETATM   16  O   UNL     1      40.612 -16.091   1.863  1.00  0.00    -0.268 OA
BRANCH  14  17
HETATM   17  C   UNL     1      43.367 -16.194   1.455  1.00  0.00     0.150 C 
BRANCH  17  18
HETATM   18  C   UNL     1      43.431 -16.419   2.984  1.00  0.00     0.254 C 
BRANCH  18  19
HETATM   19  N   UNL     1      43.226 -17.863   3.445  1.00  0.00    -0.070 N 
HETATM   20  H   UNL     1      42.355 -17.824   3.991  1.00  0.00     0.279 HD
BRANCH  19  21
HETATM   21  C   UNL     1      44.290 -18.404   4.375  1.00  0.00     0.230 C 
HETATM   22  C   UNL     1      43.724 -18.663   5.760  1.00  0.00     0.034 C 
ENDBRANCH  19  21
BRANCH  19  23
HETATM   23  C   UNL     1      42.919 -18.798   2.289  1.00  0.00     0.230 C 
HETATM   24  C   UNL     1      43.775 -20.051   2.368  1.00  0.00     0.034 C 
ENDBRANCH  19  23
ENDBRANCH  18  19
ENDBRANCH  17  18
ENDBRANCH  14  17
ENDBRANCH   1  13
BRANCH   1  25
HETATM   25  O   UNL     1      39.121 -13.594   1.758  1.00  0.00    -0.359 OA
HETATM   26  H   UNL     1      38.480 -13.659   1.030  1.00  0.00     0.213 HD
ENDBRANCH   1  25
BRANCH   2  27
HETATM   27  C   UNL     1      41.748 -12.718   3.060  1.00  0.00     0.043 A 
HETATM   28  C   UNL     1      40.896 -12.900   4.166  1.00  0.00     0.031 A 
HETATM   29  C   UNL     1      41.398 -13.062   5.466  1.00  0.00     0.026 A 
HETATM   30  C   UNL     1      42.768 -13.048   5.689  1.00  0.00     0.034 A 
HETATM   31 CL   UNL     1      43.384 -13.268   7.277  1.00  0.00    -0.084 Cl
HETATM   32  C   UNL     1      43.637 -12.870   4.622  1.00  0.00     0.026 A 
HETATM   33  C   UNL     1      43.130 -12.711   3.325  1.00  0.00     0.031 A 
ENDBRANCH   2  27
TORSDOF 8
ENDMDL
MODEL 4
REMARK VINA RESULT:      -7.3      2.895      6.109
REMARK  8 active torsions:
REMARK  status: ('A' for Active; 'I' for Inactive)
REMARK    1  A    between atoms: C_2  and  N_3 
REMARK    2  A    between atoms: N_3  and  C_5 
REMARK    3  A    between atoms: N_3  and  C_29 
REMARK    4  A    between atoms: C_5  and  C_6 
REMARK    5  A    between atoms: C_6  and  N_7 
REMARK       I    between atoms: N_7  and  C_8 
REMARK    6  A    between atoms: C_8  and  C_9 
REMARK    7  A    between atoms: C_9  and  O_10 
REMARK    8  A    between atoms: N_11  and  C_12 
ROOT
HETATM    1  C   UNL     1      41.511 -13.361   4.792  1.00  0.00     0.256 C 
HETATM    2  N   UNL     1      42.549 -12.317   4.656  1.00  0.00    -0.254 N 
HETATM    3  C   UNL     1      42.882 -11.821   3.399  1.00  0.00     0.330 C 
HETATM    4  O   UNL     1      43.576 -10.830   3.182  1.00  0.00    -0.246 OA
HETATM    5  N   UNL     1      42.432 -12.490   2.306  1.00  0.00    -0.308 N 
HETATM    6  C   UNL     1      41.597 -13.591   2.303  1.00  0.00     0.048 A 
HETATM    7  C   UNL     1      41.105 -14.057   3.509  1.00  0.00     0.034 A 
HETATM    8  C   UNL     1      41.240 -14.187   1.093  1.00  0.00     0.030 A 
HETATM    9  C   UNL     1      40.364 -15.271   1.088  1.00  0.00     0.002 A 
HETATM   10  C   UNL     1      39.833 -15.738   2.288  1.00  0.00     0.001 A 
HETATM   11  C   UNL     1      40.191 -15.127   3.492  1.00  0.00     0.015 A 
HETATM   12  H   UNL     1      42.724 -12.079   1.426  1.00  0.00     0.170 HD
ENDROOT
BRANCH   1  13
HETATM   13  C   UNL     1      42.089 -14.506   5.762  1.00  0.00     0.279 C 
HETATM   14  N   UNL     1      43.173 -15.236   5.272  1.00  0.00    -0.355 N 
HETATM   15  H   UNL     1      43.663 -14.776   4.506  1.00  0.00     0.162 HD
HETATM   16  O   UNL     1      41.566 -14.818   6.833  1.00  0.00    -0.268 OA
BRANCH  14  17
HETATM   17  C   UNL     1      43.998 -16.015   6.185  1.00  0.00     0.150 C 
BRANCH  17  18
HETATM   18  C   UNL     1      43.987 -17.554   6.033  1.00  0.00     0.254 C 
BRANCH  18  19
HETATM   19  N   UNL     1      44.046 -18.073   4.594  1.00  0.00    -0.070 N 
HETATM   20  H   UNL     1      44.852 -17.580   4.190  1.00  0.00     0.279 HD
BRANCH  19  21
HETATM   21  C   UNL     1      42.853 -17.724   3.731  1.00  0.00     0.230 C 
HETATM   22  C   UNL     1      43.167 -17.927   2.259  1.00  0.00     0.034 C 
ENDBRANCH  19  21
BRANCH  19  23
HETATM   23  C   UNL     1      44.415 -19.544   4.528  1.00  0.00     0.230 C 
HETATM   24  C   UNL     1      43.792 -20.307   5.685  1.00  0.00     0.034 C 
ENDBRANCH  19  23
ENDBRANCH  18  19
ENDBRANCH  17  18
ENDBRANCH  14  17
ENDBRANCH   1  13
BRANCH   1  25
HETATM   25  O   UNL     1      40.328 -12.733   5.246  1.00  0.00    -0.359 OA
HETATM   26  H   UNL     1      40.447 -11.786   5.059  1.00  0.00     0.213 HD
ENDBRANCH   1  25
BRANCH   2  27
HETATM   27  C   UNL     1      43.164 -11.760   5.858  1.00  0.00     0.043 A 
HETATM   28  C   UNL     1      44.464 -12.113   6.268  1.00  0.00     0.031 A 
HETATM   29  C   UNL     1      45.069 -11.528   7.390  1.00  0.00     0.026 A 
HETATM   30  C   UNL     1      44.385 -10.571   8.129  1.00  0.00     0.034 A 
HETATM   31 CL   UNL     1      45.133  -9.838   9.490  1.00  0.00    -0.084 Cl
HETATM   32  C   UNL     1      43.102 -10.199   7.753  1.00  0.00     0.026 A 
HETATM   33  C   UNL     1      42.504 -10.786   6.629  1.00  0.00     0.031 A 
ENDBRANCH   2  27
TORSDOF 8
ENDMDL
MODEL 5
REMARK VINA RESULT:      -7.2      2.849      7.430
REMARK  8 active torsions:
REMARK  status: ('A' for Active; 'I' for Inactive)
REMARK    1  A    between atoms: C_2  and  N_3 
REMARK    2  A    between atoms: N_3  and  C_5 
REMARK    3  A    between atoms: N_3  and  C_29 
REMARK    4  A    between atoms: C_5  and  C_6 
REMARK    5  A    between atoms: C_6  and  N_7 
REMARK       I    between atoms: N_7  and  C_8 
REMARK    6  A    between atoms: C_8  and  C_9 
REMARK    7  A    between atoms: C_9  and  O_10 
REMARK    8  A    between atoms: N_11  and  C_12 
ROOT
HETATM    1  C   UNL     1      40.896 -12.419   2.352  1.00  0.00     0.256 C 
HETATM    2  N   UNL     1      40.689 -13.690   1.625  1.00  0.00    -0.254 N 
HETATM    3  C   UNL     1      39.755 -13.762   0.595  1.00  0.00     0.330 C 
HETATM    4  O   UNL     1      39.637 -14.693  -0.199  1.00  0.00    -0.246 OA
HETATM    5  N   UNL     1      38.873 -12.738   0.456  1.00  0.00    -0.308 N 
HETATM    6  C   UNL     1      38.850 -11.569   1.193  1.00  0.00     0.048 A 
HETATM    7  C   UNL     1      39.837 -11.358   2.140  1.00  0.00     0.034 A 
HETATM    8  C   UNL     1      37.862 -10.614   0.948  1.00  0.00     0.030 A 
HETATM    9  C   UNL     1      37.864  -9.418   1.661  1.00  0.00     0.002 A 
HETATM   10  C   UNL     1      38.865  -9.172   2.598  1.00  0.00     0.001 A 
HETATM   11  C   UNL     1      39.854 -10.130   2.827  1.00  0.00     0.015 A 
HETATM   12  H   UNL     1      38.216 -12.865  -0.306  1.00  0.00     0.170 HD
ENDROOT
BRANCH   1  13
HETATM   13  C   UNL     1      40.895 -12.748   3.926  1.00  0.00     0.279 C 
HETATM   14  N   UNL     1      42.143 -12.765   4.551  1.00  0.00    -0.355 N 
HETATM   15  H   UNL     1      42.869 -12.281   4.027  1.00  0.00     0.162 HD
HETATM   16  O   UNL     1      39.885 -13.073   4.552  1.00  0.00    -0.268 OA
BRANCH  14  17
HETATM   17  C   UNL     1      42.232 -12.676   6.002  1.00  0.00     0.150 C 
BRANCH  17  18
HETATM   18  C   UNL     1      42.948 -13.824   6.753  1.00  0.00     0.254 C 
BRANCH  18  19
HETATM   19  N   UNL     1      42.676 -15.231   6.216  1.00  0.00    -0.070 N 
HETATM   20  H   UNL     1      42.250 -15.063   5.296  1.00  0.00     0.279 HD
BRANCH  19  21
HETATM   21  C   UNL     1      41.677 -16.045   7.009  1.00  0.00     0.230 C 
HETATM   22  C   UNL     1      40.290 -15.953   6.397  1.00  0.00     0.034 C 
ENDBRANCH  19  21
BRANCH  19  23
HETATM   23  C   UNL     1      43.957 -15.990   5.920  1.00  0.00     0.230 C 
HETATM   24  C   UNL     1      43.778 -17.474   6.196  1.00  0.00     0.034 C 
ENDBRANCH  19  23
ENDBRANCH  18  19
ENDBRANCH  17  18
ENDBRANCH  14  17
ENDBRANCH   1  13
BRANCH   1  25
HETATM   25  O   UNL     1      42.089 -11.835   1.864  1.00  0.00    -0.359 OA
HETATM   26  H   UNL     1      42.386 -11.228   2.562  1.00  0.00     0.213 HD
ENDBRANCH   1  25
BRANCH   2  27
HETATM   27  C   UNL     1      41.527 -14.842   1.946  1.00  0.00     0.043 A 
HETATM   28  C   UNL     1      41.052 -15.924   2.712  1.00  0.00     0.031 A 
HETATM   29  C   UNL     1      41.845 -17.054   2.965  1.00  0.00     0.026 A 
HETATM   30  C   UNL     1      43.134 -17.127   2.454  1.00  0.00     0.034 A 
HETATM   31 CL   UNL     1      44.097 -18.519   2.745  1.00  0.00    -0.084 Cl
HETATM   32  C   UNL     1      43.634 -16.079   1.696  1.00  0.00     0.026 A 
HETATM   33  C   UNL     1      42.836 -14.953   1.444  1.00  0.00     0.031 A 
ENDBRANCH   2  27
TORSDOF 8
ENDMDL
MODEL 6
REMARK VINA RESULT:      -7.0      3.520      6.803
REMARK  8 active torsions:
REMARK  status: ('A' for Active; 'I' for Inactive)
REMARK    1  A    between atoms: C_2  and  N_3 
REMARK    2  A    between atoms: N_3  and  C_5 
REMARK    3  A    between atoms: N_3  and  C_29 
REMARK    4  A    between atoms: C_5  and  C_6 
REMARK    5  A    between atoms: C_6  and  N_7 
REMARK       I    between atoms: N_7  and  C_8 
REMARK    6  A    between atoms: C_8  and  C_9 
REMARK    7  A    between atoms: C_9  and  O_10 
REMARK    8  A    between atoms: N_11  and  C_12 
ROOT
HETATM    1  C   UNL     1      41.906 -13.970   5.684  1.00  0.00     0.256 C 
HETATM    2  N   UNL     1      40.925 -13.597   4.643  1.00  0.00    -0.254 N 
HETATM    3  C   UNL     1      40.606 -14.494   3.628  1.00  0.00     0.330 C 
HETATM    4  O   UNL     1      39.676 -14.374   2.833  1.00  0.00    -0.246 OA
HETATM    5  N   UNL     1      41.395 -15.589   3.469  1.00  0.00    -0.308 N 
HETATM    6  C   UNL     1      42.458 -15.958   4.271  1.00  0.00     0.048 A 
HETATM    7  C   UNL     1      42.747 -15.195   5.388  1.00  0.00     0.034 A 
HETATM    8  C   UNL     1      43.192 -17.105   3.964  1.00  0.00     0.030 A 
HETATM    9  C   UNL     1      44.236 -17.501   4.797  1.00  0.00     0.002 A 
HETATM   10  C   UNL     1      44.525 -16.764   5.943  1.00  0.00     0.001 A 
HETATM   11  C   UNL     1      43.778 -15.624   6.245  1.00  0.00     0.015 A 
HETATM   12  H   UNL     1      41.111 -16.190   2.703  1.00  0.00     0.170 HD
ENDROOT
BRANCH   1  13
HETATM   13  C   UNL     1      42.936 -12.747   5.851  1.00  0.00     0.279 C 
HETATM   14  N   UNL     1      42.902 -12.079   7.076  1.00  0.00    -0.355 N 
HETATM   15  H   UNL     1      42.460 -12.614   7.822  1.00  0.00     0.162 HD
HETATM   16  O   UNL     1      43.650 -12.329   4.938  1.00  0.00    -0.268 OA
BRANCH  14  17
HETATM   17  C   UNL     1      44.015 -11.227   7.472  1.00  0.00     0.150 C 
BRANCH  17  18
HETATM   18  C   UNL     1      44.047 -10.711   8.930  1.00  0.00     0.254 C 
BRANCH  18  19
HETATM   19  N   UNL     1      42.823  -9.903   9.368  1.00  0.00    -0.070 N 
HETATM   20  H   UNL     1      42.029 -10.470   9.046  1.00  0.00     0.279 HD
BRANCH  19  21
HETATM   21  C   UNL     1      42.674  -8.547   8.715  1.00  0.00     0.230 C 
HETATM   22  C   UNL     1      43.885  -7.673   8.989  1.00  0.00     0.034 C 
ENDBRANCH  19  21
BRANCH  19  23
HETATM   23  C   UNL     1      42.679  -9.852  10.879  1.00  0.00     0.230 C 
HETATM   24  C   UNL     1      43.717 -10.738  11.548  1.00  0.00     0.034 C 
ENDBRANCH  19  23
ENDBRANCH  18  19
ENDBRANCH  17  18
ENDBRANCH  14  17
ENDBRANCH   1  13
BRANCH   1  25
HETATM   25  O   UNL     1      41.184 -14.308   6.853  1.00  0.00    -0.359 OA
HETATM   26  H   UNL     1      40.332 -13.846   6.775  1.00  0.00     0.213 HD
ENDBRANCH   1  25
BRANCH   2  27
HETATM   27  C   UNL     1      40.239 -12.311   4.736  1.00  0.00     0.043 A 
HETATM   28  C   UNL     1      40.417 -11.295   3.777  1.00  0.00     0.031 A 
HETATM   29  C   UNL     1      39.709 -10.086   3.842  1.00  0.00     0.026 A 
HETATM   30  C   UNL     1      38.801  -9.866   4.870  1.00  0.00     0.034 A 
HETATM   31 CL   UNL     1      37.918  -8.395   4.938  1.00  0.00    -0.084 Cl
HETATM   32  C   UNL     1      38.601 -10.845   5.832  1.00  0.00     0.026 A 
HETATM   33  C   UNL     1      39.310 -12.053   5.760  1.00  0.00     0.031 A 
ENDBRANCH   2  27
TORSDOF 8
ENDMDL
MODEL 7
REMARK VINA RESULT:      -7.0      2.867      5.856
REMARK  8 active torsions:
REMARK  status: ('A' for Active; 'I' for Inactive)
REMARK    1  A    between atoms: C_2  and  N_3 
REMARK    2  A    between atoms: N_3  and  C_5 
REMARK    3  A    between atoms: N_3  and  C_29 
REMARK    4  A    between atoms: C_5  and  C_6 
REMARK    5  A    between atoms: C_6  and  N_7 
REMARK       I    between atoms: N_7  and  C_8 
REMARK    6  A    between atoms: C_8  and  C_9 
REMARK    7  A    between atoms: C_9  and  O_10 
REMARK    8  A    between atoms: N_11  and  C_12 
ROOT
HETATM    1  C   UNL     1      39.711 -13.164   2.173  1.00  0.00     0.256 C 
HETATM    2  N   UNL     1      40.884 -13.484   3.015  1.00  0.00    -0.254 N 
HETATM    3  C   UNL     1      41.251 -12.634   4.055  1.00  0.00     0.330 C 
HETATM    4  O   UNL     1      42.074 -12.891   4.932  1.00  0.00    -0.246 OA
HETATM    5  N   UNL     1      40.683 -11.401   4.107  1.00  0.00    -0.308 N 
HETATM    6  C   UNL     1      39.700 -10.914   3.266  1.00  0.00     0.048 A 
HETATM    7  C   UNL     1      39.178 -11.751   2.296  1.00  0.00     0.034 A 
HETATM    8  C   UNL     1      39.230  -9.611   3.431  1.00  0.00     0.030 A 
HETATM    9  C   UNL     1      38.209  -9.135   2.611  1.00  0.00     0.002 A 
HETATM   10  C   UNL     1      37.648  -9.970   1.648  1.00  0.00     0.001 A 
HETATM   11  C   UNL     1      38.120 -11.275   1.499  1.00  0.00     0.015 A 
HETATM   12  H   UNL     1      41.007 -10.834   4.882  1.00  0.00     0.170 HD
ENDROOT
BRANCH   1  13
HETATM   13  C   UNL     1      40.145 -13.348   0.636  1.00  0.00     0.279 C 
HETATM   14  N   UNL     1      39.474 -14.343  -0.076  1.00  0.00    -0.355 N 
HETATM   15  H   UNL     1      38.595 -14.630   0.351  1.00  0.00     0.162 HD
HETATM   16  O   UNL     1      41.081 -12.739   0.115  1.00  0.00    -0.268 OA
BRANCH  14  17
HETATM   17  C   UNL     1      39.510 -14.347  -1.533  1.00  0.00     0.150 C 
BRANCH  17  18
HETATM   18  C   UNL     1      38.637 -13.312  -2.280  1.00  0.00     0.254 C 
BRANCH  18  19
HETATM   19  N   UNL     1      39.207 -11.893  -2.341  1.00  0.00    -0.070 N 
HETATM   20  H   UNL     1      39.466 -11.692  -1.367  1.00  0.00     0.279 HD
BRANCH  19  21
HETATM   21  C   UNL     1      38.226 -10.819  -2.755  1.00  0.00     0.230 C 
HETATM   22  C   UNL     1      36.887 -11.007  -2.064  1.00  0.00     0.034 C 
ENDBRANCH  19  21
BRANCH  19  23
HETATM   23  C   UNL     1      40.513 -11.831  -3.113  1.00  0.00     0.230 C 
HETATM   24  C   UNL     1      40.818 -10.405  -3.540  1.00  0.00     0.034 C 
ENDBRANCH  19  23
ENDBRANCH  18  19
ENDBRANCH  17  18
ENDBRANCH  14  17
ENDBRANCH   1  13
BRANCH   1  25
HETATM   25  O   UNL     1      38.642 -13.987   2.596  1.00  0.00    -0.359 OA
HETATM   26  H   UNL     1      38.404 -14.524   1.821  1.00  0.00     0.213 HD
ENDBRANCH   1  25
BRANCH   2  27
HETATM   27  C   UNL     1      41.602 -14.736   2.794  1.00  0.00     0.043 A 
HETATM   28  C   UNL     1      42.802 -14.792   2.059  1.00  0.00     0.031 A 
HETATM   29  C   UNL     1      43.517 -15.989   1.903  1.00  0.00     0.026 A 
HETATM   30  C   UNL     1      43.046 -17.161   2.481  1.00  0.00     0.034 A 
HETATM   31 CL   UNL     1      43.932 -18.621   2.308  1.00  0.00    -0.084 Cl
HETATM   32  C   UNL     1      41.867 -17.141   3.212  1.00  0.00     0.026 A 
HETATM   33  C   UNL     1      41.159 -15.941   3.367  1.00  0.00     0.031 A 
ENDBRANCH   2  27
TORSDOF 8
ENDMDL
MODEL 8
REMARK VINA RESULT:      -6.9      2.733      5.348
REMARK  8 active torsions:
REMARK  status: ('A' for Active; 'I' for Inactive)
REMARK    1  A    between atoms: C_2  and  N_3 
REMARK    2  A    between atoms: N_3  and  C_5 
REMARK    3  A    between atoms: N_3  and  C_29 
REMARK    4  A    between atoms: C_5  and  C_6 
REMARK    5  A    between atoms: C_6  and  N_7 
REMARK       I    between atoms: N_7  and  C_8 
REMARK    6  A    between atoms: C_8  and  C_9 
REMARK    7  A    between atoms: C_9  and  O_10 
REMARK    8  A    between atoms: N_11  and  C_12 
ROOT
HETATM    1  C   UNL     1      40.738 -13.731   4.844  1.00  0.00     0.256 C 
HETATM    2  N   UNL     1      42.118 -14.167   5.145  1.00  0.00    -0.254 N 
HETATM    3  C   UNL     1      42.903 -13.440   6.035  1.00  0.00     0.330 C 
HETATM    4  O   UNL     1      43.978 -13.807   6.507  1.00  0.00    -0.246 OA
HETATM    5  N   UNL     1      42.476 -12.205   6.406  1.00  0.00    -0.308 N 
HETATM    6  C   UNL     1      41.281 -11.608   6.049  1.00  0.00     0.048 A 
HETATM    7  C   UNL     1      40.380 -12.326   5.284  1.00  0.00     0.034 A 
HETATM    8  C   UNL     1      40.992 -10.317   6.493  1.00  0.00     0.030 A 
HETATM    9  C   UNL     1      39.769  -9.733   6.169  1.00  0.00     0.002 A 
HETATM   10  C   UNL     1      38.835 -10.448   5.424  1.00  0.00     0.001 A 
HETATM   11  C   UNL     1      39.132 -11.743   4.994  1.00  0.00     0.015 A 
HETATM   12  H   UNL     1      43.103 -11.730   7.046  1.00  0.00     0.170 HD
ENDROOT
BRANCH   1  13
HETATM   13  C   UNL     1      40.548 -13.766   3.248  1.00  0.00     0.279 C 
HETATM   14  N   UNL     1      41.263 -12.811   2.524  1.00  0.00    -0.355 N 
HETATM   15  H   UNL     1      42.042 -12.405   3.040  1.00  0.00     0.162 HD
HETATM   16  O   UNL     1      39.747 -14.506   2.674  1.00  0.00    -0.268 OA
BRANCH  14  17
HETATM   17  C   UNL     1      41.463 -12.983   1.091  1.00  0.00     0.150 C 
BRANCH  17  18
HETATM   18  C   UNL     1      40.508 -12.232   0.134  1.00  0.00     0.254 C 
BRANCH  18  19
HETATM   19  N   UNL     1      39.141 -12.886  -0.078  1.00  0.00    -0.070 N 
HETATM   20  H   UNL     1      39.008 -13.454   0.768  1.00  0.00     0.279 HD
BRANCH  19  21
HETATM   21  C   UNL     1      39.053 -13.838  -1.251  1.00  0.00     0.230 C 
HETATM   22  C   UNL     1      40.024 -13.443  -2.348  1.00  0.00     0.034 C 
ENDBRANCH  19  21
BRANCH  19  23
HETATM   23  C   UNL     1      38.009 -11.875  -0.050  1.00  0.00     0.230 C 
HETATM   24  C   UNL     1      37.773 -11.372   1.365  1.00  0.00     0.034 C 
ENDBRANCH  19  23
ENDBRANCH  18  19
ENDBRANCH  17  18
ENDBRANCH  14  17
ENDBRANCH   1  13
BRANCH   1  25
HETATM   25  O   UNL     1      39.857 -14.567   5.570  1.00  0.00    -0.359 OA
HETATM   26  H   UNL     1      39.943 -14.292   6.499  1.00  0.00     0.213 HD
ENDBRANCH   1  25
BRANCH   2  27
HETATM   27  C   UNL     1      42.619 -15.407   4.559  1.00  0.00     0.043 A 
HETATM   28  C   UNL     1      42.586 -16.632   5.254  1.00  0.00     0.031 A 
HETATM   29  C   UNL     1      43.014 -17.829   4.661  1.00  0.00     0.026 A 
HETATM   30  C   UNL     1      43.486 -17.829   3.355  1.00  0.00     0.034 A 
HETATM   31 CL   UNL     1      43.990 -19.297   2.621  1.00  0.00    -0.084 Cl
HETATM   32  C   UNL     1      43.533 -16.640   2.641  1.00  0.00     0.026 A 
HETATM   33  C   UNL     1      43.101 -15.447   3.238  1.00  0.00     0.031 A 
ENDBRANCH   2  27
TORSDOF 8
ENDMDL
MODEL 9
REMARK VINA RESULT:      -6.9      2.349      6.326
REMARK  8 active torsions:
REMARK  status: ('A' for Active; 'I' for Inactive)
REMARK    1  A    between atoms: C_2  and  N_3 
REMARK    2  A    between atoms: N_3  and  C_5 
REMARK    3  A    between atoms: N_3  and  C_29 
REMARK    4  A    between atoms: C_5  and  C_6 
REMARK    5  A    between atoms: C_6  and  N_7 
REMARK       I    between atoms: N_7  and  C_8 
REMARK    6  A    between atoms: C_8  and  C_9 
REMARK    7  A    between atoms: C_9  and  O_10 
REMARK    8  A    between atoms: N_11  and  C_12 
ROOT
HETATM    1  C   UNL     1      40.485 -13.243   1.175  1.00  0.00     0.256 C 
HETATM    2  N   UNL     1      41.274 -12.023   1.453  1.00  0.00    -0.254 N 
HETATM    3  C   UNL     1      41.442 -11.058   0.464  1.00  0.00     0.330 C 
HETATM    4  O   UNL     1      41.902  -9.931   0.634  1.00  0.00    -0.246 OA
HETATM    5  N   UNL     1      41.098 -11.379  -0.811  1.00  0.00    -0.308 N 
HETATM    6  C   UNL     1      40.514 -12.559  -1.231  1.00  0.00     0.048 A 
HETATM    7  C   UNL     1      40.181 -13.512  -0.285  1.00  0.00     0.034 A 
HETATM    8  C   UNL     1      40.239 -12.753  -2.585  1.00  0.00     0.030 A 
HETATM    9  C   UNL     1      39.611 -13.925  -3.003  1.00  0.00     0.002 A 
HETATM   10  C   UNL     1      39.241 -14.884  -2.064  1.00  0.00     0.001 A 
HETATM   11  C   UNL     1      39.512 -14.675  -0.711  1.00  0.00     0.015 A 
HETATM   12  H   UNL     1      41.259 -10.633  -1.478  1.00  0.00     0.170 HD
ENDROOT
BRANCH   1  13
HETATM   13  C   UNL     1      41.330 -14.505   1.700  1.00  0.00     0.279 C 
HETATM   14  N   UNL     1      40.848 -15.132   2.850  1.00  0.00    -0.355 N 
HETATM   15  H   UNL     1      39.873 -14.920   3.052  1.00  0.00     0.162 HD
HETATM   16  O   UNL     1      42.401 -14.861   1.203  1.00  0.00    -0.268 OA
BRANCH  14  17
HETATM   17  C   UNL     1      41.298 -16.475   3.190  1.00  0.00     0.150 C 
BRANCH  17  18
HETATM   18  C   UNL     1      42.521 -16.611   4.126  1.00  0.00     0.254 C 
BRANCH  18  19
HETATM   19  N   UNL     1      42.212 -16.559   5.624  1.00  0.00    -0.070 N 
HETATM   20  H   UNL     1      41.267 -16.956   5.693  1.00  0.00     0.279 HD
BRANCH  19  21
HETATM   21  C   UNL     1      42.137 -15.171   6.222  1.00  0.00     0.230 C 
HETATM   22  C   UNL     1      40.696 -14.746   6.436  1.00  0.00     0.034 C 
ENDBRANCH  19  21
BRANCH  19  23
HETATM   23  C   UNL     1      43.091 -17.502   6.426  1.00  0.00     0.230 C 
HETATM   24  C   UNL     1      43.860 -16.743   7.495  1.00  0.00     0.034 C 
ENDBRANCH  19  23
ENDBRANCH  18  19
ENDBRANCH  17  18
ENDBRANCH  14  17
ENDBRANCH   1  13
BRANCH   1  25
HETATM   25  O   UNL     1      39.216 -13.079   1.779  1.00  0.00    -0.359 OA
HETATM   26  H   UNL     1      39.383 -12.605   2.611  1.00  0.00     0.213 HD
ENDBRANCH   1  25
BRANCH   2  27
HETATM   27  C   UNL     1      41.807 -11.807   2.795  1.00  0.00     0.043 A 
HETATM   28  C   UNL     1      40.980 -11.480   3.887  1.00  0.00     0.031 A 
HETATM   29  C   UNL     1      41.493 -11.333   5.184  1.00  0.00     0.026 A 
HETATM   30  C   UNL     1      42.850 -11.514   5.420  1.00  0.00     0.034 A 
HETATM   31 CL   UNL     1      43.475 -11.356   7.011  1.00  0.00    -0.084 Cl
HETATM   32  C   UNL     1      43.693 -11.837   4.367  1.00  0.00     0.026 A 
HETATM   33  C   UNL     1      43.174 -11.984   3.073  1.00  0.00     0.031 A 
ENDBRANCH   2  27
TORSDOF 8
ENDMDL
MODEL 10
REMARK VINA RESULT:      -6.7      2.684      6.190
REMARK  8 active torsions:
REMARK  status: ('A' for Active; 'I' for Inactive)
REMARK    1  A    between atoms: C_2  and  N_3 
REMARK    2  A    between atoms: N_3  and  C_5 
REMARK    3  A    between atoms: N_3  and  C_29 
REMARK    4  A    between atoms: C_5  and  C_6 
REMARK    5  A    between atoms: C_6  and  N_7 
REMARK       I    between atoms: N_7  and  C_8 
REMARK    6  A    between atoms: C_8  and  C_9 
REMARK    7  A    between atoms: C_9  and  O_10 
REMARK    8  A    between atoms: N_11  and  C_12 
ROOT
HETATM    1  C   UNL     1      40.039 -13.742   2.688  1.00  0.00     0.256 C 
HETATM    2  N   UNL     1      40.087 -12.824   1.530  1.00  0.00    -0.254 N 
HETATM    3  C   UNL     1      40.868 -13.137   0.421  1.00  0.00     0.330 C 
HETATM    4  O   UNL     1      40.835 -12.559  -0.663  1.00  0.00    -0.246 OA
HETATM    5  N   UNL     1      41.768 -14.148   0.536  1.00  0.00    -0.308 N 
HETATM    6  C   UNL     1      41.945 -14.970   1.633  1.00  0.00     0.048 A 
HETATM    7  C   UNL     1      41.107 -14.816   2.723  1.00  0.00     0.034 A 
HETATM    8  C   UNL     1      42.933 -15.955   1.610  1.00  0.00     0.030 A 
HETATM    9  C   UNL     1      43.082 -16.811   2.699  1.00  0.00     0.002 A 
HETATM   10  C   UNL     1      42.230 -16.693   3.794  1.00  0.00     0.001 A 
HETATM   11  C   UNL     1      41.239 -15.710   3.802  1.00  0.00     0.015 A 
HETATM   12  H   UNL     1      42.309 -14.311  -0.306  1.00  0.00     0.170 HD
ENDROOT
BRANCH   1  13
HETATM   13  C   UNL     1      40.239 -12.864   4.021  1.00  0.00     0.279 C 
HETATM   14  N   UNL     1      41.488 -12.260   4.175  1.00  0.00    -0.355 N 
HETATM   15  H   UNL     1      42.018 -12.188   3.308  1.00  0.00     0.162 HD
HETATM   16  O   UNL     1      39.402 -12.794   4.921  1.00  0.00    -0.268 OA
BRANCH  14  17
HETATM   17  C   UNL     1      41.655 -11.165   5.121  1.00  0.00     0.150 C 
BRANCH  17  18
HETATM   18  C   UNL     1      43.091 -10.815   5.575  1.00  0.00     0.254 C 
BRANCH  18  19
HETATM   19  N   UNL     1      43.517 -11.405   6.921  1.00  0.00    -0.070 N 
HETATM   20  H   UNL     1      42.636 -11.743   7.329  1.00  0.00     0.279 HD
BRANCH  19  21
HETATM   21  C   UNL     1      44.094 -10.415   7.909  1.00  0.00     0.230 C 
HETATM   22  C   UNL     1      42.996  -9.739   8.709  1.00  0.00     0.034 C 
ENDBRANCH  19  21
BRANCH  19  23
HETATM   23  C   UNL     1      44.374 -12.648   6.759  1.00  0.00     0.230 C 
HETATM   24  C   UNL     1      43.514 -13.901   6.788  1.00  0.00     0.034 C 
ENDBRANCH  19  23
ENDBRANCH  18  19
ENDBRANCH  17  18
ENDBRANCH  14  17
ENDBRANCH   1  13
BRANCH   1  25
HETATM   25  O   UNL     1      38.819 -14.455   2.619  1.00  0.00    -0.359 OA
HETATM   26  H   UNL     1      38.642 -14.578   1.671  1.00  0.00     0.213 HD
ENDBRANCH   1  25
BRANCH   2  27
HETATM   27  C   UNL     1      39.250 -11.628   1.531  1.00  0.00     0.043 A 
HETATM   28  C   UNL     1      39.773 -10.346   1.785  1.00  0.00     0.031 A 
HETATM   29  C   UNL     1      38.972  -9.195   1.725  1.00  0.00     0.026 A 
HETATM   30  C   UNL     1      37.625  -9.302   1.406  1.00  0.00     0.034 A 
HETATM   31 CL   UNL     1      36.649  -7.893   1.310  1.00  0.00    -0.084 Cl
HETATM   32  C   UNL     1      37.076 -10.550   1.150  1.00  0.00     0.026 A 
HETATM   33  C   UNL     1      37.882 -11.696   1.209  1.00  0.00     0.031 A 
ENDBRANCH   2  27
TORSDOF 8
ENDMDL
