MODEL 1
REMARK VINA RESULT:      -9.8      0.000      0.000
REMARK  7 active torsions:
REMARK  status: ('A' for Active; 'I' for Inactive)
REMARK    1  A    between atoms: C_2  and  O_3 
REMARK    2  A    between atoms: O_3  and  C_4 
REMARK    3  A    between atoms: C_5  and  C_6 
REMARK    4  A    between atoms: C_9  and  C_10 
REMARK       I    between atoms: C_10  and  N_11 
REMARK    5  A    between atoms: N_11  and  C_12 
REMARK    6  A    between atoms: C_25  and  C_26 
REMARK       I    between atoms: C_26  and  N_27 
REMARK    7  A    between atoms: N_27  and  C_28 
ROOT
HETATM    1  C   UNL     1      42.089 -12.524   2.597  1.00  0.00     0.188 C 
HETATM    2  N   UNL     1      42.553 -11.933   3.861  1.00  0.00    -0.239 N 
HETATM    3  C   UNL     1      41.747 -11.239   4.731  1.00  0.00     0.142 C 
HETATM    4  C   UNL     1      42.545 -10.926   5.814  1.00  0.00     0.097 C 
HETATM    5  C   UNL     1      43.841 -11.347   5.413  1.00  0.00     0.160 C 
HETATM    6  N   UNL     1      43.856 -11.946   4.220  1.00  0.00    -0.181 NA
HETATM    7  N   UNL     1      40.454 -11.001   4.381  1.00  0.00    -0.343 N 
HETATM    8  C   UNL     1      39.961 -11.301   3.102  1.00  0.00     0.021 C 
HETATM    9  C   UNL     1      38.588 -10.755   2.789  1.00  0.00     0.069 C 
HETATM   10  C   UNL     1      40.705 -12.019   2.223  1.00  0.00     0.061 C 
HETATM   11  H   UNL     1      39.924 -10.267   4.853  1.00  0.00     0.167 HD
ENDROOT
BRANCH   4  12
HETATM   12  C   UNL     1      42.215 -10.303   7.082  1.00  0.00     0.261 C 
HETATM   13  N   UNL     1      43.251 -10.334   7.999  1.00  0.00    -0.323 N 
HETATM   14  H   UNL     1      44.109 -10.761   7.673  1.00  0.00     0.169 HD
HETATM   15  O   UNL     1      41.130  -9.761   7.242  1.00  0.00    -0.267 OA
BRANCH  13  16
HETATM   16  C   UNL     1      43.298  -9.712   9.263  1.00  0.00     0.035 A 
HETATM   17  C   UNL     1      43.132  -8.338   9.464  1.00  0.00     0.032 A 
HETATM   18  C   UNL     1      43.233  -7.792  10.748  1.00  0.00     0.044 A 
HETATM   19  C   UNL     1      43.490  -8.622  11.830  1.00  0.00     0.116 A 
HETATM   20  F   UNL     1      43.592  -8.098  13.058  1.00  0.00    -0.206 F 
HETATM   21  C   UNL     1      43.647  -9.990  11.654  1.00  0.00     0.044 A 
HETATM   22  C   UNL     1      43.551 -10.535  10.370  1.00  0.00     0.032 A 
ENDBRANCH  13  16
ENDBRANCH   4  12
BRANCH   1  23
HETATM   23  C   UNL     1      42.234 -14.050   2.659  1.00  0.00     0.005 A 
HETATM   24  C   UNL     1      41.527 -14.857   3.574  1.00  0.00     0.077 A 
HETATM   25  C   UNL     1      41.690 -16.248   3.544  1.00  0.00     0.037 A 
HETATM   26  C   UNL     1      42.568 -16.841   2.635  1.00  0.00     0.003 A 
HETATM   27  C   UNL     1      43.290 -16.053   1.748  1.00  0.00     0.001 A 
HETATM   28  C   UNL     1      43.126 -14.670   1.759  1.00  0.00     0.012 A 
BRANCH  24  29
HETATM   29  O   UNL     1      40.679 -14.215   4.433  1.00  0.00    -0.351 OA
BRANCH  29  30
HETATM   30  C   UNL     1      40.605 -14.700   5.774  1.00  0.00     0.171 C 
HETATM   31  C   UNL     1      41.958 -14.480   6.427  1.00  0.00     0.034 C 
ENDBRANCH  29  30
ENDBRANCH  24  29
ENDBRANCH   1  23
BRANCH  10  32
HETATM   32  C   UNL     1      40.335 -12.071   0.775  1.00  0.00     0.256 C 
HETATM   33  N   UNL     1      39.316 -12.949   0.479  1.00  0.00    -0.323 N 
HETATM   34  H   UNL     1      38.804 -13.353   1.252  1.00  0.00     0.169 HD
HETATM   35  O   UNL     1      40.975 -11.404  -0.031  1.00  0.00    -0.267 OA
BRANCH  33  36
HETATM   36  C   UNL     1      38.935 -13.419  -0.797  1.00  0.00     0.035 A 
HETATM   37  C   UNL     1      39.429 -14.585  -1.384  1.00  0.00     0.029 A 
HETATM   38  C   UNL     1      38.961 -15.006  -2.633  1.00  0.00     0.002 A 
HETATM   39  C   UNL     1      37.989 -14.267  -3.304  1.00  0.00     0.000 A 
HETATM   40  C   UNL     1      37.492 -13.100  -2.731  1.00  0.00     0.002 A 
HETATM   41  C   UNL     1      37.968 -12.675  -1.487  1.00  0.00     0.029 A 
ENDBRANCH  33  36
ENDBRANCH  10  32
TORSDOF 7
ENDMDL
MODEL 2
REMARK VINA RESULT:      -9.7      1.932      3.173
REMARK  7 active torsions:
REMARK  status: ('A' for Active; 'I' for Inactive)
REMARK    1  A    between atoms: C_2  and  O_3 
REMARK    2  A    between atoms: O_3  and  C_4 
REMARK    3  A    between atoms: C_5  and  C_6 
REMARK    4  A    between atoms: C_9  and  C_10 
REMARK       I    between atoms: C_10  and  N_11 
REMARK    5  A    between atoms: N_11  and  C_12 
REMARK    6  A    between atoms: C_25  and  C_26 
REMARK       I    between atoms: C_26  and  N_27 
REMARK    7  A    between atoms: N_27  and  C_28 
ROOT
HETATM    1  C   UNL     1      42.874 -13.381   5.247  1.00  0.00     0.188 C 
HETATM    2  N   UNL     1      43.457 -12.347   6.116  1.00  0.00    -0.239 N 
HETATM    3  C   UNL     1      42.725 -11.383   6.767  1.00  0.00     0.142 C 
HETATM    4  C   UNL     1      43.633 -10.670   7.525  1.00  0.00     0.097 C 
HETATM    5  C   UNL     1      44.891 -11.198   7.131  1.00  0.00     0.160 C 
HETATM    6  N   UNL     1      44.793 -12.206   6.262  1.00  0.00    -0.181 NA
HETATM    7  N   UNL     1      41.385 -11.311   6.543  1.00  0.00    -0.343 N 
HETATM    8  C   UNL     1      40.752 -12.083   5.556  1.00  0.00     0.021 C 
HETATM    9  C   UNL     1      39.318 -11.714   5.262  1.00  0.00     0.069 C 
HETATM   10  C   UNL     1      41.423 -13.073   4.914  1.00  0.00     0.061 C 
HETATM   11  H   UNL     1      40.873 -10.459   6.775  1.00  0.00     0.167 HD
ENDROOT
BRANCH   4  12
HETATM   12  C   UNL     1      43.429  -9.615   8.500  1.00  0.00     0.261 C 
HETATM   13  N   UNL     1      42.824 -10.047   9.666  1.00  0.00    -0.323 N 
HETATM   14  H   UNL     1      42.619 -11.038   9.709  1.00  0.00     0.169 HD
HETATM   15  O   UNL     1      43.837  -8.482   8.279  1.00  0.00    -0.267 OA
BRANCH  13  16
HETATM   16  C   UNL     1      42.604  -9.308  10.845  1.00  0.00     0.035 A 
HETATM   17  C   UNL     1      43.626  -8.840  11.677  1.00  0.00     0.032 A 
HETATM   18  C   UNL     1      43.322  -8.146  12.853  1.00  0.00     0.044 A 
HETATM   19  C   UNL     1      41.996  -7.912  13.190  1.00  0.00     0.116 A 
HETATM   20  F   UNL     1      41.706  -7.254  14.319  1.00  0.00    -0.206 F 
HETATM   21  C   UNL     1      40.967  -8.359  12.373  1.00  0.00     0.044 A 
HETATM   22  C   UNL     1      41.270  -9.057  11.201  1.00  0.00     0.032 A 
ENDBRANCH  13  16
ENDBRANCH   4  12
BRANCH   1  23
HETATM   23  C   UNL     1      43.125 -14.766   5.858  1.00  0.00     0.005 A 
HETATM   24  C   UNL     1      43.491 -15.893   5.093  1.00  0.00     0.077 A 
HETATM   25  C   UNL     1      43.735 -17.116   5.731  1.00  0.00     0.037 A 
HETATM   26  C   UNL     1      43.591 -17.237   7.114  1.00  0.00     0.003 A 
HETATM   27  C   UNL     1      43.205 -16.140   7.873  1.00  0.00     0.001 A 
HETATM   28  C   UNL     1      42.972 -14.915   7.252  1.00  0.00     0.012 A 
BRANCH  24  29
HETATM   29  O   UNL     1      43.621 -15.707   3.744  1.00  0.00    -0.351 OA
BRANCH  29  30
HETATM   30  C   UNL     1      43.106 -16.723   2.885  1.00  0.00     0.171 C 
HETATM   31  C   UNL     1      43.241 -16.238   1.452  1.00  0.00     0.034 C 
ENDBRANCH  29  30
ENDBRANCH  24  29
ENDBRANCH   1  23
BRANCH  10  32
HETATM   32  C   UNL     1      40.875 -13.678   3.662  1.00  0.00     0.256 C 
HETATM   33  N   UNL     1      41.038 -12.901   2.536  1.00  0.00    -0.323 N 
HETATM   34  H   UNL     1      41.637 -12.089   2.608  1.00  0.00     0.169 HD
HETATM   35  O   UNL     1      40.287 -14.753   3.723  1.00  0.00    -0.267 OA
BRANCH  33  36
HETATM   36  C   UNL     1      40.402 -13.062   1.285  1.00  0.00     0.035 A 
HETATM   37  C   UNL     1      40.581 -14.166   0.450  1.00  0.00     0.029 A 
HETATM   38  C   UNL     1      39.873 -14.270  -0.752  1.00  0.00     0.002 A 
HETATM   39  C   UNL     1      38.975 -13.273  -1.126  1.00  0.00     0.000 A 
HETATM   40  C   UNL     1      38.792 -12.165  -0.304  1.00  0.00     0.002 A 
HETATM   41  C   UNL     1      39.507 -12.057   0.892  1.00  0.00     0.029 A 
ENDBRANCH  33  36
ENDBRANCH  10  32
TORSDOF 7
ENDMDL
MODEL 3
REMARK VINA RESULT:      -9.6      2.498      5.256
REMARK  7 active torsions:
REMARK  status: ('A' for Active; 'I' for Inactive)
REMARK    1  A    between atoms: C_2  and  O_3 
REMARK    2  A    between atoms: O_3  and  C_4 
REMARK    3  A    between atoms: C_5  and  C_6 
REMARK    4  A    between atoms: C_9  and  C_10 
REMARK       I    between atoms: C_10  and  N_11 
REMARK    5  A    between atoms: N_11  and  C_12 
REMARK    6  A    between atoms: C_25  and  C_26 
REMARK       I    between atoms: C_26  and  N_27 
REMARK    7  A    between atoms: N_27  and  C_28 
ROOT
HETATM    1  C   UNL     1      40.850 -14.345   4.748  1.00  0.00     0.188 C 
HETATM    2  N   UNL     1      40.387 -13.050   5.271  1.00  0.00    -0.239 N 
HETATM    3  C   UNL     1      41.170 -12.187   6.001  1.00  0.00     0.142 C 
HETATM    4  C   UNL     1      40.388 -11.072   6.227  1.00  0.00     0.097 C 
HETATM    5  C   UNL     1      39.113 -11.443   5.722  1.00  0.00     0.160 C 
HETATM    6  N   UNL     1      39.101 -12.651   5.154  1.00  0.00    -0.181 NA
HETATM    7  N   UNL     1      42.429 -12.572   6.342  1.00  0.00    -0.343 N 
HETATM    8  C   UNL     1      42.899 -13.873   6.111  1.00  0.00     0.021 C 
HETATM    9  C   UNL     1      44.218 -14.215   6.765  1.00  0.00     0.069 C 
HETATM   10  C   UNL     1      42.180 -14.748   5.363  1.00  0.00     0.061 C 
HETATM   11  H   UNL     1      42.920 -12.097   7.101  1.00  0.00     0.167 HD
ENDROOT
BRANCH   4  12
HETATM   12  C   UNL     1      40.714  -9.797   6.840  1.00  0.00     0.261 C 
HETATM   13  N   UNL     1      40.996  -9.889   8.191  1.00  0.00    -0.323 N 
HETATM   14  H   UNL     1      40.964 -10.823   8.580  1.00  0.00     0.169 HD
HETATM   15  O   UNL     1      40.781  -8.783   6.158  1.00  0.00    -0.267 OA
BRANCH  13  16
HETATM   16  C   UNL     1      41.467  -8.869   9.041  1.00  0.00     0.035 A 
HETATM   17  C   UNL     1      42.751  -8.318   8.965  1.00  0.00     0.032 A 
HETATM   18  C   UNL     1      43.155  -7.334   9.874  1.00  0.00     0.044 A 
HETATM   19  C   UNL     1      42.273  -6.896  10.851  1.00  0.00     0.116 A 
HETATM   20  F   UNL     1      42.663  -5.959  11.723  1.00  0.00    -0.206 F 
HETATM   21  C   UNL     1      40.991  -7.422  10.937  1.00  0.00     0.044 A 
HETATM   22  C   UNL     1      40.588  -8.409  10.032  1.00  0.00     0.032 A 
ENDBRANCH  13  16
ENDBRANCH   4  12
BRANCH   1  23
HETATM   23  C   UNL     1      40.818 -14.320   3.215  1.00  0.00     0.005 A 
HETATM   24  C   UNL     1      41.524 -13.375   2.442  1.00  0.00     0.077 A 
HETATM   25  C   UNL     1      41.470 -13.441   1.044  1.00  0.00     0.037 A 
HETATM   26  C   UNL     1      40.701 -14.417   0.408  1.00  0.00     0.003 A 
HETATM   27  C   UNL     1      39.981 -15.336   1.160  1.00  0.00     0.001 A 
HETATM   28  C   UNL     1      40.037 -15.288   2.550  1.00  0.00     0.012 A 
BRANCH  24  29
HETATM   29  O   UNL     1      42.263 -12.449   3.125  1.00  0.00    -0.351 OA
BRANCH  29  30
HETATM   30  C   UNL     1      42.451 -11.173   2.515  1.00  0.00     0.171 C 
HETATM   31  C   UNL     1      41.205 -10.344   2.767  1.00  0.00     0.034 C 
ENDBRANCH  29  30
ENDBRANCH  24  29
ENDBRANCH   1  23
BRANCH  10  32
HETATM   32  C   UNL     1      42.503 -16.208   5.375  1.00  0.00     0.256 C 
HETATM   33  N   UNL     1      43.263 -16.631   4.307  1.00  0.00    -0.323 N 
HETATM   34  H   UNL     1      43.668 -15.924   3.707  1.00  0.00     0.169 HD
HETATM   35  O   UNL     1      42.042 -16.917   6.263  1.00  0.00    -0.267 OA
BRANCH  33  36
HETATM   36  C   UNL     1      43.494 -17.962   3.895  1.00  0.00     0.035 A 
HETATM   37  C   UNL     1      44.030 -18.956   4.715  1.00  0.00     0.029 A 
HETATM   38  C   UNL     1      44.180 -20.264   4.241  1.00  0.00     0.002 A 
HETATM   39  C   UNL     1      43.789 -20.590   2.944  1.00  0.00     0.000 A 
HETATM   40  C   UNL     1      43.257 -19.606   2.116  1.00  0.00     0.002 A 
HETATM   41  C   UNL     1      43.117 -18.298   2.586  1.00  0.00     0.029 A 
ENDBRANCH  33  36
ENDBRANCH  10  32
TORSDOF 7
ENDMDL
MODEL 4
REMARK VINA RESULT:      -9.1      2.450      5.123
REMARK  7 active torsions:
REMARK  status: ('A' for Active; 'I' for Inactive)
REMARK    1  A    between atoms: C_2  and  O_3 
REMARK    2  A    between atoms: O_3  and  C_4 
REMARK    3  A    between atoms: C_5  and  C_6 
REMARK    4  A    between atoms: C_9  and  C_10 
REMARK       I    between atoms: C_10  and  N_11 
REMARK    5  A    between atoms: N_11  and  C_12 
REMARK    6  A    between atoms: C_25  and  C_26 
REMARK       I    between atoms: C_26  and  N_27 
REMARK    7  A    between atoms: N_27  and  C_28 
ROOT
HETATM    1  C   UNL     1      40.849 -11.976   4.498  1.00  0.00     0.188 C 
HETATM    2  N   UNL     1      40.384 -11.202   5.659  1.00  0.00    -0.239 N 
HETATM    3  C   UNL     1      41.218 -10.632   6.591  1.00  0.00     0.142 C 
HETATM    4  C   UNL     1      40.396  -9.942   7.459  1.00  0.00     0.097 C 
HETATM    5  C   UNL     1      39.086 -10.296   7.038  1.00  0.00     0.160 C 
HETATM    6  N   UNL     1      39.071 -11.075   5.954  1.00  0.00    -0.181 NA
HETATM    7  N   UNL     1      42.558 -10.855   6.499  1.00  0.00    -0.343 N 
HETATM    8  C   UNL     1      43.099 -11.769   5.582  1.00  0.00     0.021 C 
HETATM    9  C   UNL     1      44.563 -12.088   5.768  1.00  0.00     0.069 C 
HETATM   10  C   UNL     1      42.323 -12.328   4.618  1.00  0.00     0.061 C 
HETATM   11  H   UNL     1      43.159 -10.695   7.308  1.00  0.00     0.167 HD
ENDROOT
BRANCH   4  12
HETATM   12  C   UNL     1      40.716  -9.060   8.566  1.00  0.00     0.261 C 
HETATM   13  N   UNL     1      41.182  -9.725   9.686  1.00  0.00    -0.323 N 
HETATM   14  H   UNL     1      41.263 -10.730   9.594  1.00  0.00     0.169 HD
HETATM   15  O   UNL     1      40.625  -7.847   8.436  1.00  0.00    -0.267 OA
BRANCH  13  16
HETATM   16  C   UNL     1      41.694  -9.159  10.871  1.00  0.00     0.035 A 
HETATM   17  C   UNL     1      40.898  -8.689  11.921  1.00  0.00     0.032 A 
HETATM   18  C   UNL     1      41.484  -8.103  13.047  1.00  0.00     0.044 A 
HETATM   19  C   UNL     1      42.865  -7.995  13.127  1.00  0.00     0.116 A 
HETATM   20  F   UNL     1      43.424  -7.429  14.203  1.00  0.00    -0.206 F 
HETATM   21  C   UNL     1      43.674  -8.464  12.100  1.00  0.00     0.044 A 
HETATM   22  C   UNL     1      43.088  -9.045  10.972  1.00  0.00     0.032 A 
ENDBRANCH  13  16
ENDBRANCH   4  12
BRANCH   1  23
HETATM   23  C   UNL     1      40.453 -11.251   3.206  1.00  0.00     0.005 A 
HETATM   24  C   UNL     1      39.722 -11.865   2.167  1.00  0.00     0.077 A 
HETATM   25  C   UNL     1      39.372 -11.123   1.032  1.00  0.00     0.037 A 
HETATM   26  C   UNL     1      39.763  -9.789   0.905  1.00  0.00     0.003 A 
HETATM   27  C   UNL     1      40.506  -9.183   1.910  1.00  0.00     0.001 A 
HETATM   28  C   UNL     1      40.849  -9.907   3.050  1.00  0.00     0.012 A 
BRANCH  24  29
HETATM   29  O   UNL     1      39.365 -13.172   2.354  1.00  0.00    -0.351 OA
BRANCH  29  30
HETATM   30  C   UNL     1      40.001 -14.154   1.538  1.00  0.00     0.171 C 
HETATM   31  C   UNL     1      39.684 -15.522   2.117  1.00  0.00     0.034 C 
ENDBRANCH  29  30
ENDBRANCH  24  29
ENDBRANCH   1  23
BRANCH  10  32
HETATM   32  C   UNL     1      42.797 -13.521   3.853  1.00  0.00     0.256 C 
HETATM   33  N   UNL     1      42.471 -14.730   4.426  1.00  0.00    -0.323 N 
HETATM   34  H   UNL     1      41.820 -14.724   5.201  1.00  0.00     0.169 HD
HETATM   35  O   UNL     1      43.468 -13.356   2.841  1.00  0.00    -0.267 OA
BRANCH  33  36
HETATM   36  C   UNL     1      42.998 -16.000   4.104  1.00  0.00     0.035 A 
HETATM   37  C   UNL     1      42.880 -16.605   2.851  1.00  0.00     0.029 A 
HETATM   38  C   UNL     1      43.475 -17.846   2.602  1.00  0.00     0.002 A 
HETATM   39  C   UNL     1      44.201 -18.490   3.601  1.00  0.00     0.000 A 
HETATM   40  C   UNL     1      44.323 -17.899   4.856  1.00  0.00     0.002 A 
HETATM   41  C   UNL     1      43.718 -16.664   5.107  1.00  0.00     0.029 A 
ENDBRANCH  33  36
ENDBRANCH  10  32
TORSDOF 7
ENDMDL
MODEL 5
REMARK VINA RESULT:      -8.9      2.078      2.615
REMARK  7 active torsions:
REMARK  status: ('A' for Active; 'I' for Inactive)
REMARK    1  A    between atoms: C_2  and  O_3 
REMARK    2  A    between atoms: O_3  and  C_4 
REMARK    3  A    between atoms: C_5  and  C_6 
REMARK    4  A    between atoms: C_9  and  C_10 
REMARK       I    between atoms: C_10  and  N_11 
REMARK    5  A    between atoms: N_11  and  C_12 
REMARK    6  A    between atoms: C_25  and  C_26 
REMARK       I    between atoms: C_26  and  N_27 
REMARK    7  A    between atoms: N_27  and  C_28 
ROOT
HETATM    1  C   UNL     1      42.239 -12.552   3.898  1.00  0.00     0.188 C 
HETATM    2  N   UNL     1      43.119 -11.981   4.929  1.00  0.00    -0.239 N 
HETATM    3  C   UNL     1      42.697 -11.604   6.182  1.00  0.00     0.142 C 
HETATM    4  C   UNL     1      43.832 -11.196   6.854  1.00  0.00     0.097 C 
HETATM    5  C   UNL     1      44.844 -11.227   5.858  1.00  0.00     0.160 C 
HETATM    6  N   UNL     1      44.414 -11.688   4.681  1.00  0.00    -0.181 NA
HETATM    7  N   UNL     1      41.371 -11.679   6.480  1.00  0.00    -0.343 N 
HETATM    8  C   UNL     1      40.405 -11.977   5.507  1.00  0.00     0.021 C 
HETATM    9  C   UNL     1      38.970 -11.780   5.933  1.00  0.00     0.069 C 
HETATM   10  C   UNL     1      40.773 -12.391   4.268  1.00  0.00     0.061 C 
HETATM   11  H   UNL     1      40.995 -11.155   7.271  1.00  0.00     0.167 HD
ENDROOT
BRANCH   4  12
HETATM   12  C   UNL     1      44.022 -10.802   8.237  1.00  0.00     0.261 C 
HETATM   13  N   UNL     1      42.979 -10.050   8.746  1.00  0.00    -0.323 N 
HETATM   14  H   UNL     1      42.209  -9.886   8.110  1.00  0.00     0.169 HD
HETATM   15  O   UNL     1      45.003 -11.185   8.860  1.00  0.00    -0.267 OA
BRANCH  13  16
HETATM   16  C   UNL     1      42.797  -9.623  10.077  1.00  0.00     0.035 A 
HETATM   17  C   UNL     1      41.596  -9.750  10.782  1.00  0.00     0.032 A 
HETATM   18  C   UNL     1      41.485  -9.264  12.089  1.00  0.00     0.044 A 
HETATM   19  C   UNL     1      42.579  -8.660  12.693  1.00  0.00     0.116 A 
HETATM   20  F   UNL     1      42.470  -8.190  13.941  1.00  0.00    -0.206 F 
HETATM   21  C   UNL     1      43.784  -8.533  12.015  1.00  0.00     0.044 A 
HETATM   22  C   UNL     1      43.892  -9.014  10.707  1.00  0.00     0.032 A 
ENDBRANCH  13  16
ENDBRANCH   4  12
BRANCH   1  23
HETATM   23  C   UNL     1      42.680 -13.986   3.583  1.00  0.00     0.005 A 
HETATM   24  C   UNL     1      42.778 -14.998   4.560  1.00  0.00     0.077 A 
HETATM   25  C   UNL     1      43.157 -16.293   4.184  1.00  0.00     0.037 A 
HETATM   26  C   UNL     1      43.468 -16.585   2.856  1.00  0.00     0.003 A 
HETATM   27  C   UNL     1      43.401 -15.590   1.889  1.00  0.00     0.001 A 
HETATM   28  C   UNL     1      43.012 -14.302   2.249  1.00  0.00     0.012 A 
BRANCH  24  29
HETATM   29  O   UNL     1      42.455 -14.649   5.843  1.00  0.00    -0.351 OA
BRANCH  29  30
HETATM   30  C   UNL     1      41.852 -15.646   6.667  1.00  0.00     0.171 C 
HETATM   31  C   UNL     1      40.348 -15.568   6.474  1.00  0.00     0.034 C 
ENDBRANCH  29  30
ENDBRANCH  24  29
ENDBRANCH   1  23
BRANCH  10  32
HETATM   32  C   UNL     1      39.788 -12.403   3.143  1.00  0.00     0.256 C 
HETATM   33  N   UNL     1      39.756 -11.241   2.404  1.00  0.00    -0.323 N 
HETATM   34  H   UNL     1      40.485 -10.559   2.567  1.00  0.00     0.169 HD
HETATM   35  O   UNL     1      39.061 -13.379   2.993  1.00  0.00    -0.267 OA
BRANCH  33  36
HETATM   36  C   UNL     1      38.768 -10.845   1.475  1.00  0.00     0.035 A 
HETATM   37  C   UNL     1      38.633 -11.383   0.195  1.00  0.00     0.029 A 
HETATM   38  C   UNL     1      37.594 -10.967  -0.645  1.00  0.00     0.002 A 
HETATM   39  C   UNL     1      36.676 -10.014  -0.208  1.00  0.00     0.000 A 
HETATM   40  C   UNL     1      36.803  -9.467   1.066  1.00  0.00     0.002 A 
HETATM   41  C   UNL     1      37.847  -9.875   1.900  1.00  0.00     0.029 A 
ENDBRANCH  33  36
ENDBRANCH  10  32
TORSDOF 7
ENDMDL
MODEL 6
REMARK VINA RESULT:      -8.8      1.653      2.669
REMARK  7 active torsions:
REMARK  status: ('A' for Active; 'I' for Inactive)
REMARK    1  A    between atoms: C_2  and  O_3 
REMARK    2  A    between atoms: O_3  and  C_4 
REMARK    3  A    between atoms: C_5  and  C_6 
REMARK    4  A    between atoms: C_9  and  C_10 
REMARK       I    between atoms: C_10  and  N_11 
REMARK    5  A    between atoms: N_11  and  C_12 
REMARK    6  A    between atoms: C_25  and  C_26 
REMARK       I    between atoms: C_26  and  N_27 
REMARK    7  A    between atoms: N_27  and  C_28 
ROOT
HETATM    1  C   UNL     1      41.383 -12.502   4.307  1.00  0.00     0.188 C 
HETATM    2  N   UNL     1      42.105 -11.794   5.374  1.00  0.00    -0.239 N 
HETATM    3  C   UNL     1      41.638 -10.665   6.005  1.00  0.00     0.142 C 
HETATM    4  C   UNL     1      42.569 -10.368   6.981  1.00  0.00     0.097 C 
HETATM    5  C   UNL     1      43.619 -11.294   6.740  1.00  0.00     0.160 C 
HETATM    6  N   UNL     1      43.351 -12.153   5.754  1.00  0.00    -0.181 NA
HETATM    7  N   UNL     1      40.477 -10.103   5.573  1.00  0.00    -0.343 N 
HETATM    8  C   UNL     1      39.823 -10.543   4.412  1.00  0.00     0.021 C 
HETATM    9  C   UNL     1      38.692  -9.666   3.930  1.00  0.00     0.069 C 
HETATM   10  C   UNL     1      40.222 -11.675   3.777  1.00  0.00     0.061 C 
HETATM   11  H   UNL     1      40.256  -9.137   5.815  1.00  0.00     0.167 HD
ENDROOT
BRANCH   4  12
HETATM   12  C   UNL     1      42.556  -9.361   8.025  1.00  0.00     0.261 C 
HETATM   13  N   UNL     1      42.302  -9.874   9.285  1.00  0.00    -0.323 N 
HETATM   14  H   UNL     1      42.180 -10.878   9.330  1.00  0.00     0.169 HD
HETATM   15  O   UNL     1      42.817  -8.194   7.763  1.00  0.00    -0.267 OA
BRANCH  13  16
HETATM   16  C   UNL     1      42.346  -9.189  10.516  1.00  0.00     0.035 A 
HETATM   17  C   UNL     1      43.526  -8.907  11.212  1.00  0.00     0.032 A 
HETATM   18  C   UNL     1      43.482  -8.257  12.450  1.00  0.00     0.044 A 
HETATM   19  C   UNL     1      42.258  -7.881  12.985  1.00  0.00     0.116 A 
HETATM   20  F   UNL     1      42.216  -7.264  14.172  1.00  0.00    -0.206 F 
HETATM   21  C   UNL     1      41.076  -8.141  12.305  1.00  0.00     0.044 A 
HETATM   22  C   UNL     1      41.120  -8.796  11.071  1.00  0.00     0.032 A 
ENDBRANCH  13  16
ENDBRANCH   4  12
BRANCH   1  23
HETATM   23  C   UNL     1      41.016 -13.913   4.783  1.00  0.00     0.005 A 
HETATM   24  C   UNL     1      41.174 -15.065   3.984  1.00  0.00     0.077 A 
HETATM   25  C   UNL     1      40.846 -16.323   4.506  1.00  0.00     0.037 A 
HETATM   26  C   UNL     1      40.335 -16.445   5.799  1.00  0.00     0.003 A 
HETATM   27  C   UNL     1      40.150 -15.314   6.585  1.00  0.00     0.001 A 
HETATM   28  C   UNL     1      40.485 -14.059   6.082  1.00  0.00     0.012 A 
BRANCH  24  29
HETATM   29  O   UNL     1      41.684 -14.879   2.729  1.00  0.00    -0.351 OA
BRANCH  29  30
HETATM   30  C   UNL     1      41.901 -16.038   1.925  1.00  0.00     0.171 C 
HETATM   31  C   UNL     1      43.373 -16.083   1.556  1.00  0.00     0.034 C 
ENDBRANCH  29  30
ENDBRANCH  24  29
ENDBRANCH   1  23
BRANCH  10  32
HETATM   32  C   UNL     1      39.756 -11.977   2.389  1.00  0.00     0.256 C 
HETATM   33  N   UNL     1      40.758 -12.349   1.521  1.00  0.00    -0.323 N 
HETATM   34  H   UNL     1      41.672 -12.543   1.911  1.00  0.00     0.169 HD
HETATM   35  O   UNL     1      38.573 -11.822   2.108  1.00  0.00    -0.267 OA
BRANCH  33  36
HETATM   36  C   UNL     1      40.685 -12.428   0.113  1.00  0.00     0.035 A 
HETATM   37  C   UNL     1      40.275 -13.562  -0.590  1.00  0.00     0.029 A 
HETATM   38  C   UNL     1      40.184 -13.539  -1.986  1.00  0.00     0.002 A 
HETATM   39  C   UNL     1      40.497 -12.378  -2.691  1.00  0.00     0.000 A 
HETATM   40  C   UNL     1      40.911 -11.242  -2.001  1.00  0.00     0.002 A 
HETATM   41  C   UNL     1      41.011 -11.269  -0.608  1.00  0.00     0.029 A 
ENDBRANCH  33  36
ENDBRANCH  10  32
TORSDOF 7
ENDMDL
MODEL 7
REMARK VINA RESULT:      -8.7      4.515      9.002
REMARK  7 active torsions:
REMARK  status: ('A' for Active; 'I' for Inactive)
REMARK    1  A    between atoms: C_2  and  O_3 
REMARK    2  A    between atoms: O_3  and  C_4 
REMARK    3  A    between atoms: C_5  and  C_6 
REMARK    4  A    between atoms: C_9  and  C_10 
REMARK       I    between atoms: C_10  and  N_11 
REMARK    5  A    between atoms: N_11  and  C_12 
REMARK    6  A    between atoms: C_25  and  C_26 
REMARK       I    between atoms: C_26  and  N_27 
REMARK    7  A    between atoms: N_27  and  C_28 
ROOT
HETATM    1  C   UNL     1      41.585 -12.973   3.027  1.00  0.00     0.188 C 
HETATM    2  N   UNL     1      41.433 -12.054   1.889  1.00  0.00    -0.239 N 
HETATM    3  C   UNL     1      40.662 -12.318   0.782  1.00  0.00     0.142 C 
HETATM    4  C   UNL     1      40.730 -11.183  -0.002  1.00  0.00     0.097 C 
HETATM    5  C   UNL     1      41.689 -10.371   0.661  1.00  0.00     0.160 C 
HETATM    6  N   UNL     1      42.132 -10.901   1.803  1.00  0.00    -0.181 NA
HETATM    7  N   UNL     1      40.059 -13.533   0.674  1.00  0.00    -0.343 N 
HETATM    8  C   UNL     1      40.323 -14.578   1.573  1.00  0.00     0.021 C 
HETATM    9  C   UNL     1      39.774 -15.929   1.181  1.00  0.00     0.069 C 
HETATM   10  C   UNL     1      41.046 -14.357   2.701  1.00  0.00     0.061 C 
HETATM   11  H   UNL     1      39.728 -13.860  -0.234  1.00  0.00     0.167 HD
ENDROOT
BRANCH   4  12
HETATM   12  C   UNL     1      40.033 -10.836  -1.226  1.00  0.00     0.261 C 
HETATM   13  N   UNL     1      40.297  -9.553  -1.669  1.00  0.00    -0.323 N 
HETATM   14  H   UNL     1      40.952  -9.024  -1.106  1.00  0.00     0.169 HD
HETATM   15  O   UNL     1      39.343 -11.668  -1.802  1.00  0.00    -0.267 OA
BRANCH  13  16
HETATM   16  C   UNL     1      39.885  -8.959  -2.879  1.00  0.00     0.035 A 
HETATM   17  C   UNL     1      38.671  -8.284  -3.044  1.00  0.00     0.032 A 
HETATM   18  C   UNL     1      38.317  -7.757  -4.291  1.00  0.00     0.044 A 
HETATM   19  C   UNL     1      39.181  -7.897  -5.367  1.00  0.00     0.116 A 
HETATM   20  F   UNL     1      38.839  -7.397  -6.561  1.00  0.00    -0.206 F 
HETATM   21  C   UNL     1      40.395  -8.554  -5.222  1.00  0.00     0.044 A 
HETATM   22  C   UNL     1      40.747  -9.086  -3.978  1.00  0.00     0.032 A 
ENDBRANCH  13  16
ENDBRANCH   4  12
BRANCH   1  23
HETATM   23  C   UNL     1      41.004 -12.326   4.291  1.00  0.00     0.005 A 
HETATM   24  C   UNL     1      41.803 -11.793   5.324  1.00  0.00     0.077 A 
HETATM   25  C   UNL     1      41.194 -11.189   6.431  1.00  0.00     0.037 A 
HETATM   26  C   UNL     1      39.803 -11.135   6.536  1.00  0.00     0.003 A 
HETATM   27  C   UNL     1      39.007 -11.681   5.538  1.00  0.00     0.001 A 
HETATM   28  C   UNL     1      39.601 -12.273   4.426  1.00  0.00     0.012 A 
BRANCH  24  29
HETATM   29  O   UNL     1      43.158 -11.872   5.158  1.00  0.00    -0.351 OA
BRANCH  29  30
HETATM   30  C   UNL     1      43.921 -12.445   6.220  1.00  0.00     0.171 C 
HETATM   31  C   UNL     1      43.581 -13.922   6.297  1.00  0.00     0.034 C 
ENDBRANCH  29  30
ENDBRANCH  24  29
ENDBRANCH   1  23
BRANCH  10  32
HETATM   32  C   UNL     1      41.598 -15.500   3.490  1.00  0.00     0.256 C 
HETATM   33  N   UNL     1      42.667 -16.135   2.898  1.00  0.00    -0.323 N 
HETATM   34  H   UNL     1      43.086 -15.697   2.088  1.00  0.00     0.169 HD
HETATM   35  O   UNL     1      41.052 -15.824   4.538  1.00  0.00    -0.267 OA
BRANCH  33  36
HETATM   36  C   UNL     1      43.220 -17.387   3.247  1.00  0.00     0.035 A 
HETATM   37  C   UNL     1      43.846 -17.657   4.465  1.00  0.00     0.029 A 
HETATM   38  C   UNL     1      44.323 -18.941   4.750  1.00  0.00     0.002 A 
HETATM   39  C   UNL     1      44.171 -19.969   3.822  1.00  0.00     0.000 A 
HETATM   40  C   UNL     1      43.551 -19.711   2.602  1.00  0.00     0.002 A 
HETATM   41  C   UNL     1      43.085 -18.426   2.314  1.00  0.00     0.029 A 
ENDBRANCH  33  36
ENDBRANCH  10  32
TORSDOF 7
ENDMDL
MODEL 8
REMARK VINA RESULT:      -8.7      1.780      2.364
REMARK  7 active torsions:
REMARK  status: ('A' for Active; 'I' for Inactive)
REMARK    1  A    between atoms: C_2  and  O_3 
REMARK    2  A    between atoms: O_3  and  C_4 
REMARK    3  A    between atoms: C_5  and  C_6 
REMARK    4  A    between atoms: C_9  and  C_10 
REMARK       I    between atoms: C_10  and  N_11 
REMARK    5  A    between atoms: N_11  and  C_12 
REMARK    6  A    between atoms: C_25  and  C_26 
REMARK       I    between atoms: C_26  and  N_27 
REMARK    7  A    between atoms: N_27  and  C_28 
ROOT
HETATM    1  C   UNL     1      42.800 -12.026   4.120  1.00  0.00     0.188 C 
HETATM    2  N   UNL     1      43.346 -11.516   5.387  1.00  0.00    -0.239 N 
HETATM    3  C   UNL     1      42.850 -10.423   6.057  1.00  0.00     0.142 C 
HETATM    4  C   UNL     1      43.587 -10.331   7.222  1.00  0.00     0.097 C 
HETATM    5  C   UNL     1      44.591 -11.323   7.067  1.00  0.00     0.160 C 
HETATM    6  N   UNL     1      44.460 -12.037   5.946  1.00  0.00    -0.181 NA
HETATM    7  N   UNL     1      41.844  -9.704   5.490  1.00  0.00    -0.343 N 
HETATM    8  C   UNL     1      41.404  -9.945   4.179  1.00  0.00     0.021 C 
HETATM    9  C   UNL     1      40.461  -8.912   3.609  1.00  0.00     0.069 C 
HETATM   10  C   UNL     1      41.835 -11.033   3.492  1.00  0.00     0.061 C 
HETATM   11  H   UNL     1      41.653  -8.753   5.808  1.00  0.00     0.167 HD
ENDROOT
BRANCH   4  12
HETATM   12  C   UNL     1      43.441  -9.450   8.365  1.00  0.00     0.261 C 
HETATM   13  N   UNL     1      42.849 -10.055   9.459  1.00  0.00    -0.323 N 
HETATM   14  H   UNL     1      42.612 -11.032   9.340  1.00  0.00     0.169 HD
HETATM   15  O   UNL     1      43.881  -8.308   8.326  1.00  0.00    -0.267 OA
BRANCH  13  16
HETATM   16  C   UNL     1      42.681  -9.520  10.751  1.00  0.00     0.035 A 
HETATM   17  C   UNL     1      43.677  -8.823  11.444  1.00  0.00     0.032 A 
HETATM   18  C   UNL     1      43.443  -8.357  12.742  1.00  0.00     0.044 A 
HETATM   19  C   UNL     1      42.212  -8.579  13.342  1.00  0.00     0.116 A 
HETATM   20  F   UNL     1      41.992  -8.138  14.586  1.00  0.00    -0.206 F 
HETATM   21  C   UNL     1      41.207  -9.259  12.668  1.00  0.00     0.044 A 
HETATM   22  C   UNL     1      41.442  -9.730  11.373  1.00  0.00     0.032 A 
ENDBRANCH  13  16
ENDBRANCH   4  12
BRANCH   1  23
HETATM   23  C   UNL     1      42.240 -13.437   4.333  1.00  0.00     0.005 A 
HETATM   24  C   UNL     1      41.169 -13.721   5.207  1.00  0.00     0.077 A 
HETATM   25  C   UNL     1      40.694 -15.034   5.320  1.00  0.00     0.037 A 
HETATM   26  C   UNL     1      41.288 -16.069   4.598  1.00  0.00     0.003 A 
HETATM   27  C   UNL     1      42.359 -15.806   3.755  1.00  0.00     0.001 A 
HETATM   28  C   UNL     1      42.833 -14.502   3.624  1.00  0.00     0.012 A 
BRANCH  24  29
HETATM   29  O   UNL     1      40.628 -12.662   5.882  1.00  0.00    -0.351 OA
BRANCH  29  30
HETATM   30  C   UNL     1      39.224 -12.442   5.750  1.00  0.00     0.171 C 
HETATM   31  C   UNL     1      38.859 -11.228   6.585  1.00  0.00     0.034 C 
ENDBRANCH  29  30
ENDBRANCH  24  29
ENDBRANCH   1  23
BRANCH  10  32
HETATM   32  C   UNL     1      41.634 -11.131   2.013  1.00  0.00     0.256 C 
HETATM   33  N   UNL     1      40.734 -12.099   1.625  1.00  0.00    -0.323 N 
HETATM   34  H   UNL     1      40.177 -12.541   2.345  1.00  0.00     0.169 HD
HETATM   35  O   UNL     1      42.297 -10.416   1.270  1.00  0.00    -0.267 OA
BRANCH  33  36
HETATM   36  C   UNL     1      40.539 -12.613   0.324  1.00  0.00     0.035 A 
HETATM   37  C   UNL     1      40.894 -11.942  -0.847  1.00  0.00     0.029 A 
HETATM   38  C   UNL     1      40.710 -12.545  -2.096  1.00  0.00     0.002 A 
HETATM   39  C   UNL     1      40.177 -13.829  -2.184  1.00  0.00     0.000 A 
HETATM   40  C   UNL     1      39.816 -14.508  -1.023  1.00  0.00     0.002 A 
HETATM   41  C   UNL     1      39.990 -13.900   0.224  1.00  0.00     0.029 A 
ENDBRANCH  33  36
ENDBRANCH  10  32
TORSDOF 7
ENDMDL
MODEL 9
REMARK VINA RESULT:      -8.5      2.980      5.851
REMARK  7 active torsions:
REMARK  status: ('A' for Active; 'I' for Inactive)
REMARK    1  A    between atoms: C_2  and  O_3 
REMARK    2  A    between atoms: O_3  and  C_4 
REMARK    3  A    between atoms: C_5  and  C_6 
REMARK    4  A    between atoms: C_9  and  C_10 
REMARK       I    between atoms: C_10  and  N_11 
REMARK    5  A    between atoms: N_11  and  C_12 
REMARK    6  A    between atoms: C_25  and  C_26 
REMARK       I    between atoms: C_26  and  N_27 
REMARK    7  A    between atoms: N_27  and  C_28 
ROOT
HETATM    1  C   UNL     1      41.071 -11.004   5.866  1.00  0.00     0.188 C 
HETATM    2  N   UNL     1      40.691 -10.221   7.052  1.00  0.00    -0.239 N 
HETATM    3  C   UNL     1      41.590  -9.677   7.938  1.00  0.00     0.142 C 
HETATM    4  C   UNL     1      40.835  -8.968   8.851  1.00  0.00     0.097 C 
HETATM    5  C   UNL     1      39.495  -9.285   8.502  1.00  0.00     0.160 C 
HETATM    6  N   UNL     1      39.400 -10.060   7.419  1.00  0.00    -0.181 NA
HETATM    7  N   UNL     1      42.916  -9.935   7.772  1.00  0.00    -0.343 N 
HETATM    8  C   UNL     1      43.381 -10.860   6.826  1.00  0.00     0.021 C 
HETATM    9  C   UNL     1      44.845 -11.218   6.931  1.00  0.00     0.069 C 
HETATM   10  C   UNL     1      42.540 -11.394   5.905  1.00  0.00     0.061 C 
HETATM   11  H   UNL     1      43.564  -9.793   8.548  1.00  0.00     0.167 HD
ENDROOT
BRANCH   4  12
HETATM   12  C   UNL     1      41.239  -8.098   9.941  1.00  0.00     0.261 C 
HETATM   13  N   UNL     1      41.192  -8.708  11.181  1.00  0.00    -0.323 N 
HETATM   14  H   UNL     1      40.907  -9.679  11.179  1.00  0.00     0.169 HD
HETATM   15  O   UNL     1      41.636  -6.964   9.711  1.00  0.00    -0.267 OA
BRANCH  13  16
HETATM   16  C   UNL     1      41.637  -8.185  12.413  1.00  0.00     0.035 A 
HETATM   17  C   UNL     1      42.968  -7.851  12.685  1.00  0.00     0.032 A 
HETATM   18  C   UNL     1      43.335  -7.375  13.948  1.00  0.00     0.044 A 
HETATM   19  C   UNL     1      42.370  -7.224  14.934  1.00  0.00     0.116 A 
HETATM   20  F   UNL     1      42.723  -6.773  16.143  1.00  0.00    -0.206 F 
HETATM   21  C   UNL     1      41.041  -7.540  14.680  1.00  0.00     0.044 A 
HETATM   22  C   UNL     1      40.676  -8.021  13.420  1.00  0.00     0.032 A 
ENDBRANCH  13  16
ENDBRANCH   4  12
BRANCH   1  23
HETATM   23  C   UNL     1      40.624 -10.264   4.599  1.00  0.00     0.005 A 
HETATM   24  C   UNL     1      39.808 -10.850   3.608  1.00  0.00     0.077 A 
HETATM   25  C   UNL     1      39.418 -10.095   2.495  1.00  0.00     0.037 A 
HETATM   26  C   UNL     1      39.851  -8.777   2.341  1.00  0.00     0.003 A 
HETATM   27  C   UNL     1      40.677  -8.200   3.297  1.00  0.00     0.001 A 
HETATM   28  C   UNL     1      41.062  -8.936   4.415  1.00  0.00     0.012 A 
BRANCH  24  29
HETATM   29  O   UNL     1      39.413 -12.142   3.821  1.00  0.00    -0.351 OA
BRANCH  29  30
HETATM   30  C   UNL     1      38.914 -12.872   2.701  1.00  0.00     0.171 C 
HETATM   31  C   UNL     1      39.925 -13.952   2.357  1.00  0.00     0.034 C 
ENDBRANCH  29  30
ENDBRANCH  24  29
ENDBRANCH   1  23
BRANCH  10  32
HETATM   32  C   UNL     1      42.939 -12.598   5.113  1.00  0.00     0.256 C 
HETATM   33  N   UNL     1      42.653 -13.800   5.721  1.00  0.00    -0.323 N 
HETATM   34  H   UNL     1      42.069 -13.782   6.548  1.00  0.00     0.169 HD
HETATM   35  O   UNL     1      43.525 -12.446   4.047  1.00  0.00    -0.267 OA
BRANCH  33  36
HETATM   36  C   UNL     1      43.142 -15.077   5.367  1.00  0.00     0.035 A 
HETATM   37  C   UNL     1      44.040 -15.816   6.138  1.00  0.00     0.029 A 
HETATM   38  C   UNL     1      44.436 -17.095   5.736  1.00  0.00     0.002 A 
HETATM   39  C   UNL     1      43.932 -17.651   4.562  1.00  0.00     0.000 A 
HETATM   40  C   UNL     1      43.038 -16.922   3.782  1.00  0.00     0.002 A 
HETATM   41  C   UNL     1      42.651 -15.639   4.179  1.00  0.00     0.029 A 
ENDBRANCH  33  36
ENDBRANCH  10  32
TORSDOF 7
ENDMDL
MODEL 10
REMARK VINA RESULT:      -8.5      5.079      9.315
REMARK  7 active torsions:
REMARK  status: ('A' for Active; 'I' for Inactive)
REMARK    1  A    between atoms: C_2  and  O_3 
REMARK    2  A    between atoms: O_3  and  C_4 
REMARK    3  A    between atoms: C_5  and  C_6 
REMARK    4  A    between atoms: C_9  and  C_10 
REMARK       I    between atoms: C_10  and  N_11 
REMARK    5  A    between atoms: N_11  and  C_12 
REMARK    6  A    between atoms: C_25  and  C_26 
REMARK       I    between atoms: C_26  and  N_27 
REMARK    7  A    between atoms: N_27  and  C_28 
ROOT
HETATM    1  C   UNL     1      41.096 -12.160   1.716  1.00  0.00     0.188 C 
HETATM    2  N   UNL     1      41.324 -11.170   0.653  1.00  0.00    -0.239 N 
HETATM    3  C   UNL     1      40.871 -11.305  -0.637  1.00  0.00     0.142 C 
HETATM    4  C   UNL     1      41.229 -10.138  -1.284  1.00  0.00     0.097 C 
HETATM    5  C   UNL     1      42.021  -9.450  -0.327  1.00  0.00     0.160 C 
HETATM    6  N   UNL     1      42.097 -10.079   0.848  1.00  0.00    -0.181 NA
HETATM    7  N   UNL     1      40.241 -12.456  -0.997  1.00  0.00    -0.343 N 
HETATM    8  C   UNL     1      40.176 -13.567  -0.143  1.00  0.00     0.021 C 
HETATM    9  C   UNL     1      39.666 -14.842  -0.772  1.00  0.00     0.069 C 
HETATM   10  C   UNL     1      40.574 -13.472   1.151  1.00  0.00     0.061 C 
HETATM   11  H   UNL     1      40.151 -12.702  -1.983  1.00  0.00     0.167 HD
ENDROOT
BRANCH   4  12
HETATM   12  C   UNL     1      40.921  -9.665  -2.621  1.00  0.00     0.261 C 
HETATM   13  N   UNL     1      41.489  -8.440  -2.919  1.00  0.00    -0.323 N 
HETATM   14  H   UNL     1      42.061  -8.035  -2.188  1.00  0.00     0.169 HD
HETATM   15  O   UNL     1      40.270 -10.362  -3.389  1.00  0.00    -0.267 OA
BRANCH  13  16
HETATM   16  C   UNL     1      41.488  -7.772  -4.160  1.00  0.00     0.035 A 
HETATM   17  C   UNL     1      40.390  -7.732  -5.026  1.00  0.00     0.032 A 
HETATM   18  C   UNL     1      40.484  -7.080  -6.260  1.00  0.00     0.044 A 
HETATM   19  C   UNL     1      41.671  -6.460  -6.622  1.00  0.00     0.116 A 
HETATM   20  F   UNL     1      41.761  -5.842  -7.806  1.00  0.00    -0.206 F 
HETATM   21  C   UNL     1      42.769  -6.479  -5.773  1.00  0.00     0.044 A 
HETATM   22  C   UNL     1      42.678  -7.135  -4.542  1.00  0.00     0.032 A 
ENDBRANCH  13  16
ENDBRANCH   4  12
BRANCH   1  23
HETATM   23  C   UNL     1      40.235 -11.537   2.822  1.00  0.00     0.005 A 
HETATM   24  C   UNL     1      40.455 -11.767   4.197  1.00  0.00     0.077 A 
HETATM   25  C   UNL     1      39.644 -11.133   5.146  1.00  0.00     0.037 A 
HETATM   26  C   UNL     1      38.600 -10.297   4.745  1.00  0.00     0.003 A 
HETATM   27  C   UNL     1      38.358 -10.085   3.394  1.00  0.00     0.001 A 
HETATM   28  C   UNL     1      39.166 -10.700   2.441  1.00  0.00     0.012 A 
BRANCH  24  29
HETATM   29  O   UNL     1      41.496 -12.591   4.524  1.00  0.00    -0.351 OA
BRANCH  29  30
HETATM   30  C   UNL     1      41.506 -13.155   5.835  1.00  0.00     0.171 C 
HETATM   31  C   UNL     1      42.923 -13.064   6.373  1.00  0.00     0.034 C 
ENDBRANCH  29  30
ENDBRANCH  24  29
ENDBRANCH   1  23
BRANCH  10  32
HETATM   32  C   UNL     1      40.810 -14.701   1.970  1.00  0.00     0.256 C 
HETATM   33  N   UNL     1      42.128 -14.918   2.303  1.00  0.00    -0.323 N 
HETATM   34  H   UNL     1      42.789 -14.174   2.119  1.00  0.00     0.169 HD
HETATM   35  O   UNL     1      39.865 -15.438   2.230  1.00  0.00    -0.267 OA
BRANCH  33  36
HETATM   36  C   UNL     1      42.697 -16.103   2.818  1.00  0.00     0.035 A 
HETATM   37  C   UNL     1      42.856 -17.281   2.086  1.00  0.00     0.029 A 
HETATM   38  C   UNL     1      43.475 -18.396   2.659  1.00  0.00     0.002 A 
HETATM   39  C   UNL     1      43.947 -18.342   3.968  1.00  0.00     0.000 A 
HETATM   40  C   UNL     1      43.791 -17.175   4.710  1.00  0.00     0.002 A 
HETATM   41  C   UNL     1      43.163 -16.064   4.140  1.00  0.00     0.029 A 
ENDBRANCH  33  36
ENDBRANCH  10  32
TORSDOF 7
ENDMDL
