MODEL 1
REMARK VINA RESULT:      -7.9      0.000      0.000
REMARK  6 active torsions:
REMARK  status: ('A' for Active; 'I' for Inactive)
REMARK    1  A    between atoms: N_2  and  C_4 
REMARK    2  A    between atoms: N_2  and  C_14 
REMARK    3  A    between atoms: C_5  and  O_6 
REMARK    4  A    between atoms: C_14  and  C_15 
REMARK    5  A    between atoms: C_15  and  O_16 
REMARK    6  A    between atoms: C_15  and  C_17 
ROOT
HETATM    1  C   UNL     1      41.055 -13.801   4.508  1.00  0.00     0.270 C 
HETATM    2  N   UNL     1      42.384 -14.115   5.142  1.00  0.00    -0.065 N 
HETATM    3  H   UNL     1      42.220 -14.545   6.069  1.00  0.00     0.280 HD
ENDROOT
BRANCH   2   4
HETATM    4  C   UNL     1      43.210 -15.179   4.399  1.00  0.00     0.225 C 
HETATM    5  C   UNL     1      43.566 -16.354   5.372  1.00  0.00     0.183 C 
HETATM    6  C   UNL     1      43.620 -17.526   4.448  1.00  0.00    -0.021 A 
HETATM    7  C   UNL     1      42.977 -17.237   3.241  1.00  0.00    -0.047 A 
HETATM    8  C   UNL     1      44.182 -18.772   4.678  1.00  0.00     0.010 A 
HETATM    9  C   UNL     1      42.409 -15.852   3.252  1.00  0.00     0.075 C 
HETATM   10  C   UNL     1      42.871 -18.187   2.242  1.00  0.00     0.008 A 
HETATM   11  C   UNL     1      43.440 -19.443   2.462  1.00  0.00     0.001 A 
HETATM   12  C   UNL     1      44.092 -19.733   3.670  1.00  0.00     0.001 A 
BRANCH   5  13
HETATM   13  O   UNL     1      42.511 -16.495   6.330  1.00  0.00    -0.389 OA
HETATM   14  H   UNL     1      42.683 -15.845   7.042  1.00  0.00     0.210 HD
ENDBRANCH   5  13
ENDBRANCH   2   4
BRANCH   2  15
HETATM   15  C   UNL     1      43.207 -12.840   5.405  1.00  0.00     0.271 C 
BRANCH  15  16
HETATM   16  C   UNL     1      44.059 -12.935   6.696  1.00  0.00     0.177 C 
BRANCH  16  17
HETATM   17  O   UNL     1      43.363 -13.680   7.696  1.00  0.00    -0.389 OA
HETATM   18  H   UNL     1      43.779 -13.476   8.556  1.00  0.00     0.210 HD
ENDBRANCH  16  17
BRANCH  16  19
HETATM   19  C   UNL     1      44.394 -11.561   7.234  1.00  0.00    -0.028 A 
HETATM   20  C   UNL     1      43.365 -10.684   7.617  1.00  0.00     0.013 A 
HETATM   21  C   UNL     1      43.667  -9.419   8.126  1.00  0.00     0.043 A 
HETATM   22  C   UNL     1      44.993  -9.028   8.255  1.00  0.00     0.116 A 
HETATM   23  F   UNL     1      45.279  -7.815   8.744  1.00  0.00    -0.206 F 
HETATM   24  C   UNL     1      46.027  -9.877   7.883  1.00  0.00     0.043 A 
HETATM   25  C   UNL     1      45.731 -11.143   7.374  1.00  0.00     0.013 A 
ENDBRANCH  16  19
ENDBRANCH  15  16
ENDBRANCH   2  15
TORSDOF 6
ENDMDL
MODEL 2
REMARK VINA RESULT:      -7.7      5.207      7.468
REMARK  6 active torsions:
REMARK  status: ('A' for Active; 'I' for Inactive)
REMARK    1  A    between atoms: N_2  and  C_4 
REMARK    2  A    between atoms: N_2  and  C_14 
REMARK    3  A    between atoms: C_5  and  O_6 
REMARK    4  A    between atoms: C_14  and  C_15 
REMARK    5  A    between atoms: C_15  and  O_16 
REMARK    6  A    between atoms: C_15  and  C_17 
ROOT
HETATM    1  C   UNL     1      42.794 -12.914   3.666  1.00  0.00     0.270 C 
HETATM    2  N   UNL     1      42.287 -13.881   2.629  1.00  0.00    -0.065 N 
HETATM    3  H   UNL     1      42.986 -13.954   1.869  1.00  0.00     0.280 HD
ENDROOT
BRANCH   2   4
HETATM    4  C   UNL     1      42.148 -15.331   3.122  1.00  0.00     0.225 C 
HETATM    5  C   UNL     1      42.425 -16.325   1.944  1.00  0.00     0.183 C 
HETATM    6  C   UNL     1      43.007 -17.504   2.652  1.00  0.00    -0.021 A 
HETATM    7  C   UNL     1      43.438 -17.149   3.934  1.00  0.00    -0.047 A 
HETATM    8  C   UNL     1      43.162 -18.797   2.178  1.00  0.00     0.010 A 
HETATM    9  C   UNL     1      43.209 -15.693   4.195  1.00  0.00     0.075 C 
HETATM   10  C   UNL     1      44.044 -18.074   4.766  1.00  0.00     0.008 A 
HETATM   11  C   UNL     1      44.199 -19.380   4.299  1.00  0.00     0.001 A 
HETATM   12  C   UNL     1      43.760 -19.739   3.015  1.00  0.00     0.001 A 
BRANCH   5  13
HETATM   13  O   UNL     1      43.377 -15.731   1.054  1.00  0.00    -0.389 OA
HETATM   14  H   UNL     1      43.392 -14.772   1.250  1.00  0.00     0.210 HD
ENDBRANCH   5  13
ENDBRANCH   2   4
BRANCH   2  15
HETATM   15  C   UNL     1      40.990 -13.380   1.965  1.00  0.00     0.271 C 
BRANCH  15  16
HETATM   16  C   UNL     1      41.255 -12.587   0.660  1.00  0.00     0.177 C 
BRANCH  16  17
HETATM   17  O   UNL     1      40.844 -11.229   0.813  1.00  0.00    -0.389 OA
HETATM   18  H   UNL     1      41.550 -10.761   1.301  1.00  0.00     0.210 HD
ENDBRANCH  16  17
BRANCH  16  19
HETATM   19  C   UNL     1      40.526 -13.206  -0.513  1.00  0.00    -0.028 A 
HETATM   20  C   UNL     1      40.484 -12.537  -1.749  1.00  0.00     0.013 A 
HETATM   21  C   UNL     1      39.824 -13.108  -2.839  1.00  0.00     0.043 A 
HETATM   22  C   UNL     1      39.208 -14.344  -2.700  1.00  0.00     0.116 A 
HETATM   23  F   UNL     1      38.577 -14.889  -3.747  1.00  0.00    -0.206 F 
HETATM   24  C   UNL     1      39.236 -15.024  -1.489  1.00  0.00     0.043 A 
HETATM   25  C   UNL     1      39.895 -14.458  -0.395  1.00  0.00     0.013 A 
ENDBRANCH  16  19
ENDBRANCH  15  16
ENDBRANCH   2  15
TORSDOF 6
ENDMDL
MODEL 3
REMARK VINA RESULT:      -7.6      4.905      7.633
REMARK  6 active torsions:
REMARK  status: ('A' for Active; 'I' for Inactive)
REMARK    1  A    between atoms: N_2  and  C_4 
REMARK    2  A    between atoms: N_2  and  C_14 
REMARK    3  A    between atoms: C_5  and  O_6 
REMARK    4  A    between atoms: C_14  and  C_15 
REMARK    5  A    between atoms: C_15  and  O_16 
REMARK    6  A    between atoms: C_15  and  C_17 
ROOT
HETATM    1  C   UNL     1      41.185 -12.518   3.319  1.00  0.00     0.270 C 
HETATM    2  N   UNL     1      41.529 -13.844   2.696  1.00  0.00    -0.065 N 
HETATM    3  H   UNL     1      40.808 -14.537   2.962  1.00  0.00     0.280 HD
ENDROOT
BRANCH   2   4
HETATM    4  C   UNL     1      41.484 -13.858   1.159  1.00  0.00     0.225 C 
HETATM    5  C   UNL     1      40.447 -14.923   0.665  1.00  0.00     0.183 C 
HETATM    6  C   UNL     1      39.960 -14.322  -0.613  1.00  0.00    -0.021 A 
HETATM    7  C   UNL     1      40.271 -12.961  -0.672  1.00  0.00    -0.047 A 
HETATM    8  C   UNL     1      39.266 -14.943  -1.640  1.00  0.00     0.010 A 
HETATM    9  C   UNL     1      40.974 -12.515   0.572  1.00  0.00     0.075 C 
HETATM   10  C   UNL     1      39.888 -12.186  -1.752  1.00  0.00     0.008 A 
HETATM   11  C   UNL     1      39.195 -12.804  -2.795  1.00  0.00     0.001 A 
HETATM   12  C   UNL     1      38.887 -14.171  -2.740  1.00  0.00     0.001 A 
BRANCH   5  13
HETATM   13  O   UNL     1      39.391 -15.020   1.629  1.00  0.00    -0.389 OA
HETATM   14  H   UNL     1      39.483 -15.893   2.064  1.00  0.00     0.210 HD
ENDBRANCH   5  13
ENDBRANCH   2   4
BRANCH   2  15
HETATM   15  C   UNL     1      42.865 -14.396   3.230  1.00  0.00     0.271 C 
BRANCH  15  16
HETATM   16  C   UNL     1      42.670 -15.464   4.336  1.00  0.00     0.177 C 
BRANCH  16  17
HETATM   17  O   UNL     1      43.432 -15.123   5.495  1.00  0.00    -0.389 OA
HETATM   18  H   UNL     1      43.794 -15.952   5.863  1.00  0.00     0.210 HD
ENDBRANCH  16  17
BRANCH  16  19
HETATM   19  C   UNL     1      43.080 -16.837   3.850  1.00  0.00    -0.028 A 
HETATM   20  C   UNL     1      42.597 -17.324   2.623  1.00  0.00     0.013 A 
HETATM   21  C   UNL     1      42.982 -18.585   2.162  1.00  0.00     0.043 A 
HETATM   22  C   UNL     1      43.848 -19.360   2.921  1.00  0.00     0.116 A 
HETATM   23  F   UNL     1      44.215 -20.568   2.476  1.00  0.00    -0.206 F 
HETATM   24  C   UNL     1      44.338 -18.901   4.137  1.00  0.00     0.043 A 
HETATM   25  C   UNL     1      43.957 -17.641   4.602  1.00  0.00     0.013 A 
ENDBRANCH  16  19
ENDBRANCH  15  16
ENDBRANCH   2  15
TORSDOF 6
ENDMDL
MODEL 4
REMARK VINA RESULT:      -7.5      4.860      8.350
REMARK  6 active torsions:
REMARK  status: ('A' for Active; 'I' for Inactive)
REMARK    1  A    between atoms: N_2  and  C_4 
REMARK    2  A    between atoms: N_2  and  C_14 
REMARK    3  A    between atoms: C_5  and  O_6 
REMARK    4  A    between atoms: C_14  and  C_15 
REMARK    5  A    between atoms: C_15  and  O_16 
REMARK    6  A    between atoms: C_15  and  C_17 
ROOT
HETATM    1  C   UNL     1      40.567 -16.208   5.356  1.00  0.00     0.270 C 
HETATM    2  N   UNL     1      40.367 -15.393   4.106  1.00  0.00    -0.065 N 
HETATM    3  H   UNL     1      39.385 -15.491   3.796  1.00  0.00     0.280 HD
ENDROOT
BRANCH   2   4
HETATM    4  C   UNL     1      40.527 -13.875   4.301  1.00  0.00     0.225 C 
HETATM    5  C   UNL     1      39.725 -13.107   3.196  1.00  0.00     0.183 C 
HETATM    6  C   UNL     1      39.330 -11.854   3.903  1.00  0.00    -0.021 A 
HETATM    7  C   UNL     1      39.449 -12.006   5.288  1.00  0.00    -0.047 A 
HETATM    8  C   UNL     1      38.873 -10.667   3.351  1.00  0.00     0.010 A 
HETATM    9  C   UNL     1      39.912 -13.385   5.639  1.00  0.00     0.075 C 
HETATM   10  C   UNL     1      39.104 -10.983   6.152  1.00  0.00     0.008 A 
HETATM   11  C   UNL     1      38.649  -9.782   5.605  1.00  0.00     0.001 A 
HETATM   12  C   UNL     1      38.535  -9.625   4.215  1.00  0.00     0.001 A 
BRANCH   5  13
HETATM   13  O   UNL     1      38.578 -13.885   2.834  1.00  0.00    -0.389 OA
HETATM   14  H   UNL     1      38.365 -14.453   3.602  1.00  0.00     0.210 HD
ENDBRANCH   5  13
ENDBRANCH   2   4
BRANCH   2  15
HETATM   15  C   UNL     1      41.233 -15.910   2.942  1.00  0.00     0.271 C 
BRANCH  15  16
HETATM   16  C   UNL     1      42.724 -16.070   3.333  1.00  0.00     0.177 C 
BRANCH  16  17
HETATM   17  O   UNL     1      43.553 -15.320   2.445  1.00  0.00    -0.389 OA
HETATM   18  H   UNL     1      44.289 -15.901   2.169  1.00  0.00     0.210 HD
ENDBRANCH  16  17
BRANCH  16  19
HETATM   19  C   UNL     1      43.143 -17.524   3.306  1.00  0.00    -0.028 A 
HETATM   20  C   UNL     1      43.805 -18.088   4.410  1.00  0.00     0.013 A 
HETATM   21  C   UNL     1      44.183 -19.432   4.397  1.00  0.00     0.043 A 
HETATM   22  C   UNL     1      43.901 -20.216   3.286  1.00  0.00     0.116 A 
HETATM   23  F   UNL     1      44.264 -21.504   3.278  1.00  0.00    -0.206 F 
HETATM   24  C   UNL     1      43.248 -19.681   2.183  1.00  0.00     0.043 A 
HETATM   25  C   UNL     1      42.867 -18.338   2.191  1.00  0.00     0.013 A 
ENDBRANCH  16  19
ENDBRANCH  15  16
ENDBRANCH   2  15
TORSDOF 6
ENDMDL
MODEL 5
REMARK VINA RESULT:      -7.4      3.606      7.857
REMARK  6 active torsions:
REMARK  status: ('A' for Active; 'I' for Inactive)
REMARK    1  A    between atoms: N_2  and  C_4 
REMARK    2  A    between atoms: N_2  and  C_14 
REMARK    3  A    between atoms: C_5  and  O_6 
REMARK    4  A    between atoms: C_14  and  C_15 
REMARK    5  A    between atoms: C_15  and  O_16 
REMARK    6  A    between atoms: C_15  and  C_17 
ROOT
HETATM    1  C   UNL     1      40.951 -16.316   5.203  1.00  0.00     0.270 C 
HETATM    2  N   UNL     1      41.139 -15.310   4.099  1.00  0.00    -0.065 N 
HETATM    3  H   UNL     1      40.267 -14.764   3.991  1.00  0.00     0.280 HD
ENDROOT
BRANCH   2   4
HETATM    4  C   UNL     1      42.198 -14.233   4.389  1.00  0.00     0.225 C 
HETATM    5  C   UNL     1      41.501 -12.854   4.647  1.00  0.00     0.183 C 
HETATM    6  C   UNL     1      42.438 -12.199   5.607  1.00  0.00    -0.021 A 
HETATM    7  C   UNL     1      43.291 -13.141   6.190  1.00  0.00    -0.047 A 
HETATM    8  C   UNL     1      42.509 -10.858   5.954  1.00  0.00     0.010 A 
HETATM    9  C   UNL     1      42.988 -14.520   5.694  1.00  0.00     0.075 C 
HETATM   10  C   UNL     1      44.225 -12.768   7.139  1.00  0.00     0.008 A 
HETATM   11  C   UNL     1      44.308 -11.420   7.490  1.00  0.00     0.001 A 
HETATM   12  C   UNL     1      43.458 -10.472   6.901  1.00  0.00     0.001 A 
BRANCH   5  13
HETATM   13  O   UNL     1      40.221 -13.089   5.248  1.00  0.00    -0.389 OA
HETATM   14  H   UNL     1      40.259 -12.717   6.153  1.00  0.00     0.210 HD
ENDBRANCH   5  13
ENDBRANCH   2   4
BRANCH   2  15
HETATM   15  C   UNL     1      41.382 -15.993   2.739  1.00  0.00     0.271 C 
BRANCH  15  16
HETATM   16  C   UNL     1      42.883 -16.272   2.472  1.00  0.00     0.177 C 
BRANCH  16  17
HETATM   17  O   UNL     1      43.194 -16.033   1.099  1.00  0.00    -0.389 OA
HETATM   18  H   UNL     1      42.982 -15.098   0.908  1.00  0.00     0.210 HD
ENDBRANCH  16  17
BRANCH  16  19
HETATM   19  C   UNL     1      43.248 -17.696   2.831  1.00  0.00    -0.028 A 
HETATM   20  C   UNL     1      42.881 -18.754   1.981  1.00  0.00     0.013 A 
HETATM   21  C   UNL     1      43.225 -20.069   2.300  1.00  0.00     0.043 A 
HETATM   22  C   UNL     1      43.937 -20.331   3.463  1.00  0.00     0.116 A 
HETATM   23  F   UNL     1      44.266 -21.593   3.764  1.00  0.00    -0.206 F 
HETATM   24  C   UNL     1      44.311 -19.303   4.318  1.00  0.00     0.043 A 
HETATM   25  C   UNL     1      43.969 -17.986   4.004  1.00  0.00     0.013 A 
ENDBRANCH  16  19
ENDBRANCH  15  16
ENDBRANCH   2  15
TORSDOF 6
ENDMDL
MODEL 6
REMARK VINA RESULT:      -7.2      5.279      7.459
REMARK  6 active torsions:
REMARK  status: ('A' for Active; 'I' for Inactive)
REMARK    1  A    between atoms: N_2  and  C_4 
REMARK    2  A    between atoms: N_2  and  C_14 
REMARK    3  A    between atoms: C_5  and  O_6 
REMARK    4  A    between atoms: C_14  and  C_15 
REMARK    5  A    between atoms: C_15  and  O_16 
REMARK    6  A    between atoms: C_15  and  C_17 
ROOT
HETATM    1  C   UNL     1      41.731 -12.848   3.256  1.00  0.00     0.270 C 
HETATM    2  N   UNL     1      41.367 -13.967   2.316  1.00  0.00    -0.065 N 
HETATM    3  H   UNL     1      42.048 -13.983   1.536  1.00  0.00     0.280 HD
ENDROOT
BRANCH   2   4
HETATM    4  C   UNL     1      41.488 -15.375   2.922  1.00  0.00     0.225 C 
HETATM    5  C   UNL     1      42.082 -16.363   1.861  1.00  0.00     0.183 C 
HETATM    6  C   UNL     1      42.827 -17.336   2.716  1.00  0.00    -0.021 A 
HETATM    7  C   UNL     1      43.047 -16.809   3.992  1.00  0.00    -0.047 A 
HETATM    8  C   UNL     1      43.296 -18.594   2.370  1.00  0.00     0.010 A 
HETATM    9  C   UNL     1      42.492 -15.424   4.104  1.00  0.00     0.075 C 
HETATM   10  C   UNL     1      43.749 -17.521   4.947  1.00  0.00     0.008 A 
HETATM   11  C   UNL     1      44.220 -18.791   4.611  1.00  0.00     0.001 A 
HETATM   12  C   UNL     1      43.994 -19.324   3.333  1.00  0.00     0.001 A 
BRANCH   5  13
HETATM   13  O   UNL     1      42.971 -15.639   1.002  1.00  0.00    -0.389 OA
HETATM   14  H   UNL     1      43.835 -15.591   1.461  1.00  0.00     0.210 HD
ENDBRANCH   5  13
ENDBRANCH   2   4
BRANCH   2  15
HETATM   15  C   UNL     1      39.987 -13.743   1.669  1.00  0.00     0.271 C 
BRANCH  15  16
HETATM   16  C   UNL     1      40.023 -13.873   0.126  1.00  0.00     0.177 C 
BRANCH  16  17
HETATM   17  O   UNL     1      41.329 -13.572  -0.367  1.00  0.00    -0.389 OA
HETATM   18  H   UNL     1      41.973 -14.006   0.226  1.00  0.00     0.210 HD
ENDBRANCH  16  17
BRANCH  16  19
HETATM   19  C   UNL     1      39.014 -12.950  -0.524  1.00  0.00    -0.028 A 
HETATM   20  C   UNL     1      38.652 -11.746   0.105  1.00  0.00     0.013 A 
HETATM   21  C   UNL     1      37.732 -10.884  -0.496  1.00  0.00     0.043 A 
HETATM   22  C   UNL     1      37.174 -11.219  -1.722  1.00  0.00     0.116 A 
HETATM   23  F   UNL     1      36.294 -10.390  -2.295  1.00  0.00    -0.206 F 
HETATM   24  C   UNL     1      37.517 -12.403  -2.363  1.00  0.00     0.043 A 
HETATM   25  C   UNL     1      38.436 -13.269  -1.768  1.00  0.00     0.013 A 
ENDBRANCH  16  19
ENDBRANCH  15  16
ENDBRANCH   2  15
TORSDOF 6
ENDMDL
MODEL 7
REMARK VINA RESULT:      -7.1      3.806      5.023
REMARK  6 active torsions:
REMARK  status: ('A' for Active; 'I' for Inactive)
REMARK    1  A    between atoms: N_2  and  C_4 
REMARK    2  A    between atoms: N_2  and  C_14 
REMARK    3  A    between atoms: C_5  and  O_6 
REMARK    4  A    between atoms: C_14  and  C_15 
REMARK    5  A    between atoms: C_15  and  O_16 
REMARK    6  A    between atoms: C_15  and  C_17 
ROOT
HETATM    1  C   UNL     1      43.549 -14.571   6.239  1.00  0.00     0.270 C 
HETATM    2  N   UNL     1      42.319 -14.898   5.435  1.00  0.00    -0.065 N 
HETATM    3  H   UNL     1      42.371 -14.405   4.527  1.00  0.00     0.280 HD
ENDROOT
BRANCH   2   4
HETATM    4  C   UNL     1      42.195 -16.377   5.029  1.00  0.00     0.225 C 
HETATM    5  C   UNL     1      42.337 -16.518   3.476  1.00  0.00     0.183 C 
HETATM    6  C   UNL     1      42.958 -17.868   3.335  1.00  0.00    -0.021 A 
HETATM    7  C   UNL     1      43.517 -18.286   4.545  1.00  0.00    -0.047 A 
HETATM    8  C   UNL     1      43.038 -18.659   2.199  1.00  0.00     0.010 A 
HETATM    9  C   UNL     1      43.346 -17.244   5.605  1.00  0.00     0.075 C 
HETATM   10  C   UNL     1      44.180 -19.496   4.647  1.00  0.00     0.008 A 
HETATM   11  C   UNL     1      44.260 -20.302   3.510  1.00  0.00     0.001 A 
HETATM   12  C   UNL     1      43.693 -19.887   2.295  1.00  0.00     0.001 A 
BRANCH   5  13
HETATM   13  O   UNL     1      43.212 -15.490   2.997  1.00  0.00    -0.389 OA
HETATM   14  H   UNL     1      44.128 -15.797   3.160  1.00  0.00     0.210 HD
ENDBRANCH   5  13
ENDBRANCH   2   4
BRANCH   2  15
HETATM   15  C   UNL     1      41.036 -14.389   6.120  1.00  0.00     0.271 C 
BRANCH  15  16
HETATM   16  C   UNL     1      40.485 -13.095   5.469  1.00  0.00     0.177 C 
BRANCH  16  17
HETATM   17  O   UNL     1      39.099 -12.937   5.775  1.00  0.00    -0.389 OA
HETATM   18  H   UNL     1      38.594 -13.464   5.125  1.00  0.00     0.210 HD
ENDBRANCH  16  17
BRANCH  16  19
HETATM   19  C   UNL     1      40.670 -13.117   3.967  1.00  0.00    -0.028 A 
HETATM   20  C   UNL     1      39.852 -13.933   3.168  1.00  0.00     0.013 A 
HETATM   21  C   UNL     1      40.010 -13.948   1.780  1.00  0.00     0.043 A 
HETATM   22  C   UNL     1      40.979 -13.149   1.188  1.00  0.00     0.116 A 
HETATM   23  F   UNL     1      41.126 -13.166  -0.142  1.00  0.00    -0.206 F 
HETATM   24  C   UNL     1      41.799 -12.334   1.958  1.00  0.00     0.043 A 
HETATM   25  C   UNL     1      41.646 -12.315   3.346  1.00  0.00     0.013 A 
ENDBRANCH  16  19
ENDBRANCH  15  16
ENDBRANCH   2  15
TORSDOF 6
ENDMDL
MODEL 8
REMARK VINA RESULT:      -7.0      3.212      7.450
REMARK  6 active torsions:
REMARK  status: ('A' for Active; 'I' for Inactive)
REMARK    1  A    between atoms: N_2  and  C_4 
REMARK    2  A    between atoms: N_2  and  C_14 
REMARK    3  A    between atoms: C_5  and  O_6 
REMARK    4  A    between atoms: C_14  and  C_15 
REMARK    5  A    between atoms: C_15  and  O_16 
REMARK    6  A    between atoms: C_15  and  C_17 
ROOT
HETATM    1  C   UNL     1      40.544 -10.976   3.715  1.00  0.00     0.270 C 
HETATM    2  N   UNL     1      41.244 -12.269   4.041  1.00  0.00    -0.065 N 
HETATM    3  H   UNL     1      41.931 -12.475   3.295  1.00  0.00     0.280 HD
ENDROOT
BRANCH   2   4
HETATM    4  C   UNL     1      42.106 -12.225   5.314  1.00  0.00     0.225 C 
HETATM    5  C   UNL     1      43.625 -12.282   4.933  1.00  0.00     0.183 C 
HETATM    6  C   UNL     1      44.257 -11.492   6.031  1.00  0.00    -0.021 A 
HETATM    7  C   UNL     1      43.305 -10.713   6.694  1.00  0.00    -0.047 A 
HETATM    8  C   UNL     1      45.594 -11.453   6.396  1.00  0.00     0.010 A 
HETATM    9  C   UNL     1      41.949 -10.889   6.087  1.00  0.00     0.075 C 
HETATM   10  C   UNL     1      43.667  -9.870   7.729  1.00  0.00     0.008 A 
HETATM   11  C   UNL     1      45.009  -9.829   8.109  1.00  0.00     0.001 A 
HETATM   12  C   UNL     1      45.965 -10.615   7.449  1.00  0.00     0.001 A 
BRANCH   5  13
HETATM   13  O   UNL     1      43.806 -11.645   3.663  1.00  0.00    -0.389 OA
HETATM   14  H   UNL     1      42.917 -11.383   3.346  1.00  0.00     0.210 HD
ENDBRANCH   5  13
ENDBRANCH   2   4
BRANCH   2  15
HETATM   15  C   UNL     1      40.267 -13.460   4.058  1.00  0.00     0.271 C 
BRANCH  15  16
HETATM   16  C   UNL     1      40.389 -14.351   2.796  1.00  0.00     0.177 C 
BRANCH  16  17
HETATM   17  O   UNL     1      39.142 -14.986   2.515  1.00  0.00    -0.389 OA
HETATM   18  H   UNL     1      38.927 -14.811   1.577  1.00  0.00     0.210 HD
ENDBRANCH  16  17
BRANCH  16  19
HETATM   19  C   UNL     1      41.462 -15.403   2.971  1.00  0.00    -0.028 A 
HETATM   20  C   UNL     1      41.723 -15.940   4.244  1.00  0.00     0.013 A 
HETATM   21  C   UNL     1      42.703 -16.920   4.410  1.00  0.00     0.043 A 
HETATM   22  C   UNL     1      43.422 -17.368   3.310  1.00  0.00     0.116 A 
HETATM   23  F   UNL     1      44.360 -18.308   3.474  1.00  0.00    -0.206 F 
HETATM   24  C   UNL     1      43.183 -16.852   2.043  1.00  0.00     0.043 A 
HETATM   25  C   UNL     1      42.204 -15.872   1.870  1.00  0.00     0.013 A 
ENDBRANCH  16  19
ENDBRANCH  15  16
ENDBRANCH   2  15
TORSDOF 6
ENDMDL
MODEL 9
REMARK VINA RESULT:      -6.9      3.621      4.535
REMARK  6 active torsions:
REMARK  status: ('A' for Active; 'I' for Inactive)
REMARK    1  A    between atoms: N_2  and  C_4 
REMARK    2  A    between atoms: N_2  and  C_14 
REMARK    3  A    between atoms: C_5  and  O_6 
REMARK    4  A    between atoms: C_14  and  C_15 
REMARK    5  A    between atoms: C_15  and  O_16 
REMARK    6  A    between atoms: C_15  and  C_17 
ROOT
HETATM    1  C   UNL     1      42.984 -14.065   4.583  1.00  0.00     0.270 C 
HETATM    2  N   UNL     1      41.967 -14.758   3.716  1.00  0.00    -0.065 N 
HETATM    3  H   UNL     1      42.220 -14.616   2.723  1.00  0.00     0.280 HD
ENDROOT
BRANCH   2   4
HETATM    4  C   UNL     1      41.943 -16.290   3.859  1.00  0.00     0.225 C 
HETATM    5  C   UNL     1      42.208 -16.960   2.468  1.00  0.00     0.183 C 
HETATM    6  C   UNL     1      42.900 -18.226   2.853  1.00  0.00    -0.021 A 
HETATM    7  C   UNL     1      43.385 -18.149   4.162  1.00  0.00    -0.047 A 
HETATM    8  C   UNL     1      43.103 -19.359   2.080  1.00  0.00     0.010 A 
HETATM    9  C   UNL     1      43.086 -16.814   4.768  1.00  0.00     0.075 C 
HETATM   10  C   UNL     1      44.093 -19.196   4.725  1.00  0.00     0.008 A 
HETATM   11  C   UNL     1      44.296 -20.344   3.957  1.00  0.00     0.001 A 
HETATM   12  C   UNL     1      43.804 -20.425   2.645  1.00  0.00     0.001 A 
BRANCH   5  13
HETATM   13  O   UNL     1      43.069 -16.109   1.702  1.00  0.00    -0.389 OA
HETATM   14  H   UNL     1      43.087 -16.468   0.791  1.00  0.00     0.210 HD
ENDBRANCH   5  13
ENDBRANCH   2   4
BRANCH   2  15
HETATM   15  C   UNL     1      40.561 -14.150   3.886  1.00  0.00     0.271 C 
BRANCH  15  16
HETATM   16  C   UNL     1      40.371 -13.464   5.263  1.00  0.00     0.177 C 
BRANCH  16  17
HETATM   17  O   UNL     1      39.619 -14.307   6.137  1.00  0.00    -0.389 OA
HETATM   18  H   UNL     1      38.905 -13.764   6.526  1.00  0.00     0.210 HD
ENDBRANCH  16  17
BRANCH  16  19
HETATM   19  C   UNL     1      39.667 -12.132   5.117  1.00  0.00    -0.028 A 
HETATM   20  C   UNL     1      39.402 -11.610   3.839  1.00  0.00     0.013 A 
HETATM   21  C   UNL     1      38.742 -10.388   3.698  1.00  0.00     0.043 A 
HETATM   22  C   UNL     1      38.343  -9.687   4.828  1.00  0.00     0.116 A 
HETATM   23  F   UNL     1      37.710  -8.516   4.689  1.00  0.00    -0.206 F 
HETATM   24  C   UNL     1      38.594 -10.182   6.101  1.00  0.00     0.043 A 
HETATM   25  C   UNL     1      39.254 -11.404   6.249  1.00  0.00     0.013 A 
ENDBRANCH  16  19
ENDBRANCH  15  16
ENDBRANCH   2  15
TORSDOF 6
ENDMDL
MODEL 10
REMARK VINA RESULT:      -6.9      6.782      9.329
REMARK  6 active torsions:
REMARK  status: ('A' for Active; 'I' for Inactive)
REMARK    1  A    between atoms: N_2  and  C_4 
REMARK    2  A    between atoms: N_2  and  C_14 
REMARK    3  A    between atoms: C_5  and  O_6 
REMARK    4  A    between atoms: C_14  and  C_15 
REMARK    5  A    between atoms: C_15  and  O_16 
REMARK    6  A    between atoms: C_15  and  C_17 
ROOT
HETATM    1  C   UNL     1      39.491 -14.577  -1.175  1.00  0.00     0.270 C 
HETATM    2  N   UNL     1      40.543 -13.583  -0.763  1.00  0.00    -0.065 N 
HETATM    3  H   UNL     1      41.422 -13.798  -1.264  1.00  0.00     0.280 HD
ENDROOT
BRANCH   2   4
HETATM    4  C   UNL     1      40.246 -12.131  -1.175  1.00  0.00     0.225 C 
HETATM    5  C   UNL     1      41.273 -11.664  -2.262  1.00  0.00     0.183 C 
HETATM    6  C   UNL     1      40.469 -10.694  -3.063  1.00  0.00    -0.021 A 
HETATM    7  C   UNL     1      39.103 -10.866  -2.824  1.00  0.00    -0.047 A 
HETATM    8  C   UNL     1      40.924  -9.741  -3.960  1.00  0.00     0.010 A 
HETATM    9  C   UNL     1      38.861 -11.984  -1.860  1.00  0.00     0.075 C 
HETATM   10  C   UNL     1      38.160 -10.098  -3.484  1.00  0.00     0.008 A 
HETATM   11  C   UNL     1      38.609  -9.131  -4.385  1.00  0.00     0.001 A 
HETATM   12  C   UNL     1      39.981  -8.953  -4.620  1.00  0.00     0.001 A 
BRANCH   5  13
HETATM   13  O   UNL     1      41.658 -12.797  -3.050  1.00  0.00    -0.389 OA
HETATM   14  H   UNL     1      41.135 -13.559  -2.727  1.00  0.00     0.210 HD
ENDBRANCH   5  13
ENDBRANCH   2   4
BRANCH   2  15
HETATM   15  C   UNL     1      40.874 -13.690   0.739  1.00  0.00     0.271 C 
BRANCH  15  16
HETATM   16  C   UNL     1      40.254 -14.948   1.398  1.00  0.00     0.177 C 
BRANCH  16  17
HETATM   17  O   UNL     1      39.186 -14.577   2.269  1.00  0.00    -0.389 OA
HETATM   18  H   UNL     1      39.579 -14.342   3.132  1.00  0.00     0.210 HD
ENDBRANCH  16  17
BRANCH  16  19
HETATM   19  C   UNL     1      41.293 -15.725   2.178  1.00  0.00    -0.028 A 
HETATM   20  C   UNL     1      42.492 -16.118   1.557  1.00  0.00     0.013 A 
HETATM   21  C   UNL     1      43.460 -16.823   2.275  1.00  0.00     0.043 A 
HETATM   22  C   UNL     1      43.237 -17.136   3.609  1.00  0.00     0.116 A 
HETATM   23  F   UNL     1      44.168 -17.812   4.293  1.00  0.00    -0.206 F 
HETATM   24  C   UNL     1      42.060 -16.759   4.243  1.00  0.00     0.043 A 
HETATM   25  C   UNL     1      41.088 -16.053   3.531  1.00  0.00     0.013 A 
ENDBRANCH  16  19
ENDBRANCH  15  16
ENDBRANCH   2  15
TORSDOF 6
ENDMDL
