MODEL 1
REMARK VINA RESULT:      -8.2      0.000      0.000
REMARK  3 active torsions:
REMARK  status: ('A' for Active; 'I' for Inactive)
REMARK    1  A    between atoms: C_4  and  N_5 
REMARK       I    between atoms: N_5  and  C_6 
REMARK    2  A    between atoms: C_6  and  C_7 
REMARK    3  A    between atoms: C_7  and  C_8 
ROOT
HETATM    1  C   UNL     1      41.770 -15.274   7.058  1.00  0.00     0.286 C 
HETATM    2  N   UNL     1      42.711 -14.272   6.386  1.00  0.00    -0.056 N 
HETATM    3  H   UNL     1      42.797 -13.466   7.018  1.00  0.00     0.278 HD
HETATM    4  H   UNL     1      43.668 -14.686   6.380  1.00  0.00     0.278 HD
HETATM    5  C   UNL     1      42.308 -13.823   5.011  1.00  0.00     0.209 C 
HETATM    6  C   UNL     1      40.870 -13.258   5.085  1.00  0.00     0.115 C 
HETATM    7  N   UNL     1      39.959 -14.225   5.685  1.00  0.00    -0.353 N 
HETATM    8  C   UNL     1      40.285 -15.104   6.683  1.00  0.00     0.249 C 
HETATM    9  O   UNL     1      39.402 -15.765   7.222  1.00  0.00    -0.271 OA
HETATM   10  C   UNL     1      43.308 -12.782   4.508  1.00  0.00     0.035 C 
HETATM   11  C   UNL     1      43.229 -11.454   5.261  1.00  0.00     0.002 C 
HETATM   12  C   UNL     1      41.804 -10.909   5.302  1.00  0.00     0.002 C 
HETATM   13  C   UNL     1      40.811 -11.928   5.853  1.00  0.00     0.027 C 
HETATM   14  H   UNL     1      38.959 -14.143   5.505  1.00  0.00     0.163 HD
ENDROOT
BRANCH   1  15
HETATM   15  C   UNL     1      42.199 -16.730   6.817  1.00  0.00     0.146 C 
BRANCH  15  16
HETATM   16  C   UNL     1      43.702 -16.824   6.801  1.00  0.00     0.224 C 
HETATM   17  N   UNL     1      44.404 -17.307   5.745  1.00  0.00    -0.327 N 
HETATM   18  H   UNL     1      45.378 -17.487   5.976  1.00  0.00     0.169 HD
HETATM   19  O   UNL     1      44.315 -16.499   7.830  1.00  0.00    -0.273 OA
BRANCH  17  20
HETATM   20  C   UNL     1      44.036 -17.639   4.430  1.00  0.00     0.035 A 
HETATM   21  C   UNL     1      44.051 -18.932   3.906  1.00  0.00     0.036 A 
HETATM   22  C   UNL     1      43.679 -19.166   2.573  1.00  0.00    -0.059 A 
HETATM   23  C   UNL     1      43.667 -20.559   2.010  1.00  0.00     0.048 C 
HETATM   24  C   UNL     1      43.254 -18.095   1.778  1.00  0.00     0.013 A 
HETATM   25  C   UNL     1      43.187 -16.802   2.301  1.00  0.00    -0.059 A 
HETATM   26  C   UNL     1      43.577 -16.585   3.628  1.00  0.00     0.036 A 
HETATM   27  C   UNL     1      42.761 -15.654   1.431  1.00  0.00     0.048 C 
ENDBRANCH  17  20
ENDBRANCH  15  16
ENDBRANCH   1  15
TORSDOF 3
ENDMDL
MODEL 2
REMARK VINA RESULT:      -8.1      1.416      5.426
REMARK  3 active torsions:
REMARK  status: ('A' for Active; 'I' for Inactive)
REMARK    1  A    between atoms: C_4  and  N_5 
REMARK       I    between atoms: N_5  and  C_6 
REMARK    2  A    between atoms: C_6  and  C_7 
REMARK    3  A    between atoms: C_7  and  C_8 
ROOT
HETATM    1  C   UNL     1      42.292 -16.751   6.356  1.00  0.00     0.286 C 
HETATM    2  N   UNL     1      42.087 -16.992   4.860  1.00  0.00    -0.056 N 
HETATM    3  H   UNL     1      41.832 -17.980   4.745  1.00  0.00     0.278 HD
HETATM    4  H   UNL     1      41.229 -16.478   4.567  1.00  0.00     0.278 HD
HETATM    5  C   UNL     1      43.253 -16.643   3.980  1.00  0.00     0.209 C 
HETATM    6  C   UNL     1      44.496 -17.407   4.492  1.00  0.00     0.115 C 
HETATM    7  N   UNL     1      44.723 -17.147   5.909  1.00  0.00    -0.353 N 
HETATM    8  C   UNL     1      43.741 -16.953   6.843  1.00  0.00     0.249 C 
HETATM    9  O   UNL     1      44.038 -16.897   8.033  1.00  0.00    -0.271 OA
HETATM   10  C   UNL     1      42.916 -17.001   2.532  1.00  0.00     0.035 C 
HETATM   11  C   UNL     1      42.831 -18.507   2.286  1.00  0.00     0.002 C 
HETATM   12  C   UNL     1      44.077 -19.234   2.782  1.00  0.00     0.002 C 
HETATM   13  C   UNL     1      44.387 -18.920   4.242  1.00  0.00     0.027 C 
HETATM   14  H   UNL     1      45.652 -17.298   6.299  1.00  0.00     0.163 HD
ENDROOT
BRANCH   1  15
HETATM   15  C   UNL     1      41.787 -15.368   6.800  1.00  0.00     0.146 C 
BRANCH  15  16
HETATM   16  C   UNL     1      40.338 -15.207   6.421  1.00  0.00     0.224 C 
HETATM   17  N   UNL     1      39.930 -14.515   5.328  1.00  0.00    -0.327 N 
HETATM   18  H   UNL     1      38.930 -14.336   5.333  1.00  0.00     0.169 HD
HETATM   19  O   UNL     1      39.483 -15.682   7.184  1.00  0.00    -0.273 OA
BRANCH  17  20
HETATM   20  C   UNL     1      40.623 -13.972   4.233  1.00  0.00     0.035 A 
HETATM   21  C   UNL     1      41.669 -13.053   4.333  1.00  0.00     0.036 A 
HETATM   22  C   UNL     1      42.293 -12.554   3.180  1.00  0.00    -0.059 A 
HETATM   23  C   UNL     1      43.437 -11.585   3.281  1.00  0.00     0.048 C 
HETATM   24  C   UNL     1      41.885 -13.013   1.922  1.00  0.00     0.013 A 
HETATM   25  C   UNL     1      40.873 -13.968   1.805  1.00  0.00    -0.059 A 
HETATM   26  C   UNL     1      40.251 -14.443   2.966  1.00  0.00     0.036 A 
HETATM   27  C   UNL     1      40.419 -14.429   0.450  1.00  0.00     0.048 C 
ENDBRANCH  17  20
ENDBRANCH  15  16
ENDBRANCH   1  15
TORSDOF 3
ENDMDL
MODEL 3
REMARK VINA RESULT:      -8.0      2.659      4.331
REMARK  3 active torsions:
REMARK  status: ('A' for Active; 'I' for Inactive)
REMARK    1  A    between atoms: C_4  and  N_5 
REMARK       I    between atoms: N_5  and  C_6 
REMARK    2  A    between atoms: C_6  and  C_7 
REMARK    3  A    between atoms: C_7  and  C_8 
ROOT
HETATM    1  C   UNL     1      42.730 -12.296   3.102  1.00  0.00     0.286 C 
HETATM    2  N   UNL     1      41.376 -12.600   3.746  1.00  0.00    -0.056 N 
HETATM    3  H   UNL     1      40.793 -11.762   3.634  1.00  0.00     0.278 HD
HETATM    4  H   UNL     1      40.897 -13.317   3.160  1.00  0.00     0.278 HD
HETATM    5  C   UNL     1      41.422 -13.021   5.187  1.00  0.00     0.209 C 
HETATM    6  C   UNL     1      42.177 -11.936   5.988  1.00  0.00     0.115 C 
HETATM    7  N   UNL     1      43.487 -11.672   5.405  1.00  0.00    -0.353 N 
HETATM    8  C   UNL     1      43.778 -11.707   4.068  1.00  0.00     0.249 C 
HETATM    9  O   UNL     1      44.873 -11.317   3.675  1.00  0.00    -0.271 OA
HETATM   10  C   UNL     1      39.995 -13.223   5.697  1.00  0.00     0.035 C 
HETATM   11  C   UNL     1      39.207 -11.919   5.820  1.00  0.00     0.002 C 
HETATM   12  C   UNL     1      39.965 -10.873   6.632  1.00  0.00     0.002 C 
HETATM   13  C   UNL     1      41.372 -10.631   6.093  1.00  0.00     0.027 C 
HETATM   14  H   UNL     1      44.212 -11.248   5.983  1.00  0.00     0.163 HD
ENDROOT
BRANCH   1  15
HETATM   15  C   UNL     1      43.323 -13.517   2.382  1.00  0.00     0.146 C 
BRANCH  15  16
HETATM   16  C   UNL     1      42.221 -14.304   1.720  1.00  0.00     0.224 C 
HETATM   17  N   UNL     1      42.101 -15.650   1.832  1.00  0.00    -0.327 N 
HETATM   18  H   UNL     1      41.435 -16.037   1.169  1.00  0.00     0.169 HD
HETATM   19  O   UNL     1      41.428 -13.690   0.990  1.00  0.00    -0.273 OA
BRANCH  17  20
HETATM   20  C   UNL     1      42.743 -16.598   2.648  1.00  0.00     0.035 A 
HETATM   21  C   UNL     1      43.173 -16.358   3.954  1.00  0.00     0.036 A 
HETATM   22  C   UNL     1      43.819 -17.365   4.688  1.00  0.00    -0.059 A 
HETATM   23  C   UNL     1      44.260 -17.122   6.104  1.00  0.00     0.048 C 
HETATM   24  C   UNL     1      43.999 -18.629   4.115  1.00  0.00     0.013 A 
HETATM   25  C   UNL     1      43.532 -18.900   2.826  1.00  0.00    -0.059 A 
HETATM   26  C   UNL     1      42.903 -17.880   2.103  1.00  0.00     0.036 A 
HETATM   27  C   UNL     1      43.759 -20.250   2.207  1.00  0.00     0.048 C 
ENDBRANCH  17  20
ENDBRANCH  15  16
ENDBRANCH   1  15
TORSDOF 3
ENDMDL
MODEL 4
REMARK VINA RESULT:      -7.9      2.119      5.561
REMARK  3 active torsions:
REMARK  status: ('A' for Active; 'I' for Inactive)
REMARK    1  A    between atoms: C_4  and  N_5 
REMARK       I    between atoms: N_5  and  C_6 
REMARK    2  A    between atoms: C_6  and  C_7 
REMARK    3  A    between atoms: C_7  and  C_8 
ROOT
HETATM    1  C   UNL     1      41.977 -15.850   5.704  1.00  0.00     0.286 C 
HETATM    2  N   UNL     1      42.079 -16.383   4.274  1.00  0.00    -0.056 N 
HETATM    3  H   UNL     1      41.610 -17.296   4.257  1.00  0.00     0.278 HD
HETATM    4  H   UNL     1      41.480 -15.784   3.666  1.00  0.00     0.278 HD
HETATM    5  C   UNL     1      43.470 -16.494   3.720  1.00  0.00     0.209 C 
HETATM    6  C   UNL     1      44.312 -17.359   4.688  1.00  0.00     0.115 C 
HETATM    7  N   UNL     1      44.255 -16.831   6.045  1.00  0.00    -0.353 N 
HETATM    8  C   UNL     1      43.164 -16.228   6.613  1.00  0.00     0.249 C 
HETATM    9  O   UNL     1      43.173 -15.961   7.810  1.00  0.00    -0.271 OA
HETATM   10  C   UNL     1      43.407 -17.100   2.318  1.00  0.00     0.035 C 
HETATM   11  C   UNL     1      42.993 -18.571   2.313  1.00  0.00     0.002 C 
HETATM   12  C   UNL     1      43.852 -19.405   3.259  1.00  0.00     0.002 C 
HETATM   13  C   UNL     1      43.876 -18.832   4.673  1.00  0.00     0.027 C 
HETATM   14  H   UNL     1      44.992 -17.076   6.705  1.00  0.00     0.163 HD
ENDROOT
BRANCH   1  15
HETATM   15  C   UNL     1      41.759 -14.329   5.747  1.00  0.00     0.146 C 
BRANCH  15  16
HETATM   16  C   UNL     1      40.284 -14.024   5.755  1.00  0.00     0.224 C 
HETATM   17  N   UNL     1      39.627 -13.508   4.687  1.00  0.00    -0.327 N 
HETATM   18  H   UNL     1      38.696 -13.179   4.925  1.00  0.00     0.169 HD
HETATM   19  O   UNL     1      39.661 -14.199   6.815  1.00  0.00    -0.273 OA
BRANCH  17  20
HETATM   20  C   UNL     1      40.001 -13.308   3.346  1.00  0.00     0.035 A 
HETATM   21  C   UNL     1      39.782 -14.226   2.318  1.00  0.00     0.036 A 
HETATM   22  C   UNL     1      40.204 -13.944   1.009  1.00  0.00    -0.059 A 
HETATM   23  C   UNL     1      39.947 -14.915  -0.109  1.00  0.00     0.048 C 
HETATM   24  C   UNL     1      40.815 -12.715   0.731  1.00  0.00     0.013 A 
HETATM   25  C   UNL     1      40.999 -11.767   1.739  1.00  0.00    -0.059 A 
HETATM   26  C   UNL     1      40.586 -12.071   3.042  1.00  0.00     0.036 A 
HETATM   27  C   UNL     1      41.686 -10.466   1.439  1.00  0.00     0.048 C 
ENDBRANCH  17  20
ENDBRANCH  15  16
ENDBRANCH   1  15
TORSDOF 3
ENDMDL
MODEL 5
REMARK VINA RESULT:      -7.8      1.360      2.349
REMARK  3 active torsions:
REMARK  status: ('A' for Active; 'I' for Inactive)
REMARK    1  A    between atoms: C_4  and  N_5 
REMARK       I    between atoms: N_5  and  C_6 
REMARK    2  A    between atoms: C_6  and  C_7 
REMARK    3  A    between atoms: C_7  and  C_8 
ROOT
HETATM    1  C   UNL     1      41.075 -14.687   6.327  1.00  0.00     0.286 C 
HETATM    2  N   UNL     1      42.073 -13.681   6.905  1.00  0.00    -0.056 N 
HETATM    3  H   UNL     1      41.554 -12.816   7.095  1.00  0.00     0.278 HD
HETATM    4  H   UNL     1      42.354 -14.016   7.851  1.00  0.00     0.278 HD
HETATM    5  C   UNL     1      43.277 -13.398   6.052  1.00  0.00     0.209 C 
HETATM    6  C   UNL     1      42.789 -12.946   4.657  1.00  0.00     0.115 C 
HETATM    7  N   UNL     1      41.871 -13.921   4.081  1.00  0.00    -0.353 N 
HETATM    8  C   UNL     1      40.972 -14.672   4.789  1.00  0.00     0.249 C 
HETATM    9  O   UNL     1      40.141 -15.348   4.190  1.00  0.00    -0.271 OA
HETATM   10  C   UNL     1      44.136 -12.333   6.733  1.00  0.00     0.035 C 
HETATM   11  C   UNL     1      43.483 -10.950   6.751  1.00  0.00     0.002 C 
HETATM   12  C   UNL     1      43.031 -10.519   5.359  1.00  0.00     0.002 C 
HETATM   13  C   UNL     1      42.130 -11.558   4.697  1.00  0.00     0.027 C 
HETATM   14  H   UNL     1      41.731 -13.936   3.072  1.00  0.00     0.163 HD
ENDROOT
BRANCH   1  15
HETATM   15  C   UNL     1      41.344 -16.121   6.812  1.00  0.00     0.146 C 
BRANCH  15  16
HETATM   16  C   UNL     1      42.789 -16.263   7.211  1.00  0.00     0.224 C 
HETATM   17  N   UNL     1      43.706 -16.919   6.456  1.00  0.00    -0.327 N 
HETATM   18  H   UNL     1      44.571 -17.093   6.961  1.00  0.00     0.169 HD
HETATM   19  O   UNL     1      43.134 -15.809   8.313  1.00  0.00    -0.273 OA
BRANCH  17  20
HETATM   20  C   UNL     1      43.670 -17.431   5.148  1.00  0.00     0.035 A 
HETATM   21  C   UNL     1      43.519 -16.655   3.997  1.00  0.00     0.036 A 
HETATM   22  C   UNL     1      43.480 -17.258   2.731  1.00  0.00    -0.059 A 
HETATM   23  C   UNL     1      43.344 -16.427   1.486  1.00  0.00     0.048 C 
HETATM   24  C   UNL     1      43.632 -18.645   2.622  1.00  0.00     0.013 A 
HETATM   25  C   UNL     1      43.833 -19.431   3.759  1.00  0.00    -0.059 A 
HETATM   26  C   UNL     1      43.853 -18.815   5.016  1.00  0.00     0.036 A 
HETATM   27  C   UNL     1      43.961 -20.923   3.636  1.00  0.00     0.048 C 
ENDBRANCH  17  20
ENDBRANCH  15  16
ENDBRANCH   1  15
TORSDOF 3
ENDMDL
MODEL 6
REMARK VINA RESULT:      -7.7      3.932      5.772
REMARK  3 active torsions:
REMARK  status: ('A' for Active; 'I' for Inactive)
REMARK    1  A    between atoms: C_4  and  N_5 
REMARK       I    between atoms: N_5  and  C_6 
REMARK    2  A    between atoms: C_6  and  C_7 
REMARK    3  A    between atoms: C_7  and  C_8 
ROOT
HETATM    1  C   UNL     1      41.961 -13.140   1.497  1.00  0.00     0.286 C 
HETATM    2  N   UNL     1      41.226 -13.859   0.366  1.00  0.00    -0.056 N 
HETATM    3  H   UNL     1      41.905 -14.009  -0.390  1.00  0.00     0.278 HD
HETATM    4  H   UNL     1      41.000 -14.823   0.692  1.00  0.00     0.278 HD
HETATM    5  C   UNL     1      40.000 -13.166  -0.157  1.00  0.00     0.209 C 
HETATM    6  C   UNL     1      40.396 -11.734  -0.585  1.00  0.00     0.115 C 
HETATM    7  N   UNL     1      41.059 -11.027   0.503  1.00  0.00    -0.353 N 
HETATM    8  C   UNL     1      41.890 -11.601   1.428  1.00  0.00     0.249 C 
HETATM    9  O   UNL     1      42.517 -10.889   2.206  1.00  0.00    -0.271 OA
HETATM   10  C   UNL     1      39.422 -13.974  -1.319  1.00  0.00     0.035 C 
HETATM   11  C   UNL     1      40.302 -13.949  -2.569  1.00  0.00     0.002 C 
HETATM   12  C   UNL     1      40.661 -12.525  -2.982  1.00  0.00     0.002 C 
HETATM   13  C   UNL     1      41.287 -11.732  -1.839  1.00  0.00     0.027 C 
HETATM   14  H   UNL     1      41.079 -10.008   0.495  1.00  0.00     0.163 HD
ENDROOT
BRANCH   1  15
HETATM   15  C   UNL     1      41.505 -13.615   2.886  1.00  0.00     0.146 C 
BRANCH  15  16
HETATM   16  C   UNL     1      40.487 -14.715   2.741  1.00  0.00     0.224 C 
HETATM   17  N   UNL     1      40.793 -16.031   2.860  1.00  0.00    -0.327 N 
HETATM   18  H   UNL     1      40.043 -16.635   2.536  1.00  0.00     0.169 HD
HETATM   19  O   UNL     1      39.327 -14.395   2.437  1.00  0.00    -0.273 OA
BRANCH  17  20
HETATM   20  C   UNL     1      41.948 -16.702   3.297  1.00  0.00     0.035 A 
HETATM   21  C   UNL     1      42.699 -16.340   4.417  1.00  0.00     0.036 A 
HETATM   22  C   UNL     1      43.848 -17.064   4.769  1.00  0.00    -0.059 A 
HETATM   23  C   UNL     1      44.646 -16.697   5.988  1.00  0.00     0.048 C 
HETATM   24  C   UNL     1      44.219 -18.181   4.011  1.00  0.00     0.013 A 
HETATM   25  C   UNL     1      43.453 -18.586   2.916  1.00  0.00    -0.059 A 
HETATM   26  C   UNL     1      42.318 -17.842   2.570  1.00  0.00     0.036 A 
HETATM   27  C   UNL     1      43.877 -19.764   2.088  1.00  0.00     0.048 C 
ENDBRANCH  17  20
ENDBRANCH  15  16
ENDBRANCH   1  15
TORSDOF 3
ENDMDL
MODEL 7
REMARK VINA RESULT:      -7.7      2.180      3.175
REMARK  3 active torsions:
REMARK  status: ('A' for Active; 'I' for Inactive)
REMARK    1  A    between atoms: C_4  and  N_5 
REMARK       I    between atoms: N_5  and  C_6 
REMARK    2  A    between atoms: C_6  and  C_7 
REMARK    3  A    between atoms: C_7  and  C_8 
ROOT
HETATM    1  C   UNL     1      41.419 -14.013   4.831  1.00  0.00     0.286 C 
HETATM    2  N   UNL     1      41.390 -14.729   3.480  1.00  0.00    -0.056 N 
HETATM    3  H   UNL     1      41.955 -14.171   2.829  1.00  0.00     0.278 HD
HETATM    4  H   UNL     1      41.926 -15.618   3.577  1.00  0.00     0.278 HD
HETATM    5  C   UNL     1      40.024 -14.982   2.908  1.00  0.00     0.209 C 
HETATM    6  C   UNL     1      39.272 -13.633   2.829  1.00  0.00     0.115 C 
HETATM    7  N   UNL     1      39.259 -12.965   4.125  1.00  0.00    -0.353 N 
HETATM    8  C   UNL     1      40.272 -13.006   5.045  1.00  0.00     0.249 C 
HETATM    9  O   UNL     1      40.222 -12.282   6.035  1.00  0.00    -0.271 OA
HETATM   10  C   UNL     1      40.167 -15.640   1.536  1.00  0.00     0.035 C 
HETATM   11  C   UNL     1      40.738 -14.702   0.472  1.00  0.00     0.002 C 
HETATM   12  C   UNL     1      39.966 -13.388   0.400  1.00  0.00     0.002 C 
HETATM   13  C   UNL     1      39.866 -12.702   1.760  1.00  0.00     0.027 C 
HETATM   14  H   UNL     1      38.546 -12.261   4.314  1.00  0.00     0.163 HD
ENDROOT
BRANCH   1  15
HETATM   15  C   UNL     1      41.470 -14.995   6.013  1.00  0.00     0.146 C 
BRANCH  15  16
HETATM   16  C   UNL     1      42.851 -14.999   6.615  1.00  0.00     0.224 C 
HETATM   17  N   UNL     1      43.751 -15.990   6.401  1.00  0.00    -0.327 N 
HETATM   18  H   UNL     1      44.544 -15.938   7.035  1.00  0.00     0.169 HD
HETATM   19  O   UNL     1      43.147 -14.078   7.392  1.00  0.00    -0.273 OA
BRANCH  17  20
HETATM   20  C   UNL     1      43.773 -17.080   5.513  1.00  0.00     0.035 A 
HETATM   21  C   UNL     1      43.916 -18.413   5.900  1.00  0.00     0.036 A 
HETATM   22  C   UNL     1      43.941 -19.435   4.938  1.00  0.00    -0.059 A 
HETATM   23  C   UNL     1      44.068 -20.875   5.349  1.00  0.00     0.048 C 
HETATM   24  C   UNL     1      43.783 -19.114   3.585  1.00  0.00     0.013 A 
HETATM   25  C   UNL     1      43.591 -17.789   3.186  1.00  0.00    -0.059 A 
HETATM   26  C   UNL     1      43.584 -16.781   4.157  1.00  0.00     0.036 A 
HETATM   27  C   UNL     1      43.456 -17.450   1.729  1.00  0.00     0.048 C 
ENDBRANCH  17  20
ENDBRANCH  15  16
ENDBRANCH   1  15
TORSDOF 3
ENDMDL
MODEL 8
REMARK VINA RESULT:      -7.6      2.431      3.510
REMARK  3 active torsions:
REMARK  status: ('A' for Active; 'I' for Inactive)
REMARK    1  A    between atoms: C_4  and  N_5 
REMARK       I    between atoms: N_5  and  C_6 
REMARK    2  A    between atoms: C_6  and  C_7 
REMARK    3  A    between atoms: C_7  and  C_8 
ROOT
HETATM    1  C   UNL     1      43.086 -13.321   6.733  1.00  0.00     0.286 C 
HETATM    2  N   UNL     1      43.533 -12.434   7.896  1.00  0.00    -0.056 N 
HETATM    3  H   UNL     1      42.685 -12.048   8.326  1.00  0.00     0.278 HD
HETATM    4  H   UNL     1      43.929 -13.051   8.636  1.00  0.00     0.278 HD
HETATM    5  C   UNL     1      44.492 -11.333   7.542  1.00  0.00     0.209 C 
HETATM    6  C   UNL     1      43.861 -10.483   6.415  1.00  0.00     0.115 C 
HETATM    7  N   UNL     1      43.472 -11.317   5.285  1.00  0.00    -0.353 N 
HETATM    8  C   UNL     1      42.994 -12.597   5.376  1.00  0.00     0.249 C 
HETATM    9  O   UNL     1      42.550 -13.151   4.375  1.00  0.00    -0.271 OA
HETATM   10  C   UNL     1      44.788 -10.502   8.790  1.00  0.00     0.035 C 
HETATM   11  C   UNL     1      43.592  -9.678   9.266  1.00  0.00     0.002 C 
HETATM   12  C   UNL     1      43.001  -8.833   8.141  1.00  0.00     0.002 C 
HETATM   13  C   UNL     1      42.656  -9.668   6.912  1.00  0.00     0.027 C 
HETATM   14  H   UNL     1      43.358 -10.889   4.367  1.00  0.00     0.163 HD
ENDROOT
BRANCH   1  15
HETATM   15  C   UNL     1      43.959 -14.579   6.588  1.00  0.00     0.146 C 
BRANCH  15  16
HETATM   16  C   UNL     1      43.385 -15.697   7.418  1.00  0.00     0.224 C 
HETATM   17  N   UNL     1      43.039 -16.902   6.902  1.00  0.00    -0.327 N 
HETATM   18  H   UNL     1      42.488 -17.459   7.550  1.00  0.00     0.169 HD
HETATM   19  O   UNL     1      43.165 -15.474   8.619  1.00  0.00    -0.273 OA
BRANCH  17  20
HETATM   20  C   UNL     1      43.258 -17.498   5.648  1.00  0.00     0.035 A 
HETATM   21  C   UNL     1      43.129 -16.839   4.424  1.00  0.00     0.036 A 
HETATM   22  C   UNL     1      43.355 -17.522   3.219  1.00  0.00    -0.059 A 
HETATM   23  C   UNL     1      43.245 -16.812   1.899  1.00  0.00     0.048 C 
HETATM   24  C   UNL     1      43.749 -18.865   3.251  1.00  0.00     0.013 A 
HETATM   25  C   UNL     1      43.929 -19.526   4.467  1.00  0.00    -0.059 A 
HETATM   26  C   UNL     1      43.684 -18.834   5.660  1.00  0.00     0.036 A 
HETATM   27  C   UNL     1      44.319 -20.976   4.491  1.00  0.00     0.048 C 
ENDBRANCH  17  20
ENDBRANCH  15  16
ENDBRANCH   1  15
TORSDOF 3
ENDMDL
MODEL 9
REMARK VINA RESULT:      -7.6      2.328      3.500
REMARK  3 active torsions:
REMARK  status: ('A' for Active; 'I' for Inactive)
REMARK    1  A    between atoms: C_4  and  N_5 
REMARK       I    between atoms: N_5  and  C_6 
REMARK    2  A    between atoms: C_6  and  C_7 
REMARK    3  A    between atoms: C_7  and  C_8 
ROOT
HETATM    1  C   UNL     1      40.927 -14.308   3.861  1.00  0.00     0.286 C 
HETATM    2  N   UNL     1      40.549 -12.900   3.399  1.00  0.00    -0.056 N 
HETATM    3  H   UNL     1      41.343 -12.286   3.617  1.00  0.00     0.278 HD
HETATM    4  H   UNL     1      40.516 -12.903   2.357  1.00  0.00     0.278 HD
HETATM    5  C   UNL     1      39.279 -12.345   3.977  1.00  0.00     0.209 C 
HETATM    6  C   UNL     1      39.379 -12.407   5.519  1.00  0.00     0.115 C 
HETATM    7  N   UNL     1      39.696 -13.757   5.969  1.00  0.00    -0.353 N 
HETATM    8  C   UNL     1      40.502 -14.642   5.304  1.00  0.00     0.249 C 
HETATM    9  O   UNL     1      40.826 -15.693   5.848  1.00  0.00    -0.271 OA
HETATM   10  C   UNL     1      39.078 -10.916   3.472  1.00  0.00     0.035 C 
HETATM   11  C   UNL     1      40.092  -9.925   4.043  1.00  0.00     0.002 C 
HETATM   12  C   UNL     1      40.156  -9.992   5.565  1.00  0.00     0.002 C 
HETATM   13  C   UNL     1      40.409 -11.409   6.071  1.00  0.00     0.027 C 
HETATM   14  H   UNL     1      39.473 -14.027   6.926  1.00  0.00     0.163 HD
ENDROOT
BRANCH   1  15
HETATM   15  C   UNL     1      40.408 -15.396   2.906  1.00  0.00     0.146 C 
BRANCH  15  16
HETATM   16  C   UNL     1      41.301 -15.482   1.696  1.00  0.00     0.224 C 
HETATM   17  N   UNL     1      42.458 -16.189   1.677  1.00  0.00    -0.327 N 
HETATM   18  H   UNL     1      43.029 -15.978   0.863  1.00  0.00     0.169 HD
HETATM   19  O   UNL     1      40.985 -14.822   0.694  1.00  0.00    -0.273 OA
BRANCH  17  20
HETATM   20  C   UNL     1      43.025 -17.109   2.575  1.00  0.00     0.035 A 
HETATM   21  C   UNL     1      43.141 -18.480   2.337  1.00  0.00     0.036 A 
HETATM   22  C   UNL     1      43.711 -19.325   3.302  1.00  0.00    -0.059 A 
HETATM   23  C   UNL     1      43.864 -20.797   3.042  1.00  0.00     0.048 C 
HETATM   24  C   UNL     1      44.200 -18.779   4.495  1.00  0.00     0.013 A 
HETATM   25  C   UNL     1      44.135 -17.404   4.729  1.00  0.00    -0.059 A 
HETATM   26  C   UNL     1      43.549 -16.578   3.762  1.00  0.00     0.036 A 
HETATM   27  C   UNL     1      44.631 -16.832   6.025  1.00  0.00     0.048 C 
ENDBRANCH  17  20
ENDBRANCH  15  16
ENDBRANCH   1  15
TORSDOF 3
ENDMDL
MODEL 10
REMARK VINA RESULT:      -7.6      4.408      5.977
REMARK  3 active torsions:
REMARK  status: ('A' for Active; 'I' for Inactive)
REMARK    1  A    between atoms: C_4  and  N_5 
REMARK       I    between atoms: N_5  and  C_6 
REMARK    2  A    between atoms: C_6  and  C_7 
REMARK    3  A    between atoms: C_7  and  C_8 
ROOT
HETATM    1  C   UNL     1      39.979 -13.094   0.970  1.00  0.00     0.286 C 
HETATM    2  N   UNL     1      40.147 -11.727   0.305  1.00  0.00    -0.056 N 
HETATM    3  H   UNL     1      39.210 -11.398   0.045  1.00  0.00     0.278 HD
HETATM    4  H   UNL     1      40.455 -11.050   1.036  1.00  0.00     0.278 HD
HETATM    5  C   UNL     1      41.066 -11.691  -0.883  1.00  0.00     0.209 C 
HETATM    6  C   UNL     1      40.578 -12.741  -1.907  1.00  0.00     0.115 C 
HETATM    7  N   UNL     1      40.456 -14.057  -1.291  1.00  0.00    -0.353 N 
HETATM    8  C   UNL     1      40.069 -14.290   0.002  1.00  0.00     0.249 C 
HETATM    9  O   UNL     1      39.850 -15.439   0.372  1.00  0.00    -0.271 OA
HETATM   10  C   UNL     1      41.076 -10.279  -1.469  1.00  0.00     0.035 C 
HETATM   11  C   UNL     1      39.756  -9.892  -2.135  1.00  0.00     0.002 C 
HETATM   12  C   UNL     1      39.307 -10.933  -3.155  1.00  0.00     0.002 C 
HETATM   13  C   UNL     1      39.246 -12.337  -2.559  1.00  0.00     0.027 C 
HETATM   14  H   UNL     1      40.471 -14.886  -1.882  1.00  0.00     0.163 HD
ENDROOT
BRANCH   1  15
HETATM   15  C   UNL     1      40.957 -13.301   2.138  1.00  0.00     0.146 C 
BRANCH  15  16
HETATM   16  C   UNL     1      40.194 -13.659   3.386  1.00  0.00     0.224 C 
HETATM   17  N   UNL     1      40.474 -14.751   4.140  1.00  0.00    -0.327 N 
HETATM   18  H   UNL     1      39.745 -14.951   4.820  1.00  0.00     0.169 HD
HETATM   19  O   UNL     1      39.224 -12.948   3.697  1.00  0.00    -0.273 OA
BRANCH  17  20
HETATM   20  C   UNL     1      41.542 -15.665   4.129  1.00  0.00     0.035 A 
HETATM   21  C   UNL     1      41.737 -16.643   3.153  1.00  0.00     0.036 A 
HETATM   22  C   UNL     1      42.828 -17.523   3.234  1.00  0.00    -0.059 A 
HETATM   23  C   UNL     1      43.060 -18.561   2.172  1.00  0.00     0.048 C 
HETATM   24  C   UNL     1      43.744 -17.391   4.284  1.00  0.00     0.013 A 
HETATM   25  C   UNL     1      43.589 -16.387   5.243  1.00  0.00    -0.059 A 
HETATM   26  C   UNL     1      42.487 -15.528   5.155  1.00  0.00     0.036 A 
HETATM   27  C   UNL     1      44.559 -16.275   6.384  1.00  0.00     0.048 C 
ENDBRANCH  17  20
ENDBRANCH  15  16
ENDBRANCH   1  15
TORSDOF 3
ENDMDL
