MODEL 1
REMARK VINA RESULT:      -9.2      0.000      0.000
REMARK  5 active torsions:
REMARK  status: ('A' for Active; 'I' for Inactive)
REMARK    1  A    between atoms: O_2  and  C_3 
REMARK    2  A    between atoms: C_6  and  C_7 
REMARK    3  A    between atoms: C_11  and  N_12 
REMARK       I    between atoms: N_15  and  C_16 
REMARK    4  A    between atoms: C_16  and  C_17 
REMARK    5  A    between atoms: C_17  and  C_18 
ROOT
HETATM    1  N   UNL     1      43.140 -11.651   6.525  1.00  0.00    -0.363 N 
HETATM    2  C   UNL     1      42.724 -10.295   6.111  1.00  0.00     0.144 C 
HETATM    3  C   UNL     1      42.176  -9.507   7.309  1.00  0.00     0.145 C 
HETATM    4  N   UNL     1      43.079  -9.511   8.467  1.00  0.00    -0.349 N 
HETATM    5  C   UNL     1      42.929  -8.468   9.377  1.00  0.00     0.224 C 
HETATM    6  O   UNL     1      42.178  -7.514   9.152  1.00  0.00    -0.273 OA
HETATM    7  C   UNL     1      43.595 -10.839   8.830  1.00  0.00     0.145 C 
HETATM    8  C   UNL     1      44.122 -11.646   7.623  1.00  0.00     0.144 C 
ENDROOT
BRANCH   1   9
HETATM    9  C   UNL     1      43.009 -12.689   5.647  1.00  0.00     0.122 A 
HETATM   10  N   UNL     1      42.651 -12.548   4.330  1.00  0.00    -0.262 N 
HETATM   11  N   UNL     1      42.654 -13.689   3.624  1.00  0.00    -0.173 NA
HETATM   12  H   UNL     1      42.401 -11.698   3.845  1.00  0.00     0.191 HD
HETATM   13  C   UNL     1      43.027 -14.629   4.509  1.00  0.00     0.090 A 
HETATM   14  C   UNL     1      43.229 -14.043   5.788  1.00  0.00     0.084 A 
BRANCH  13  15
HETATM   15  C   UNL     1      43.225 -16.030   4.121  1.00  0.00    -0.005 A 
HETATM   16  C   UNL     1      42.914 -16.460   2.823  1.00  0.00     0.016 A 
HETATM   17  C   UNL     1      43.162 -17.778   2.418  1.00  0.00     0.037 A 
HETATM   18  C   UNL     1      43.727 -18.690   3.310  1.00  0.00     0.068 A 
HETATM   19  C   UNL     1      44.007 -18.279   4.614  1.00  0.00     0.037 A 
HETATM   20  C   UNL     1      43.763 -16.962   5.018  1.00  0.00     0.016 A 
BRANCH  18  21
HETATM   21  O   UNL     1      44.037 -19.993   3.038  1.00  0.00    -0.356 OA
HETATM   22  C   UNL     1      43.611 -20.496   1.778  1.00  0.00     0.210 C 
ENDBRANCH  18  21
ENDBRANCH  13  15
ENDBRANCH   1   9
BRANCH   5  23
HETATM   23  C   UNL     1      43.735  -8.499  10.666  1.00  0.00     0.141 C 
BRANCH  23  24
HETATM   24  C   UNL     1      42.913  -8.595  11.932  1.00  0.00    -0.048 A 
HETATM   25  C   UNL     1      41.820  -9.475  11.984  1.00  0.00     0.031 A 
HETATM   26  C   UNL     1      41.087  -9.624  13.163  1.00  0.00     0.034 A 
HETATM   27 CL   UNL     1      39.754 -10.712  13.205  1.00  0.00    -0.084 Cl
HETATM   28  C   UNL     1      41.433  -8.910  14.307  1.00  0.00     0.024 A 
HETATM   29  C   UNL     1      42.525  -8.044  14.272  1.00  0.00     0.002 A 
HETATM   30  C   UNL     1      43.264  -7.894  13.096  1.00  0.00     0.007 A 
ENDBRANCH  23  24
ENDBRANCH   5  23
TORSDOF 5
ENDMDL
MODEL 2
REMARK VINA RESULT:      -9.0      1.094      1.658
REMARK  5 active torsions:
REMARK  status: ('A' for Active; 'I' for Inactive)
REMARK    1  A    between atoms: O_2  and  C_3 
REMARK    2  A    between atoms: C_6  and  C_7 
REMARK    3  A    between atoms: C_11  and  N_12 
REMARK       I    between atoms: N_15  and  C_16 
REMARK    4  A    between atoms: C_16  and  C_17 
REMARK    5  A    between atoms: C_17  and  C_18 
ROOT
HETATM    1  N   UNL     1      43.293 -11.888   6.304  1.00  0.00    -0.363 N 
HETATM    2  C   UNL     1      42.769 -10.573   5.882  1.00  0.00     0.144 C 
HETATM    3  C   UNL     1      42.272  -9.774   7.094  1.00  0.00     0.145 C 
HETATM    4  N   UNL     1      43.263  -9.686   8.175  1.00  0.00    -0.349 N 
HETATM    5  C   UNL     1      43.125  -8.620   9.060  1.00  0.00     0.224 C 
HETATM    6  O   UNL     1      42.305  -7.717   8.867  1.00  0.00    -0.273 OA
HETATM    7  C   UNL     1      43.882 -10.969   8.537  1.00  0.00     0.145 C 
HETATM    8  C   UNL     1      44.357 -11.789   7.318  1.00  0.00     0.144 C 
ENDROOT
BRANCH   1   9
HETATM    9  C   UNL     1      43.154 -12.963   5.473  1.00  0.00     0.122 A 
HETATM   10  N   UNL     1      42.705 -12.888   4.179  1.00  0.00    -0.262 N 
HETATM   11  N   UNL     1      42.714 -14.053   3.514  1.00  0.00    -0.173 NA
HETATM   12  H   UNL     1      42.384 -12.069   3.682  1.00  0.00     0.191 HD
HETATM   13  C   UNL     1      43.187 -14.942   4.403  1.00  0.00     0.090 A 
HETATM   14  C   UNL     1      43.445 -14.300   5.646  1.00  0.00     0.084 A 
BRANCH  13  15
HETATM   15  C   UNL     1      43.424 -16.346   4.052  1.00  0.00    -0.005 A 
HETATM   16  C   UNL     1      44.052 -17.211   4.961  1.00  0.00     0.016 A 
HETATM   17  C   UNL     1      44.223 -18.570   4.667  1.00  0.00     0.037 A 
HETATM   18  C   UNL     1      43.768 -19.086   3.455  1.00  0.00     0.068 A 
HETATM   19  C   UNL     1      43.173 -18.226   2.530  1.00  0.00     0.037 A 
HETATM   20  C   UNL     1      42.997 -16.870   2.825  1.00  0.00     0.016 A 
BRANCH  18  21
HETATM   21  O   UNL     1      43.852 -20.391   3.054  1.00  0.00    -0.356 OA
HETATM   22  C   UNL     1      43.745 -20.633   1.657  1.00  0.00     0.210 C 
ENDBRANCH  18  21
ENDBRANCH  13  15
ENDBRANCH   1   9
BRANCH   5  23
HETATM   23  C   UNL     1      44.031  -8.559  10.280  1.00  0.00     0.141 C 
BRANCH  23  24
HETATM   24  C   UNL     1      43.337  -8.791  11.604  1.00  0.00    -0.048 A 
HETATM   25  C   UNL     1      43.443  -7.827  12.620  1.00  0.00     0.031 A 
HETATM   26  C   UNL     1      42.759  -7.993  13.825  1.00  0.00     0.034 A 
HETATM   27 CL   UNL     1      42.899  -6.797  15.056  1.00  0.00    -0.084 Cl
HETATM   28  C   UNL     1      41.956  -9.111  14.037  1.00  0.00     0.024 A 
HETATM   29  C   UNL     1      41.832 -10.068  13.030  1.00  0.00     0.002 A 
HETATM   30  C   UNL     1      42.510  -9.904  11.819  1.00  0.00     0.007 A 
ENDBRANCH  23  24
ENDBRANCH   5  23
TORSDOF 5
ENDMDL
MODEL 3
REMARK VINA RESULT:      -8.7      3.453     10.731
REMARK  5 active torsions:
REMARK  status: ('A' for Active; 'I' for Inactive)
REMARK    1  A    between atoms: O_2  and  C_3 
REMARK    2  A    between atoms: C_6  and  C_7 
REMARK    3  A    between atoms: C_11  and  N_12 
REMARK       I    between atoms: N_15  and  C_16 
REMARK    4  A    between atoms: C_16  and  C_17 
REMARK    5  A    between atoms: C_17  and  C_18 
ROOT
HETATM    1  N   UNL     1      42.394 -11.266   5.541  1.00  0.00    -0.363 N 
HETATM    2  C   UNL     1      42.923 -10.985   4.191  1.00  0.00     0.144 C 
HETATM    3  C   UNL     1      43.521 -12.254   3.568  1.00  0.00     0.145 C 
HETATM    4  N   UNL     1      42.609 -13.404   3.608  1.00  0.00    -0.349 N 
HETATM    5  C   UNL     1      42.834 -14.410   2.672  1.00  0.00     0.224 C 
HETATM    6  O   UNL     1      43.663 -14.280   1.766  1.00  0.00    -0.273 OA
HETATM    7  C   UNL     1      41.982 -13.638   4.917  1.00  0.00     0.145 C 
HETATM    8  C   UNL     1      41.404 -12.357   5.560  1.00  0.00     0.144 C 
ENDROOT
BRANCH   1   9
HETATM    9  C   UNL     1      42.448 -10.293   6.499  1.00  0.00     0.122 A 
HETATM   10  N   UNL     1      41.953  -9.024   6.340  1.00  0.00    -0.262 N 
HETATM   11  N   UNL     1      42.043  -8.248   7.431  1.00  0.00    -0.173 NA
HETATM   12  H   UNL     1      41.531  -8.623   5.515  1.00  0.00     0.191 HD
HETATM   13  C   UNL     1      42.625  -9.033   8.353  1.00  0.00     0.090 A 
HETATM   14  C   UNL     1      42.917 -10.308   7.795  1.00  0.00     0.084 A 
BRANCH  13  15
HETATM   15  C   UNL     1      42.847  -8.584   9.731  1.00  0.00    -0.005 A 
HETATM   16  C   UNL     1      42.339  -7.352  10.170  1.00  0.00     0.016 A 
HETATM   17  C   UNL     1      42.483  -6.942  11.501  1.00  0.00     0.037 A 
HETATM   18  C   UNL     1      43.143  -7.760  12.418  1.00  0.00     0.068 A 
HETATM   19  C   UNL     1      43.683  -8.971  11.982  1.00  0.00     0.037 A 
HETATM   20  C   UNL     1      43.534  -9.384  10.654  1.00  0.00     0.016 A 
BRANCH  18  21
HETATM   21  O   UNL     1      43.334  -7.489  13.744  1.00  0.00    -0.356 OA
HETATM   22  C   UNL     1      42.163  -7.392  14.546  1.00  0.00     0.210 C 
ENDBRANCH  18  21
ENDBRANCH  13  15
ENDBRANCH   1   9
BRANCH   5  23
HETATM   23  C   UNL     1      42.015 -15.688   2.759  1.00  0.00     0.141 C 
BRANCH  23  24
HETATM   24  C   UNL     1      42.785 -16.912   3.205  1.00  0.00    -0.048 A 
HETATM   25  C   UNL     1      42.875 -18.023   2.351  1.00  0.00     0.031 A 
HETATM   26  C   UNL     1      43.633 -19.137   2.718  1.00  0.00     0.034 A 
HETATM   27 CL   UNL     1      43.733 -20.486   1.653  1.00  0.00    -0.084 Cl
HETATM   28  C   UNL     1      44.316 -19.160   3.930  1.00  0.00     0.024 A 
HETATM   29  C   UNL     1      44.246 -18.057   4.780  1.00  0.00     0.002 A 
HETATM   30  C   UNL     1      43.493 -16.938   4.416  1.00  0.00     0.007 A 
ENDBRANCH  23  24
ENDBRANCH   5  23
TORSDOF 5
ENDMDL
MODEL 4
REMARK VINA RESULT:      -8.6      1.809      2.220
REMARK  5 active torsions:
REMARK  status: ('A' for Active; 'I' for Inactive)
REMARK    1  A    between atoms: O_2  and  C_3 
REMARK    2  A    between atoms: C_6  and  C_7 
REMARK    3  A    between atoms: C_11  and  N_12 
REMARK       I    between atoms: N_15  and  C_16 
REMARK    4  A    between atoms: C_16  and  C_17 
REMARK    5  A    between atoms: C_17  and  C_18 
ROOT
HETATM    1  N   UNL     1      43.362 -12.359   7.006  1.00  0.00    -0.363 N 
HETATM    2  C   UNL     1      42.585 -11.514   6.076  1.00  0.00     0.144 C 
HETATM    3  C   UNL     1      42.025 -10.283   6.803  1.00  0.00     0.145 C 
HETATM    4  N   UNL     1      43.046  -9.539   7.551  1.00  0.00    -0.349 N 
HETATM    5  C   UNL     1      42.771  -8.200   7.814  1.00  0.00     0.224 C 
HETATM    6  O   UNL     1      41.791  -7.629   7.325  1.00  0.00    -0.273 OA
HETATM    7  C   UNL     1      43.908 -10.374   8.399  1.00  0.00     0.145 C 
HETATM    8  C   UNL     1      44.449 -11.629   7.680  1.00  0.00     0.144 C 
ENDROOT
BRANCH   1   9
HETATM    9  C   UNL     1      43.370 -13.714   6.832  1.00  0.00     0.122 A 
HETATM   10  N   UNL     1      42.980 -14.618   7.787  1.00  0.00    -0.262 N 
HETATM   11  N   UNL     1      42.994 -15.899   7.386  1.00  0.00    -0.173 NA
HETATM   12  H   UNL     1      42.682 -14.428   8.734  1.00  0.00     0.191 HD
HETATM   13  C   UNL     1      43.415 -15.844   6.111  1.00  0.00     0.090 A 
HETATM   14  C   UNL     1      43.685 -14.497   5.742  1.00  0.00     0.084 A 
BRANCH  13  15
HETATM   15  C   UNL     1      43.506 -17.041   5.268  1.00  0.00    -0.005 A 
HETATM   16  C   UNL     1      43.275 -16.958   3.887  1.00  0.00     0.016 A 
HETATM   17  C   UNL     1      43.426 -18.079   3.060  1.00  0.00     0.037 A 
HETATM   18  C   UNL     1      43.811 -19.304   3.603  1.00  0.00     0.068 A 
HETATM   19  C   UNL     1      44.008 -19.403   4.982  1.00  0.00     0.037 A 
HETATM   20  C   UNL     1      43.862 -18.284   5.808  1.00  0.00     0.016 A 
BRANCH  18  21
HETATM   21  O   UNL     1      44.013 -20.464   2.909  1.00  0.00    -0.356 OA
HETATM   22  C   UNL     1      43.564 -20.480   1.559  1.00  0.00     0.210 C 
ENDBRANCH  18  21
ENDBRANCH  13  15
ENDBRANCH   1   9
BRANCH   5  23
HETATM   23  C   UNL     1      43.723  -7.419   8.707  1.00  0.00     0.141 C 
BRANCH  23  24
HETATM   24  C   UNL     1      43.127  -6.943  10.014  1.00  0.00    -0.048 A 
HETATM   25  C   UNL     1      43.106  -7.807  11.121  1.00  0.00     0.031 A 
HETATM   26  C   UNL     1      42.618  -7.366  12.353  1.00  0.00     0.034 A 
HETATM   27 CL   UNL     1      42.605  -8.441  13.697  1.00  0.00    -0.084 Cl
HETATM   28  C   UNL     1      42.154  -6.063  12.505  1.00  0.00     0.024 A 
HETATM   29  C   UNL     1      42.183  -5.191  11.417  1.00  0.00     0.002 A 
HETATM   30  C   UNL     1      42.675  -5.626  10.184  1.00  0.00     0.007 A 
ENDBRANCH  23  24
ENDBRANCH   5  23
TORSDOF 5
ENDMDL
MODEL 5
REMARK VINA RESULT:      -8.5      7.263     10.833
REMARK  5 active torsions:
REMARK  status: ('A' for Active; 'I' for Inactive)
REMARK    1  A    between atoms: O_2  and  C_3 
REMARK    2  A    between atoms: C_6  and  C_7 
REMARK    3  A    between atoms: C_11  and  N_12 
REMARK       I    between atoms: N_15  and  C_16 
REMARK    4  A    between atoms: C_16  and  C_17 
REMARK    5  A    between atoms: C_17  and  C_18 
ROOT
HETATM    1  N   UNL     1      41.046 -13.934   1.498  1.00  0.00    -0.363 N 
HETATM    2  C   UNL     1      40.490 -13.647   2.837  1.00  0.00     0.144 C 
HETATM    3  C   UNL     1      40.666 -14.855   3.767  1.00  0.00     0.145 C 
HETATM    4  N   UNL     1      42.045 -15.359   3.806  1.00  0.00    -0.349 N 
HETATM    5  C   UNL     1      42.410 -16.085   4.936  1.00  0.00     0.224 C 
HETATM    6  O   UNL     1      41.664 -16.181   5.916  1.00  0.00    -0.273 OA
HETATM    7  C   UNL     1      42.661 -15.547   2.485  1.00  0.00     0.145 C 
HETATM    8  C   UNL     1      42.460 -14.345   1.535  1.00  0.00     0.144 C 
ENDROOT
BRANCH   1   9
HETATM    9  C   UNL     1      40.459 -13.381   0.396  1.00  0.00     0.122 A 
HETATM   10  N   UNL     1      39.220 -13.728  -0.077  1.00  0.00    -0.262 N 
HETATM   11  N   UNL     1      38.800 -13.009  -1.130  1.00  0.00    -0.173 NA
HETATM   12  H   UNL     1      38.600 -14.443   0.278  1.00  0.00     0.191 HD
HETATM   13  C   UNL     1      39.805 -12.149  -1.369  1.00  0.00     0.090 A 
HETATM   14  C   UNL     1      40.868 -12.373  -0.452  1.00  0.00     0.084 A 
BRANCH  13  15
HETATM   15  C   UNL     1      39.720 -11.121  -2.411  1.00  0.00    -0.005 A 
HETATM   16  C   UNL     1      38.475 -10.739  -2.934  1.00  0.00     0.016 A 
HETATM   17  C   UNL     1      38.373  -9.711  -3.880  1.00  0.00     0.037 A 
HETATM   18  C   UNL     1      39.518  -9.048  -4.321  1.00  0.00     0.068 A 
HETATM   19  C   UNL     1      40.763  -9.446  -3.832  1.00  0.00     0.037 A 
HETATM   20  C   UNL     1      40.866 -10.469  -2.883  1.00  0.00     0.016 A 
BRANCH  18  21
HETATM   21  O   UNL     1      39.555  -8.019  -5.220  1.00  0.00    -0.356 OA
HETATM   22  C   UNL     1      38.736  -8.157  -6.375  1.00  0.00     0.210 C 
ENDBRANCH  18  21
ENDBRANCH  13  15
ENDBRANCH   1   9
BRANCH   5  23
HETATM   23  C   UNL     1      43.775 -16.754   4.967  1.00  0.00     0.141 C 
BRANCH  23  24
HETATM   24  C   UNL     1      43.766 -18.240   4.686  1.00  0.00    -0.048 A 
HETATM   25  C   UNL     1      43.732 -18.695   3.358  1.00  0.00     0.031 A 
HETATM   26  C   UNL     1      43.786 -20.061   3.076  1.00  0.00     0.034 A 
HETATM   27 CL   UNL     1      43.746 -20.595   1.440  1.00  0.00    -0.084 Cl
HETATM   28  C   UNL     1      43.883 -20.993   4.106  1.00  0.00     0.024 A 
HETATM   29  C   UNL     1      43.933 -20.554   5.428  1.00  0.00     0.002 A 
HETATM   30  C   UNL     1      43.884 -19.187   5.715  1.00  0.00     0.007 A 
ENDBRANCH  23  24
ENDBRANCH   5  23
TORSDOF 5
ENDMDL
MODEL 6
REMARK VINA RESULT:      -8.2      8.346     10.147
REMARK  5 active torsions:
REMARK  status: ('A' for Active; 'I' for Inactive)
REMARK    1  A    between atoms: O_2  and  C_3 
REMARK    2  A    between atoms: C_6  and  C_7 
REMARK    3  A    between atoms: C_11  and  N_12 
REMARK       I    between atoms: N_15  and  C_16 
REMARK    4  A    between atoms: C_16  and  C_17 
REMARK    5  A    between atoms: C_17  and  C_18 
ROOT
HETATM    1  N   UNL     1      40.538 -13.094  -0.002  1.00  0.00    -0.363 N 
HETATM    2  C   UNL     1      40.390 -13.262  -1.463  1.00  0.00     0.144 C 
HETATM    3  C   UNL     1      39.420 -12.218  -2.033  1.00  0.00     0.145 C 
HETATM    4  N   UNL     1      39.749 -10.843  -1.635  1.00  0.00    -0.349 N 
HETATM    5  C   UNL     1      39.272  -9.826  -2.457  1.00  0.00     0.224 C 
HETATM    6  O   UNL     1      38.724 -10.067  -3.537  1.00  0.00    -0.273 OA
HETATM    7  C   UNL     1      40.011 -10.672  -0.198  1.00  0.00     0.145 C 
HETATM    8  C   UNL     1      40.964 -11.739   0.385  1.00  0.00     0.144 C 
ENDROOT
BRANCH   1   9
HETATM    9  C   UNL     1      40.748 -14.194   0.780  1.00  0.00     0.122 A 
HETATM   10  N   UNL     1      39.802 -15.153   1.037  1.00  0.00    -0.262 N 
HETATM   11  N   UNL     1      40.239 -16.189   1.770  1.00  0.00    -0.173 NA
HETATM   12  H   UNL     1      38.838 -15.168   0.734  1.00  0.00     0.191 HD
HETATM   13  C   UNL     1      41.530 -15.905   2.014  1.00  0.00     0.090 A 
HETATM   14  C   UNL     1      41.872 -14.652   1.434  1.00  0.00     0.084 A 
BRANCH  13  15
HETATM   15  C   UNL     1      42.408 -16.829   2.738  1.00  0.00    -0.005 A 
HETATM   16  C   UNL     1      42.862 -16.517   4.028  1.00  0.00     0.016 A 
HETATM   17  C   UNL     1      43.645 -17.420   4.758  1.00  0.00     0.037 A 
HETATM   18  C   UNL     1      43.988 -18.654   4.207  1.00  0.00     0.068 A 
HETATM   19  C   UNL     1      43.569 -18.959   2.911  1.00  0.00     0.037 A 
HETATM   20  C   UNL     1      42.784 -18.059   2.183  1.00  0.00     0.016 A 
BRANCH  18  21
HETATM   21  O   UNL     1      44.725 -19.630   4.818  1.00  0.00    -0.356 OA
HETATM   22  C   UNL     1      44.030 -20.820   5.174  1.00  0.00     0.210 C 
ENDBRANCH  18  21
ENDBRANCH  13  15
ENDBRANCH   1   9
BRANCH   5  23
HETATM   23  C   UNL     1      39.457  -8.382  -2.018  1.00  0.00     0.141 C 
BRANCH  23  24
HETATM   24  C   UNL     1      40.866  -7.848  -2.152  1.00  0.00    -0.048 A 
HETATM   25  C   UNL     1      41.392  -7.594  -3.429  1.00  0.00     0.031 A 
HETATM   26  C   UNL     1      42.667  -7.042  -3.572  1.00  0.00     0.034 A 
HETATM   27 CL   UNL     1      43.290  -6.734  -5.147  1.00  0.00    -0.084 Cl
HETATM   28  C   UNL     1      43.432  -6.730  -2.452  1.00  0.00     0.024 A 
HETATM   29  C   UNL     1      42.916  -6.964  -1.179  1.00  0.00     0.002 A 
HETATM   30  C   UNL     1      41.639  -7.512  -1.030  1.00  0.00     0.007 A 
ENDBRANCH  23  24
ENDBRANCH   5  23
TORSDOF 5
ENDMDL
MODEL 7
REMARK VINA RESULT:      -8.1      2.307      2.762
REMARK  5 active torsions:
REMARK  status: ('A' for Active; 'I' for Inactive)
REMARK    1  A    between atoms: O_2  and  C_3 
REMARK    2  A    between atoms: C_6  and  C_7 
REMARK    3  A    between atoms: C_11  and  N_12 
REMARK       I    between atoms: N_15  and  C_16 
REMARK    4  A    between atoms: C_16  and  C_17 
REMARK    5  A    between atoms: C_17  and  C_18 
ROOT
HETATM    1  N   UNL     1      40.399 -11.860   5.759  1.00  0.00    -0.363 N 
HETATM    2  C   UNL     1      39.038 -11.384   6.079  1.00  0.00     0.144 C 
HETATM    3  C   UNL     1      39.017 -10.677   7.440  1.00  0.00     0.145 C 
HETATM    4  N   UNL     1      40.043  -9.633   7.567  1.00  0.00    -0.349 N 
HETATM    5  C   UNL     1      39.804  -8.637   8.509  1.00  0.00     0.224 C 
HETATM    6  O   UNL     1      38.726  -8.552   9.105  1.00  0.00    -0.273 OA
HETATM    7  C   UNL     1      41.388 -10.051   7.148  1.00  0.00     0.145 C 
HETATM    8  C   UNL     1      41.410 -10.789   5.791  1.00  0.00     0.144 C 
ENDROOT
BRANCH   1   9
HETATM    9  C   UNL     1      40.555 -13.011   5.039  1.00  0.00     0.122 A 
HETATM   10  N   UNL     1      39.816 -13.335   3.930  1.00  0.00    -0.262 N 
HETATM   11  N   UNL     1      40.182 -14.478   3.328  1.00  0.00    -0.173 NA
HETATM   12  H   UNL     1      39.051 -12.816   3.523  1.00  0.00     0.191 HD
HETATM   13  C   UNL     1      41.205 -14.933   4.069  1.00  0.00     0.090 A 
HETATM   14  C   UNL     1      41.446 -14.056   5.162  1.00  0.00     0.084 A 
BRANCH  13  15
HETATM   15  C   UNL     1      41.950 -16.144   3.709  1.00  0.00    -0.005 A 
HETATM   16  C   UNL     1      41.684 -16.812   2.504  1.00  0.00     0.016 A 
HETATM   17  C   UNL     1      42.435 -17.929   2.115  1.00  0.00     0.037 A 
HETATM   18  C   UNL     1      43.466 -18.398   2.928  1.00  0.00     0.068 A 
HETATM   19  C   UNL     1      43.714 -17.760   4.146  1.00  0.00     0.037 A 
HETATM   20  C   UNL     1      42.968 -16.642   4.533  1.00  0.00     0.016 A 
BRANCH  18  21
HETATM   21  O   UNL     1      44.283 -19.459   2.658  1.00  0.00    -0.356 OA
HETATM   22  C   UNL     1      43.735 -20.491   1.847  1.00  0.00     0.210 C 
ENDBRANCH  18  21
ENDBRANCH  13  15
ENDBRANCH   1   9
BRANCH   5  23
HETATM   23  C   UNL     1      40.895  -7.614   8.785  1.00  0.00     0.141 C 
BRANCH  23  24
HETATM   24  C   UNL     1      41.778  -7.927   9.972  1.00  0.00    -0.048 A 
HETATM   25  C   UNL     1      42.991  -8.607   9.774  1.00  0.00     0.031 A 
HETATM   26  C   UNL     1      43.850  -8.849  10.847  1.00  0.00     0.034 A 
HETATM   27 CL   UNL     1      45.333  -9.680  10.580  1.00  0.00    -0.084 Cl
HETATM   28  C   UNL     1      43.522  -8.414  12.129  1.00  0.00     0.024 A 
HETATM   29  C   UNL     1      42.328  -7.725  12.336  1.00  0.00     0.002 A 
HETATM   30  C   UNL     1      41.467  -7.476  11.264  1.00  0.00     0.007 A 
ENDBRANCH  23  24
ENDBRANCH   5  23
TORSDOF 5
ENDMDL
MODEL 8
REMARK VINA RESULT:      -8.1      8.048     10.338
REMARK  5 active torsions:
REMARK  status: ('A' for Active; 'I' for Inactive)
REMARK    1  A    between atoms: O_2  and  C_3 
REMARK    2  A    between atoms: C_6  and  C_7 
REMARK    3  A    between atoms: C_11  and  N_12 
REMARK       I    between atoms: N_15  and  C_16 
REMARK    4  A    between atoms: C_16  and  C_17 
REMARK    5  A    between atoms: C_17  and  C_18 
ROOT
HETATM    1  N   UNL     1      39.890 -13.264   0.444  1.00  0.00    -0.363 N 
HETATM    2  C   UNL     1      39.448 -13.674  -0.905  1.00  0.00     0.144 C 
HETATM    3  C   UNL     1      38.387 -12.705  -1.446  1.00  0.00     0.145 C 
HETATM    4  N   UNL     1      38.798 -11.297  -1.371  1.00  0.00    -0.349 N 
HETATM    5  C   UNL     1      38.168 -10.419  -2.248  1.00  0.00     0.224 C 
HETATM    6  O   UNL     1      37.412 -10.820  -3.138  1.00  0.00    -0.273 OA
HETATM    7  C   UNL     1      39.346 -10.892  -0.069  1.00  0.00     0.145 C 
HETATM    8  C   UNL     1      40.393 -11.880   0.492  1.00  0.00     0.144 C 
ENDROOT
BRANCH   1   9
HETATM    9  C   UNL     1      40.249 -14.220   1.351  1.00  0.00     0.122 A 
HETATM   10  N   UNL     1      39.404 -14.747   2.294  1.00  0.00    -0.262 N 
HETATM   11  N   UNL     1      39.938 -15.729   3.038  1.00  0.00    -0.173 NA
HETATM   12  H   UNL     1      38.445 -14.490   2.479  1.00  0.00     0.191 HD
HETATM   13  C   UNL     1      41.192 -15.857   2.572  1.00  0.00     0.090 A 
HETATM   14  C   UNL     1      41.428 -14.910   1.537  1.00  0.00     0.084 A 
BRANCH  13  15
HETATM   15  C   UNL     1      42.109 -16.884   3.075  1.00  0.00    -0.005 A 
HETATM   16  C   UNL     1      42.601 -17.880   2.218  1.00  0.00     0.016 A 
HETATM   17  C   UNL     1      43.532 -18.826   2.667  1.00  0.00     0.037 A 
HETATM   18  C   UNL     1      43.985 -18.792   3.986  1.00  0.00     0.068 A 
HETATM   19  C   UNL     1      43.474 -17.825   4.854  1.00  0.00     0.037 A 
HETATM   20  C   UNL     1      42.549 -16.877   4.405  1.00  0.00     0.016 A 
BRANCH  18  21
HETATM   21  O   UNL     1      44.901 -19.639   4.543  1.00  0.00    -0.356 OA
HETATM   22  C   UNL     1      44.382 -20.742   5.275  1.00  0.00     0.210 C 
ENDBRANCH  18  21
ENDBRANCH  13  15
ENDBRANCH   1   9
BRANCH   5  23
HETATM   23  C   UNL     1      38.446  -8.929  -2.118  1.00  0.00     0.141 C 
BRANCH  23  24
HETATM   24  C   UNL     1      39.710  -8.452  -2.799  1.00  0.00    -0.048 A 
HETATM   25  C   UNL     1      40.864  -8.218  -2.033  1.00  0.00     0.031 A 
HETATM   26  C   UNL     1      42.057  -7.839  -2.650  1.00  0.00     0.034 A 
HETATM   27 CL   UNL     1      43.461  -7.562  -1.693  1.00  0.00    -0.084 Cl
HETATM   28  C   UNL     1      42.124  -7.694  -4.033  1.00  0.00     0.024 A 
HETATM   29  C   UNL     1      40.989  -7.937  -4.806  1.00  0.00     0.002 A 
HETATM   30  C   UNL     1      39.794  -8.322  -4.193  1.00  0.00     0.007 A 
ENDBRANCH  23  24
ENDBRANCH   5  23
TORSDOF 5
ENDMDL
MODEL 9
REMARK VINA RESULT:      -8.1      1.545      2.221
REMARK  5 active torsions:
REMARK  status: ('A' for Active; 'I' for Inactive)
REMARK    1  A    between atoms: O_2  and  C_3 
REMARK    2  A    between atoms: C_6  and  C_7 
REMARK    3  A    between atoms: C_11  and  N_12 
REMARK       I    between atoms: N_15  and  C_16 
REMARK    4  A    between atoms: C_16  and  C_17 
REMARK    5  A    between atoms: C_17  and  C_18 
ROOT
HETATM    1  N   UNL     1      41.721 -11.676   5.382  1.00  0.00    -0.363 N 
HETATM    2  C   UNL     1      40.273 -11.385   5.424  1.00  0.00     0.144 C 
HETATM    3  C   UNL     1      39.866 -10.856   6.806  1.00  0.00     0.145 C 
HETATM    4  N   UNL     1      40.698  -9.736   7.265  1.00  0.00    -0.349 N 
HETATM    5  C   UNL     1      40.135  -8.893   8.219  1.00  0.00     0.224 C 
HETATM    6  O   UNL     1      38.951  -8.993   8.557  1.00  0.00    -0.273 OA
HETATM    7  C   UNL     1      42.145  -9.958   7.129  1.00  0.00     0.145 C 
HETATM    8  C   UNL     1      42.554 -10.518   5.749  1.00  0.00     0.144 C 
ENDROOT
BRANCH   1   9
HETATM    9  C   UNL     1      42.175 -12.707   4.610  1.00  0.00     0.122 A 
HETATM   10  N   UNL     1      42.865 -12.547   3.435  1.00  0.00    -0.262 N 
HETATM   11  N   UNL     1      43.285 -13.691   2.872  1.00  0.00    -0.173 NA
HETATM   12  H   UNL     1      43.093 -11.683   2.964  1.00  0.00     0.191 HD
HETATM   13  C   UNL     1      42.853 -14.652   3.706  1.00  0.00     0.090 A 
HETATM   14  C   UNL     1      42.133 -14.073   4.787  1.00  0.00     0.084 A 
BRANCH  13  15
HETATM   15  C   UNL     1      43.166 -16.068   3.491  1.00  0.00    -0.005 A 
HETATM   16  C   UNL     1      43.757 -16.829   4.511  1.00  0.00     0.016 A 
HETATM   17  C   UNL     1      43.997 -18.199   4.344  1.00  0.00     0.037 A 
HETATM   18  C   UNL     1      43.651 -18.831   3.151  1.00  0.00     0.068 A 
HETATM   19  C   UNL     1      43.095 -18.074   2.118  1.00  0.00     0.037 A 
HETATM   20  C   UNL     1      42.850 -16.707   2.285  1.00  0.00     0.016 A 
BRANCH  18  21
HETATM   21  O   UNL     1      43.812 -20.159   2.868  1.00  0.00    -0.356 OA
HETATM   22  C   UNL     1      43.941 -21.033   3.983  1.00  0.00     0.210 C 
ENDBRANCH  18  21
ENDBRANCH  13  15
ENDBRANCH   1   9
BRANCH   5  23
HETATM   23  C   UNL     1      40.999  -7.805   8.837  1.00  0.00     0.141 C 
BRANCH  23  24
HETATM   24  C   UNL     1      41.698  -8.195  10.120  1.00  0.00    -0.048 A 
HETATM   25  C   UNL     1      40.937  -8.605  11.227  1.00  0.00     0.031 A 
HETATM   26  C   UNL     1      41.565  -9.029  12.399  1.00  0.00     0.034 A 
HETATM   27 CL   UNL     1      40.613  -9.531  13.743  1.00  0.00    -0.084 Cl
HETATM   28  C   UNL     1      42.954  -9.060  12.487  1.00  0.00     0.024 A 
HETATM   29  C   UNL     1      43.721  -8.669  11.390  1.00  0.00     0.002 A 
HETATM   30  C   UNL     1      43.097  -8.249  10.213  1.00  0.00     0.007 A 
ENDBRANCH  23  24
ENDBRANCH   5  23
TORSDOF 5
ENDMDL
MODEL 10
REMARK VINA RESULT:      -8.1      3.797     10.931
REMARK  5 active torsions:
REMARK  status: ('A' for Active; 'I' for Inactive)
REMARK    1  A    between atoms: O_2  and  C_3 
REMARK    2  A    between atoms: C_6  and  C_7 
REMARK    3  A    between atoms: C_11  and  N_12 
REMARK       I    between atoms: N_15  and  C_16 
REMARK    4  A    between atoms: C_16  and  C_17 
REMARK    5  A    between atoms: C_17  and  C_18 
ROOT
HETATM    1  N   UNL     1      43.264 -10.489   7.992  1.00  0.00    -0.363 N 
HETATM    2  C   UNL     1      42.059 -10.050   7.258  1.00  0.00     0.144 C 
HETATM    3  C   UNL     1      42.361  -9.906   5.760  1.00  0.00     0.145 C 
HETATM    4  N   UNL     1      42.993 -11.098   5.180  1.00  0.00    -0.349 N 
HETATM    5  C   UNL     1      42.855 -11.269   3.805  1.00  0.00     0.224 C 
HETATM    6  O   UNL     1      42.122 -10.539   3.131  1.00  0.00    -0.273 OA
HETATM    7  C   UNL     1      44.128 -11.621   5.954  1.00  0.00     0.145 C 
HETATM    8  C   UNL     1      43.838 -11.740   7.467  1.00  0.00     0.144 C 
ENDROOT
BRANCH   1   9
HETATM    9  C   UNL     1      43.462 -10.058   9.274  1.00  0.00     0.122 A 
HETATM   10  N   UNL     1      44.686  -9.729   9.798  1.00  0.00    -0.262 N 
HETATM   11  N   UNL     1      44.649  -9.258  11.054  1.00  0.00    -0.173 NA
HETATM   12  H   UNL     1      45.589  -9.793   9.349  1.00  0.00     0.191 HD
HETATM   13  C   UNL     1      43.345  -9.277  11.380  1.00  0.00     0.090 A 
HETATM   14  C   UNL     1      42.580  -9.798  10.300  1.00  0.00     0.084 A 
BRANCH  13  15
HETATM   15  C   UNL     1      42.855  -8.769  12.665  1.00  0.00    -0.005 A 
HETATM   16  C   UNL     1      43.408  -7.610  13.230  1.00  0.00     0.016 A 
HETATM   17  C   UNL     1      42.903  -7.074  14.422  1.00  0.00     0.037 A 
HETATM   18  C   UNL     1      41.835  -7.693  15.070  1.00  0.00     0.068 A 
HETATM   19  C   UNL     1      41.302  -8.866  14.534  1.00  0.00     0.037 A 
HETATM   20  C   UNL     1      41.802  -9.399  13.341  1.00  0.00     0.016 A 
BRANCH  18  21
HETATM   21  O   UNL     1      41.238  -7.264  16.222  1.00  0.00    -0.356 OA
HETATM   22  C   UNL     1      42.106  -6.883  17.283  1.00  0.00     0.210 C 
ENDBRANCH  18  21
ENDBRANCH  13  15
ENDBRANCH   1   9
BRANCH   5  23
HETATM   23  C   UNL     1      43.609 -12.403   3.129  1.00  0.00     0.141 C 
BRANCH  23  24
HETATM   24  C   UNL     1      42.799 -13.658   2.892  1.00  0.00    -0.048 A 
HETATM   25  C   UNL     1      41.922 -13.722   1.797  1.00  0.00     0.031 A 
HETATM   26  C   UNL     1      41.214 -14.893   1.525  1.00  0.00     0.034 A 
HETATM   27 CL   UNL     1      40.148 -14.950   0.174  1.00  0.00    -0.084 Cl
HETATM   28  C   UNL     1      41.369 -16.018   2.330  1.00  0.00     0.024 A 
HETATM   29  C   UNL     1      42.247 -15.972   3.413  1.00  0.00     0.002 A 
HETATM   30  C   UNL     1      42.963 -14.804   3.686  1.00  0.00     0.007 A 
ENDBRANCH  23  24
ENDBRANCH   5  23
TORSDOF 5
ENDMDL
