MODEL 1
REMARK VINA RESULT:      -9.3      0.000      0.000
REMARK  3 active torsions:
REMARK  status: ('A' for Active; 'I' for Inactive)
REMARK    1  A    between atoms: C_8  and  C_9 
REMARK    2  A    between atoms: C_9  and  N_10 
REMARK    3  A    between atoms: C_14  and  C_15 
ROOT
HETATM    1  N   UNL     1      41.737 -15.287   3.599  1.00  0.00    -0.066 N 
HETATM    2  H   UNL     1      41.225 -15.874   4.271  1.00  0.00     0.280 HD
HETATM    3  C   UNL     1      41.411 -13.841   3.903  1.00  0.00     0.236 C 
HETATM    4  C   UNL     1      39.940 -13.560   3.642  1.00  0.00     0.037 C 
HETATM    5  C   UNL     1      39.538 -13.881   2.198  1.00  0.00     0.024 C 
HETATM    6  C   UNL     1      39.822 -15.385   2.003  1.00  0.00     0.037 C 
HETATM    7  C   UNL     1      41.295 -15.713   2.215  1.00  0.00     0.236 C 
ENDROOT
BRANCH   1   8
HETATM    8  C   UNL     1      43.212 -15.545   3.851  1.00  0.00     0.293 C 
BRANCH   8   9
HETATM    9  C   UNL     1      43.455 -16.685   4.751  1.00  0.00     0.061 A 
HETATM   10  N   UNL     1      43.613 -18.000   4.338  1.00  0.00    -0.307 N 
HETATM   11  C   UNL     1      43.574 -18.566   3.060  1.00  0.00     0.105 A 
HETATM   12  C   UNL     1      43.808 -18.752   5.494  1.00  0.00     0.133 A 
HETATM   13  C   UNL     1      43.731 -19.896   2.913  1.00  0.00    -0.046 A 
HETATM   14  C   UNL     1      43.706 -20.601   1.591  1.00  0.00     0.049 C 
HETATM   15  C   UNL     1      43.943 -20.704   4.111  1.00  0.00     0.012 A 
HETATM   16  C   UNL     1      43.980 -20.155   5.340  1.00  0.00     0.051 A 
HETATM   17  N   UNL     1      43.794 -17.995   6.567  1.00  0.00    -0.241 NA
HETATM   18  C   UNL     1      43.608 -16.720   6.122  1.00  0.00     0.146 A 
ENDBRANCH   8   9
ENDBRANCH   1   8
BRANCH   5  19
HETATM   19  C   UNL     1      40.199 -13.024   1.125  1.00  0.00    -0.024 A 
HETATM   20  C   UNL     1      40.272 -13.218  -0.306  1.00  0.00     0.018 A 
HETATM   21  C   UNL     1      40.934 -12.112  -0.835  1.00  0.00     0.138 A 
HETATM   22  C   UNL     1      39.860 -14.185  -1.245  1.00  0.00     0.017 A 
HETATM   23  N   UNL     1      41.185 -11.829  -2.124  1.00  0.00    -0.242 NA
HETATM   24  N   UNL     1      41.341 -11.322   0.197  1.00  0.00    -0.350 N 
HETATM   25  C   UNL     1      40.755 -12.780  -2.974  1.00  0.00     0.119 A 
HETATM   26  C   UNL     1      40.111 -13.949  -2.601  1.00  0.00     0.020 A 
HETATM   27  H   UNL     1      41.893 -10.483   0.071  1.00  0.00     0.166 HD
HETATM   28  C   UNL     1      40.920 -11.862   1.380  1.00  0.00     0.098 A 
ENDBRANCH   5  19
TORSDOF 3
ENDMDL
MODEL 2
REMARK VINA RESULT:      -9.1      4.757      7.999
REMARK  3 active torsions:
REMARK  status: ('A' for Active; 'I' for Inactive)
REMARK    1  A    between atoms: C_8  and  C_9 
REMARK    2  A    between atoms: C_9  and  N_10 
REMARK    3  A    between atoms: C_14  and  C_15 
ROOT
HETATM    1  N   UNL     1      42.318 -12.891   6.571  1.00  0.00    -0.066 N 
HETATM    2  H   UNL     1      42.071 -12.635   7.535  1.00  0.00     0.280 HD
HETATM    3  C   UNL     1      41.034 -13.156   5.817  1.00  0.00     0.236 C 
HETATM    4  C   UNL     1      40.322 -14.373   6.387  1.00  0.00     0.037 C 
HETATM    5  C   UNL     1      41.204 -15.627   6.349  1.00  0.00     0.024 C 
HETATM    6  C   UNL     1      42.443 -15.300   7.208  1.00  0.00     0.037 C 
HETATM    7  C   UNL     1      43.216 -14.108   6.654  1.00  0.00     0.236 C 
ENDROOT
BRANCH   1   8
HETATM    8  C   UNL     1      43.021 -11.683   5.979  1.00  0.00     0.293 C 
BRANCH   8   9
HETATM    9  C   UNL     1      44.180 -11.240   6.773  1.00  0.00     0.061 A 
HETATM   10  N   UNL     1      44.099 -10.547   7.972  1.00  0.00    -0.307 N 
HETATM   11  C   UNL     1      42.989 -10.100   8.694  1.00  0.00     0.105 A 
HETATM   12  C   UNL     1      45.411 -10.314   8.378  1.00  0.00     0.133 A 
HETATM   13  C   UNL     1      43.169  -9.413   9.840  1.00  0.00    -0.046 A 
HETATM   14  C   UNL     1      42.049  -8.890  10.687  1.00  0.00     0.049 C 
HETATM   15  C   UNL     1      44.536  -9.163  10.288  1.00  0.00     0.012 A 
HETATM   16  C   UNL     1      45.603  -9.595   9.589  1.00  0.00     0.051 A 
HETATM   17  N   UNL     1      46.274 -10.823   7.528  1.00  0.00    -0.241 NA
HETATM   18  C   UNL     1      45.531 -11.419   6.554  1.00  0.00     0.146 A 
ENDBRANCH   8   9
ENDBRANCH   1   8
BRANCH   5  19
HETATM   19  C   UNL     1      41.580 -16.126   4.959  1.00  0.00    -0.024 A 
HETATM   20  C   UNL     1      42.621 -17.042   4.549  1.00  0.00     0.018 A 
HETATM   21  C   UNL     1      42.496 -17.211   3.171  1.00  0.00     0.138 A 
HETATM   22  C   UNL     1      43.665 -17.767   5.158  1.00  0.00     0.017 A 
HETATM   23  N   UNL     1      43.210 -18.012   2.363  1.00  0.00    -0.242 NA
HETATM   24  N   UNL     1      41.511 -16.385   2.724  1.00  0.00    -0.350 N 
HETATM   25  C   UNL     1      44.181 -18.691   3.004  1.00  0.00     0.119 A 
HETATM   26  C   UNL     1      44.451 -18.604   4.360  1.00  0.00     0.020 A 
HETATM   27  H   UNL     1      41.268 -16.287   1.748  1.00  0.00     0.166 HD
HETATM   28  C   UNL     1      40.960 -15.717   3.783  1.00  0.00     0.098 A 
ENDBRANCH   5  19
TORSDOF 3
ENDMDL
MODEL 3
REMARK VINA RESULT:      -8.7      2.140      6.919
REMARK  3 active torsions:
REMARK  status: ('A' for Active; 'I' for Inactive)
REMARK    1  A    between atoms: C_8  and  C_9 
REMARK    2  A    between atoms: C_9  and  N_10 
REMARK    3  A    between atoms: C_14  and  C_15 
ROOT
HETATM    1  N   UNL     1      41.569 -14.215   6.567  1.00  0.00    -0.066 N 
HETATM    2  H   UNL     1      41.736 -13.831   7.506  1.00  0.00     0.280 HD
HETATM    3  C   UNL     1      41.283 -15.693   6.713  1.00  0.00     0.236 C 
HETATM    4  C   UNL     1      42.510 -16.425   7.234  1.00  0.00     0.037 C 
HETATM    5  C   UNL     1      43.728 -16.228   6.325  1.00  0.00     0.024 C 
HETATM    6  C   UNL     1      44.000 -14.710   6.302  1.00  0.00     0.037 C 
HETATM    7  C   UNL     1      42.812 -13.932   5.749  1.00  0.00     0.236 C 
ENDROOT
BRANCH   1   8
HETATM    8  C   UNL     1      40.339 -13.504   6.032  1.00  0.00     0.293 C 
BRANCH   8   9
HETATM    9  C   UNL     1      40.610 -12.710   4.821  1.00  0.00     0.061 A 
HETATM   10  N   UNL     1      40.526 -13.191   3.524  1.00  0.00    -0.307 N 
HETATM   11  C   UNL     1      40.203 -14.464   3.042  1.00  0.00     0.105 A 
HETATM   12  C   UNL     1      40.870 -12.131   2.689  1.00  0.00     0.133 A 
HETATM   13  C   UNL     1      40.215 -14.699   1.715  1.00  0.00    -0.046 A 
HETATM   14  C   UNL     1      39.885 -16.023   1.097  1.00  0.00     0.049 C 
HETATM   15  C   UNL     1      40.567 -13.599   0.821  1.00  0.00     0.012 A 
HETATM   16  C   UNL     1      40.878 -12.375   1.289  1.00  0.00     0.051 A 
HETATM   17  N   UNL     1      41.141 -11.046   3.379  1.00  0.00    -0.241 NA
HETATM   18  C   UNL     1      40.956 -11.380   4.687  1.00  0.00     0.146 A 
ENDBRANCH   8   9
ENDBRANCH   1   8
BRANCH   5  19
HETATM   19  C   UNL     1      43.606 -16.815   4.923  1.00  0.00    -0.024 A 
HETATM   20  C   UNL     1      43.733 -18.183   4.473  1.00  0.00     0.018 A 
HETATM   21  C   UNL     1      43.468 -18.188   3.105  1.00  0.00     0.138 A 
HETATM   22  C   UNL     1      44.034 -19.438   5.038  1.00  0.00     0.017 A 
HETATM   23  N   UNL     1      43.415 -19.240   2.271  1.00  0.00    -0.242 NA
HETATM   24  N   UNL     1      43.285 -16.902   2.697  1.00  0.00    -0.350 N 
HETATM   25  C   UNL     1      43.695 -20.412   2.870  1.00  0.00     0.119 A 
HETATM   26  C   UNL     1      44.010 -20.566   4.211  1.00  0.00     0.020 A 
HETATM   27  H   UNL     1      43.131 -16.640   1.733  1.00  0.00     0.166 HD
HETATM   28  C   UNL     1      43.378 -16.064   3.775  1.00  0.00     0.098 A 
ENDBRANCH   5  19
TORSDOF 3
ENDMDL
MODEL 4
REMARK VINA RESULT:      -8.3      6.998     10.109
REMARK  3 active torsions:
REMARK  status: ('A' for Active; 'I' for Inactive)
REMARK    1  A    between atoms: C_8  and  C_9 
REMARK    2  A    between atoms: C_9  and  N_10 
REMARK    3  A    between atoms: C_14  and  C_15 
ROOT
HETATM    1  N   UNL     1      43.525 -10.015   7.257  1.00  0.00    -0.066 N 
HETATM    2  H   UNL     1      44.196  -9.756   6.523  1.00  0.00     0.280 HD
HETATM    3  C   UNL     1      43.172  -8.762   8.028  1.00  0.00     0.236 C 
HETATM    4  C   UNL     1      44.390  -8.231   8.767  1.00  0.00     0.037 C 
HETATM    5  C   UNL     1      44.982  -9.271   9.725  1.00  0.00     0.024 C 
HETATM    6  C   UNL     1      45.391 -10.472   8.849  1.00  0.00     0.037 C 
HETATM    7  C   UNL     1      44.194 -11.068   8.115  1.00  0.00     0.236 C 
ENDROOT
BRANCH   1   8
HETATM    8  C   UNL     1      42.294 -10.539   6.538  1.00  0.00     0.293 C 
BRANCH   8   9
HETATM    9  C   UNL     1      42.617 -11.347   5.350  1.00  0.00     0.061 A 
HETATM   10  N   UNL     1      42.542 -12.730   5.288  1.00  0.00    -0.307 N 
HETATM   11  C   UNL     1      42.183 -13.668   6.261  1.00  0.00     0.105 A 
HETATM   12  C   UNL     1      42.941 -13.087   4.002  1.00  0.00     0.133 A 
HETATM   13  C   UNL     1      42.214 -14.983   5.965  1.00  0.00    -0.046 A 
HETATM   14  C   UNL     1      41.849 -16.067   6.932  1.00  0.00     0.049 C 
HETATM   15  C   UNL     1      42.623 -15.380   4.620  1.00  0.00     0.012 A 
HETATM   16  C   UNL     1      42.968 -14.472   3.686  1.00  0.00     0.051 A 
HETATM   17  N   UNL     1      43.236 -12.029   3.281  1.00  0.00    -0.241 NA
HETATM   18  C   UNL     1      43.013 -10.954   4.087  1.00  0.00     0.146 A 
ENDBRANCH   8   9
ENDBRANCH   1   8
BRANCH   5  19
HETATM   19  C   UNL     1      44.086  -9.681  10.887  1.00  0.00    -0.024 A 
HETATM   20  C   UNL     1      43.263  -8.872  11.758  1.00  0.00     0.018 A 
HETATM   21  C   UNL     1      42.595  -9.745  12.615  1.00  0.00     0.138 A 
HETATM   22  C   UNL     1      42.978  -7.504  11.943  1.00  0.00     0.017 A 
HETATM   23  N   UNL     1      41.683  -9.452  13.557  1.00  0.00    -0.242 NA
HETATM   24  N   UNL     1      43.039 -11.009  12.373  1.00  0.00    -0.350 N 
HETATM   25  C   UNL     1      41.441  -8.133  13.675  1.00  0.00     0.119 A 
HETATM   26  C   UNL     1      42.047  -7.142  12.921  1.00  0.00     0.020 A 
HETATM   27  H   UNL     1      42.743 -11.815  12.907  1.00  0.00     0.166 HD
HETATM   28  C   UNL     1      43.945 -10.986  11.348  1.00  0.00     0.098 A 
ENDBRANCH   5  19
TORSDOF 3
ENDMDL
MODEL 5
REMARK VINA RESULT:      -8.3      2.892      7.923
REMARK  3 active torsions:
REMARK  status: ('A' for Active; 'I' for Inactive)
REMARK    1  A    between atoms: C_8  and  C_9 
REMARK    2  A    between atoms: C_9  and  N_10 
REMARK    3  A    between atoms: C_14  and  C_15 
ROOT
HETATM    1  N   UNL     1      40.995 -13.938   3.266  1.00  0.00    -0.066 N 
HETATM    2  H   UNL     1      40.723 -13.336   2.478  1.00  0.00     0.280 HD
HETATM    3  C   UNL     1      42.485 -13.785   3.476  1.00  0.00     0.236 C 
HETATM    4  C   UNL     1      43.250 -14.325   2.277  1.00  0.00     0.037 C 
HETATM    5  C   UNL     1      42.921 -15.796   1.998  1.00  0.00     0.024 C 
HETATM    6  C   UNL     1      41.406 -15.846   1.713  1.00  0.00     0.037 C 
HETATM    7  C   UNL     1      40.591 -15.351   2.902  1.00  0.00     0.236 C 
ENDROOT
BRANCH   1   8
HETATM    8  C   UNL     1      40.249 -13.408   4.478  1.00  0.00     0.293 C 
BRANCH   8   9
HETATM    9  C   UNL     1      40.044 -11.950   4.441  1.00  0.00     0.061 A 
HETATM   10  N   UNL     1      40.755 -11.031   5.198  1.00  0.00    -0.307 N 
HETATM   11  C   UNL     1      41.771 -11.217   6.140  1.00  0.00     0.105 A 
HETATM   12  C   UNL     1      40.244  -9.777   4.872  1.00  0.00     0.133 A 
HETATM   13  C   UNL     1      42.297 -10.150   6.775  1.00  0.00    -0.046 A 
HETATM   14  C   UNL     1      43.386 -10.240   7.800  1.00  0.00     0.049 C 
HETATM   15  C   UNL     1      41.780  -8.825   6.445  1.00  0.00     0.012 A 
HETATM   16  C   UNL     1      40.802  -8.651   5.536  1.00  0.00     0.051 A 
HETATM   17  N   UNL     1      39.292  -9.865   3.971  1.00  0.00    -0.241 NA
HETATM   18  C   UNL     1      39.181 -11.192   3.676  1.00  0.00     0.146 A 
ENDBRANCH   8   9
ENDBRANCH   1   8
BRANCH   5  19
HETATM   19  C   UNL     1      43.337 -16.782   3.084  1.00  0.00    -0.024 A 
HETATM   20  C   UNL     1      43.443 -18.223   3.041  1.00  0.00     0.018 A 
HETATM   21  C   UNL     1      43.928 -18.633   4.282  1.00  0.00     0.138 A 
HETATM   22  C   UNL     1      43.199 -19.255   2.113  1.00  0.00     0.017 A 
HETATM   23  N   UNL     1      44.237 -19.877   4.685  1.00  0.00    -0.242 NA
HETATM   24  N   UNL     1      44.027 -17.540   5.087  1.00  0.00    -0.350 N 
HETATM   25  C   UNL     1      43.998 -20.817   3.751  1.00  0.00     0.119 A 
HETATM   26  C   UNL     1      43.488 -20.572   2.487  1.00  0.00     0.020 A 
HETATM   27  H   UNL     1      44.305 -17.588   6.058  1.00  0.00     0.166 HD
HETATM   28  C   UNL     1      43.663 -16.423   4.388  1.00  0.00     0.098 A 
ENDBRANCH   5  19
TORSDOF 3
ENDMDL
MODEL 6
REMARK VINA RESULT:      -8.2      4.949      7.501
REMARK  3 active torsions:
REMARK  status: ('A' for Active; 'I' for Inactive)
REMARK    1  A    between atoms: C_8  and  C_9 
REMARK    2  A    between atoms: C_9  and  N_10 
REMARK    3  A    between atoms: C_14  and  C_15 
ROOT
HETATM    1  N   UNL     1      42.977 -13.295   6.001  1.00  0.00    -0.066 N 
HETATM    2  H   UNL     1      43.364 -13.478   5.066  1.00  0.00     0.280 HD
HETATM    3  C   UNL     1      41.721 -12.469   5.830  1.00  0.00     0.236 C 
HETATM    4  C   UNL     1      42.057 -11.100   5.260  1.00  0.00     0.037 C 
HETATM    5  C   UNL     1      43.054 -10.337   6.139  1.00  0.00     0.024 C 
HETATM    6  C   UNL     1      44.328 -11.206   6.188  1.00  0.00     0.037 C 
HETATM    7  C   UNL     1      44.052 -12.579   6.791  1.00  0.00     0.236 C 
ENDROOT
BRANCH   1   8
HETATM    8  C   UNL     1      42.625 -14.651   6.585  1.00  0.00     0.293 C 
BRANCH   8   9
HETATM    9  C   UNL     1      43.205 -15.775   5.831  1.00  0.00     0.061 A 
HETATM   10  N   UNL     1      42.757 -16.214   4.594  1.00  0.00    -0.307 N 
HETATM   11  C   UNL     1      41.707 -15.760   3.790  1.00  0.00     0.105 A 
HETATM   12  C   UNL     1      43.563 -17.295   4.247  1.00  0.00     0.133 A 
HETATM   13  C   UNL     1      41.445 -16.376   2.621  1.00  0.00    -0.046 A 
HETATM   14  C   UNL     1      40.346 -15.969   1.688  1.00  0.00     0.049 C 
HETATM   15  C   UNL     1      42.283 -17.509   2.233  1.00  0.00     0.012 A 
HETATM   16  C   UNL     1      43.293 -17.943   3.011  1.00  0.00     0.051 A 
HETATM   17  N   UNL     1      44.470 -17.534   5.167  1.00  0.00    -0.241 NA
HETATM   18  C   UNL     1      44.279 -16.589   6.131  1.00  0.00     0.146 A 
ENDBRANCH   8   9
ENDBRANCH   1   8
BRANCH   5  19
HETATM   19  C   UNL     1      42.555  -9.964   7.530  1.00  0.00    -0.024 A 
HETATM   20  C   UNL     1      43.290  -9.756   8.758  1.00  0.00     0.018 A 
HETATM   21  C   UNL     1      42.365  -9.370   9.726  1.00  0.00     0.138 A 
HETATM   22  C   UNL     1      44.628  -9.834   9.193  1.00  0.00     0.017 A 
HETATM   23  N   UNL     1      42.594  -9.018  11.002  1.00  0.00    -0.242 NA
HETATM   24  N   UNL     1      41.120  -9.427   9.179  1.00  0.00    -0.350 N 
HETATM   25  C   UNL     1      43.891  -9.098  11.355  1.00  0.00     0.119 A 
HETATM   26  C   UNL     1      44.921  -9.495  10.518  1.00  0.00     0.020 A 
HETATM   27  H   UNL     1      40.274  -9.245   9.701  1.00  0.00     0.166 HD
HETATM   28  C   UNL     1      41.215  -9.796   7.865  1.00  0.00     0.098 A 
ENDBRANCH   5  19
TORSDOF 3
ENDMDL
MODEL 7
REMARK VINA RESULT:      -8.2      2.759      7.260
REMARK  3 active torsions:
REMARK  status: ('A' for Active; 'I' for Inactive)
REMARK    1  A    between atoms: C_8  and  C_9 
REMARK    2  A    between atoms: C_9  and  N_10 
REMARK    3  A    between atoms: C_14  and  C_15 
ROOT
HETATM    1  N   UNL     1      41.752 -13.940   1.068  1.00  0.00    -0.066 N 
HETATM    2  H   UNL     1      41.893 -14.163   0.074  1.00  0.00     0.280 HD
HETATM    3  C   UNL     1      42.973 -14.410   1.828  1.00  0.00     0.236 C 
HETATM    4  C   UNL     1      43.086 -15.926   1.769  1.00  0.00     0.037 C 
HETATM    5  C   UNL     1      41.838 -16.620   2.327  1.00  0.00     0.024 C 
HETATM    6  C   UNL     1      40.663 -16.153   1.445  1.00  0.00     0.037 C 
HETATM    7  C   UNL     1      40.481 -14.640   1.501  1.00  0.00     0.236 C 
ENDROOT
BRANCH   1   8
HETATM    8  C   UNL     1      41.647 -12.428   1.151  1.00  0.00     0.293 C 
BRANCH   8   9
HETATM    9  C   UNL     1      40.686 -11.968   2.168  1.00  0.00     0.061 A 
HETATM   10  N   UNL     1      40.927 -11.949   3.533  1.00  0.00    -0.307 N 
HETATM   11  C   UNL     1      42.051 -12.341   4.267  1.00  0.00     0.105 A 
HETATM   12  C   UNL     1      39.766 -11.461   4.129  1.00  0.00     0.133 A 
HETATM   13  C   UNL     1      42.036 -12.250   5.611  1.00  0.00    -0.046 A 
HETATM   14  C   UNL     1      43.185 -12.642   6.489  1.00  0.00     0.049 C 
HETATM   15  C   UNL     1      40.832 -11.735   6.257  1.00  0.00     0.012 A 
HETATM   16  C   UNL     1      39.751 -11.358   5.546  1.00  0.00     0.051 A 
HETATM   17  N   UNL     1      38.851 -11.172   3.231  1.00  0.00    -0.241 NA
HETATM   18  C   UNL     1      39.414 -11.452   2.022  1.00  0.00     0.146 A 
ENDBRANCH   8   9
ENDBRANCH   1   8
BRANCH   5  19
HETATM   19  C   UNL     1      41.571 -16.400   3.811  1.00  0.00    -0.024 A 
HETATM   20  C   UNL     1      42.477 -16.444   4.937  1.00  0.00     0.018 A 
HETATM   21  C   UNL     1      41.738 -16.109   6.069  1.00  0.00     0.138 A 
HETATM   22  C   UNL     1      43.841 -16.718   5.161  1.00  0.00     0.017 A 
HETATM   23  N   UNL     1      42.169 -15.967   7.333  1.00  0.00    -0.242 NA
HETATM   24  N   UNL     1      40.434 -15.961   5.704  1.00  0.00    -0.350 N 
HETATM   25  C   UNL     1      43.482 -16.226   7.483  1.00  0.00     0.119 A 
HETATM   26  C   UNL     1      44.341 -16.601   6.462  1.00  0.00     0.020 A 
HETATM   27  H   UNL     1      39.690 -15.770   6.361  1.00  0.00     0.166 HD
HETATM   28  C   UNL     1      40.315 -16.147   4.354  1.00  0.00     0.098 A 
ENDBRANCH   5  19
TORSDOF 3
ENDMDL
MODEL 8
REMARK VINA RESULT:      -8.1      4.209      7.023
REMARK  3 active torsions:
REMARK  status: ('A' for Active; 'I' for Inactive)
REMARK    1  A    between atoms: C_8  and  C_9 
REMARK    2  A    between atoms: C_9  and  N_10 
REMARK    3  A    between atoms: C_14  and  C_15 
ROOT
HETATM    1  N   UNL     1      40.821 -12.644   4.748  1.00  0.00    -0.066 N 
HETATM    2  H   UNL     1      40.137 -12.321   4.052  1.00  0.00     0.280 HD
HETATM    3  C   UNL     1      40.604 -11.848   6.016  1.00  0.00     0.236 C 
HETATM    4  C   UNL     1      40.928 -10.380   5.786  1.00  0.00     0.037 C 
HETATM    5  C   UNL     1      42.366 -10.177   5.295  1.00  0.00     0.024 C 
HETATM    6  C   UNL     1      42.472 -10.947   3.962  1.00  0.00     0.037 C 
HETATM    7  C   UNL     1      42.195 -12.435   4.147  1.00  0.00     0.236 C 
ENDROOT
BRANCH   1   8
HETATM    8  C   UNL     1      40.507 -14.108   5.001  1.00  0.00     0.293 C 
BRANCH   8   9
HETATM    9  C   UNL     1      40.696 -14.955   3.810  1.00  0.00     0.061 A 
HETATM   10  N   UNL     1      41.647 -15.957   3.695  1.00  0.00    -0.307 N 
HETATM   11  C   UNL     1      42.621 -16.399   4.596  1.00  0.00     0.105 A 
HETATM   12  C   UNL     1      41.496 -16.496   2.420  1.00  0.00     0.133 A 
HETATM   13  C   UNL     1      43.462 -17.390   4.239  1.00  0.00    -0.046 A 
HETATM   14  C   UNL     1      44.538 -17.935   5.128  1.00  0.00     0.049 C 
HETATM   15  C   UNL     1      43.318 -17.973   2.908  1.00  0.00     0.012 A 
HETATM   16  C   UNL     1      42.378 -17.545   2.044  1.00  0.00     0.051 A 
HETATM   17  N   UNL     1      40.522 -15.908   1.763  1.00  0.00    -0.241 NA
HETATM   18  C   UNL     1      40.004 -14.980   2.617  1.00  0.00     0.146 A 
ENDBRANCH   8   9
ENDBRANCH   1   8
BRANCH   5  19
HETATM   19  C   UNL     1      43.460 -10.572   6.279  1.00  0.00    -0.024 A 
HETATM   20  C   UNL     1      43.672 -10.160   7.649  1.00  0.00     0.018 A 
HETATM   21  C   UNL     1      44.781 -10.862   8.119  1.00  0.00     0.138 A 
HETATM   22  C   UNL     1      43.071  -9.284   8.575  1.00  0.00     0.017 A 
HETATM   23  N   UNL     1      45.315 -10.846   9.351  1.00  0.00    -0.242 NA
HETATM   24  N   UNL     1      45.296 -11.591   7.091  1.00  0.00    -0.350 N 
HETATM   25  C   UNL     1      44.689 -10.004  10.195  1.00  0.00     0.119 A 
HETATM   26  C   UNL     1      43.598  -9.216   9.869  1.00  0.00     0.020 A 
HETATM   27  H   UNL     1      46.139 -12.144   7.168  1.00  0.00     0.166 HD
HETATM   28  C   UNL     1      44.523 -11.416   5.975  1.00  0.00     0.098 A 
ENDBRANCH   5  19
TORSDOF 3
ENDMDL
MODEL 9
REMARK VINA RESULT:      -8.0      2.979      7.343
REMARK  3 active torsions:
REMARK  status: ('A' for Active; 'I' for Inactive)
REMARK    1  A    between atoms: C_8  and  C_9 
REMARK    2  A    between atoms: C_9  and  N_10 
REMARK    3  A    between atoms: C_14  and  C_15 
ROOT
HETATM    1  N   UNL     1      41.267 -12.654   1.998  1.00  0.00    -0.066 N 
HETATM    2  H   UNL     1      40.607 -12.301   1.293  1.00  0.00     0.280 HD
HETATM    3  C   UNL     1      41.987 -13.846   1.405  1.00  0.00     0.236 C 
HETATM    4  C   UNL     1      41.013 -14.988   1.160  1.00  0.00     0.037 C 
HETATM    5  C   UNL     1      40.288 -15.414   2.442  1.00  0.00     0.024 C 
HETATM    6  C   UNL     1      39.517 -14.170   2.926  1.00  0.00     0.037 C 
HETATM    7  C   UNL     1      40.454 -13.006   3.226  1.00  0.00     0.236 C 
ENDROOT
BRANCH   1   8
HETATM    8  C   UNL     1      42.256 -11.530   2.250  1.00  0.00     0.293 C 
BRANCH   8   9
HETATM    9  C   UNL     1      41.818 -10.598   3.302  1.00  0.00     0.061 A 
HETATM   10  N   UNL     1      42.369 -10.521   4.572  1.00  0.00    -0.307 N 
HETATM   11  C   UNL     1      43.401 -11.256   5.165  1.00  0.00     0.105 A 
HETATM   12  C   UNL     1      41.662  -9.529   5.247  1.00  0.00     0.133 A 
HETATM   13  C   UNL     1      43.747 -11.011   6.444  1.00  0.00    -0.046 A 
HETATM   14  C   UNL     1      44.836 -11.739   7.171  1.00  0.00     0.049 C 
HETATM   15  C   UNL     1      43.022  -9.970   7.169  1.00  0.00     0.012 A 
HETATM   16  C   UNL     1      42.029  -9.265   6.595  1.00  0.00     0.051 A 
HETATM   17  N   UNL     1      40.738  -8.993   4.482  1.00  0.00    -0.241 NA
HETATM   18  C   UNL     1      40.843  -9.620   3.276  1.00  0.00     0.146 A 
ENDBRANCH   8   9
ENDBRANCH   1   8
BRANCH   5  19
HETATM   19  C   UNL     1      41.172 -16.007   3.532  1.00  0.00    -0.024 A 
HETATM   20  C   UNL     1      42.236 -16.983   3.440  1.00  0.00     0.018 A 
HETATM   21  C   UNL     1      42.764 -17.133   4.720  1.00  0.00     0.138 A 
HETATM   22  C   UNL     1      42.839 -17.770   2.438  1.00  0.00     0.017 A 
HETATM   23  N   UNL     1      43.803 -17.891   5.109  1.00  0.00    -0.242 NA
HETATM   24  N   UNL     1      42.024 -16.381   5.582  1.00  0.00    -0.350 N 
HETATM   25  C   UNL     1      44.348 -18.606   4.107  1.00  0.00     0.119 A 
HETATM   26  C   UNL     1      43.915 -18.590   2.791  1.00  0.00     0.020 A 
HETATM   27  H   UNL     1      42.179 -16.366   6.581  1.00  0.00     0.166 HD
HETATM   28  C   UNL     1      41.056 -15.711   4.886  1.00  0.00     0.098 A 
ENDBRANCH   5  19
TORSDOF 3
ENDMDL
MODEL 10
REMARK VINA RESULT:      -8.0      1.989      3.107
REMARK  3 active torsions:
REMARK  status: ('A' for Active; 'I' for Inactive)
REMARK    1  A    between atoms: C_8  and  C_9 
REMARK    2  A    between atoms: C_9  and  N_10 
REMARK    3  A    between atoms: C_14  and  C_15 
ROOT
HETATM    1  N   UNL     1      42.292 -13.799   6.695  1.00  0.00    -0.066 N 
HETATM    2  H   UNL     1      41.984 -13.756   7.675  1.00  0.00     0.280 HD
HETATM    3  C   UNL     1      42.401 -12.381   6.179  1.00  0.00     0.236 C 
HETATM    4  C   UNL     1      41.032 -11.721   6.141  1.00  0.00     0.037 C 
HETATM    5  C   UNL     1      40.038 -12.504   5.276  1.00  0.00     0.024 C 
HETATM    6  C   UNL     1      39.923 -13.901   5.920  1.00  0.00     0.037 C 
HETATM    7  C   UNL     1      41.266 -14.623   5.946  1.00  0.00     0.236 C 
ENDROOT
BRANCH   1   8
HETATM    8  C   UNL     1      43.665 -14.447   6.712  1.00  0.00     0.293 C 
BRANCH   8   9
HETATM    9  C   UNL     1      43.635 -15.878   6.367  1.00  0.00     0.061 A 
HETATM   10  N   UNL     1      43.579 -16.380   5.076  1.00  0.00    -0.307 N 
HETATM   11  C   UNL     1      43.525 -15.723   3.843  1.00  0.00     0.105 A 
HETATM   12  C   UNL     1      43.555 -17.768   5.196  1.00  0.00     0.133 A 
HETATM   13  C   UNL     1      43.448 -16.441   2.705  1.00  0.00    -0.046 A 
HETATM   14  C   UNL     1      43.386 -15.836   1.336  1.00  0.00     0.049 C 
HETATM   15  C   UNL     1      43.427 -17.898   2.807  1.00  0.00     0.012 A 
HETATM   16  C   UNL     1      43.479 -18.527   3.997  1.00  0.00     0.051 A 
HETATM   17  N   UNL     1      43.605 -18.141   6.455  1.00  0.00    -0.241 NA
HETATM   18  C   UNL     1      43.685 -16.991   7.182  1.00  0.00     0.146 A 
ENDBRANCH   8   9
ENDBRANCH   1   8
BRANCH   5  19
HETATM   19  C   UNL     1      40.373 -12.578   3.791  1.00  0.00    -0.024 A 
HETATM   20  C   UNL     1      40.215 -13.669   2.855  1.00  0.00     0.018 A 
HETATM   21  C   UNL     1      40.615 -13.196   1.607  1.00  0.00     0.138 A 
HETATM   22  C   UNL     1      39.778 -15.009   2.885  1.00  0.00     0.017 A 
HETATM   23  N   UNL     1      40.591 -13.837   0.427  1.00  0.00    -0.242 NA
HETATM   24  N   UNL     1      41.088 -11.928   1.759  1.00  0.00    -0.350 N 
HETATM   25  C   UNL     1      40.150 -15.106   0.516  1.00  0.00     0.119 A 
HETATM   26  C   UNL     1      39.748 -15.728   1.687  1.00  0.00     0.020 A 
HETATM   27  H   UNL     1      41.488 -11.389   1.002  1.00  0.00     0.166 HD
HETATM   28  C   UNL     1      40.962 -11.548   3.067  1.00  0.00     0.098 A 
ENDBRANCH   5  19
TORSDOF 3
ENDMDL
