MODEL 1
REMARK VINA RESULT:      -7.9      0.000      0.000
REMARK  6 active torsions:
REMARK  status: ('A' for Active; 'I' for Inactive)
REMARK    1  A    between atoms: C_5  and  N_6 
REMARK    2  A    between atoms: N_6  and  C_7 
REMARK    3  A    between atoms: C_7  and  C_8 
REMARK    4  A    between atoms: N_10  and  C_12 
REMARK    5  A    between atoms: C_12  and  C_13 
REMARK    6  A    between atoms: C_14  and  O_15 
ROOT
HETATM    1  C   UNL     1      41.534 -14.717   3.285  1.00  0.00     0.031 C 
HETATM    2  C   UNL     1      41.049 -13.643   2.310  1.00  0.00     0.241 C 
HETATM    3  N   UNL     1      40.151 -14.362   1.336  1.00  0.00    -0.067 N 
HETATM    4  H   UNL     1      39.249 -13.850   1.294  1.00  0.00     0.280 HD
HETATM    5  C   UNL     1      39.856 -15.736   1.877  1.00  0.00     0.235 C 
HETATM    6  C   UNL     1      40.343 -15.675   3.318  1.00  0.00     0.035 C 
ENDROOT
BRANCH   1   7
HETATM    7  C   UNL     1      42.834 -15.414   2.844  1.00  0.00     0.127 C 
BRANCH   7   8
HETATM    8  N   UNL     1      43.242 -16.411   3.826  1.00  0.00    -0.376 N 
HETATM    9  H   UNL     1      44.041 -16.096   4.388  1.00  0.00     0.161 HD
BRANCH   8  10
HETATM   10  C   UNL     1      43.388 -17.777   3.580  1.00  0.00     0.101 A 
HETATM   11  N   UNL     1      43.848 -18.653   4.489  1.00  0.00    -0.347 N 
HETATM   12  C   UNL     1      44.000 -19.972   4.245  1.00  0.00     0.007 A 
HETATM   13  H   UNL     1      44.083 -18.318   5.413  1.00  0.00     0.167 HD
HETATM   14  C   UNL     1      44.476 -20.865   5.347  1.00  0.00     0.068 C 
HETATM   15  C   UNL     1      43.697 -20.475   2.981  1.00  0.00     0.025 A 
HETATM   16  C   UNL     1      43.252 -19.609   1.995  1.00  0.00     0.006 A 
HETATM   17  C   UNL     1      43.101 -18.259   2.293  1.00  0.00     0.048 A 
ENDBRANCH   8  10
ENDBRANCH   7   8
ENDBRANCH   1   7
BRANCH   3  18
HETATM   18  C   UNL     1      40.612 -14.321  -0.100  1.00  0.00     0.276 C 
BRANCH  18  19
HETATM   19  C   UNL     1      39.508 -14.045  -1.080  1.00  0.00     0.002 A 
HETATM   20  C   UNL     1      38.832 -12.817  -1.078  1.00  0.00     0.091 A 
HETATM   21  C   UNL     1      37.841 -12.540  -2.023  1.00  0.00     0.044 A 
HETATM   22 BR   UNL     1      36.935 -10.879  -2.011  1.00  0.00    -0.048 Br
HETATM   23  C   UNL     1      37.510 -13.493  -2.982  1.00  0.00     0.022 A 
HETATM   24  C   UNL     1      38.174 -14.719  -2.998  1.00  0.00     0.002 A 
HETATM   25  C   UNL     1      39.171 -14.994  -2.057  1.00  0.00     0.012 A 
BRANCH  20  26
HETATM   26  O   UNL     1      39.170 -11.908  -0.103  1.00  0.00    -0.359 OA
HETATM   27  H   UNL     1      38.341 -11.428   0.120  1.00  0.00     0.218 HD
ENDBRANCH  20  26
ENDBRANCH  18  19
ENDBRANCH   3  18
TORSDOF 6
ENDMDL
MODEL 2
REMARK VINA RESULT:      -7.9      5.481      7.503
REMARK  6 active torsions:
REMARK  status: ('A' for Active; 'I' for Inactive)
REMARK    1  A    between atoms: C_5  and  N_6 
REMARK    2  A    between atoms: N_6  and  C_7 
REMARK    3  A    between atoms: C_7  and  C_8 
REMARK    4  A    between atoms: N_10  and  C_12 
REMARK    5  A    between atoms: C_12  and  C_13 
REMARK    6  A    between atoms: C_14  and  O_15 
ROOT
HETATM    1  C   UNL     1      41.998 -15.434   5.742  1.00  0.00     0.031 C 
HETATM    2  C   UNL     1      42.928 -14.497   6.517  1.00  0.00     0.241 C 
HETATM    3  N   UNL     1      42.267 -13.144   6.465  1.00  0.00    -0.067 N 
HETATM    4  H   UNL     1      42.200 -12.783   7.437  1.00  0.00     0.280 HD
HETATM    5  C   UNL     1      40.858 -13.314   5.960  1.00  0.00     0.235 C 
HETATM    6  C   UNL     1      40.627 -14.817   6.020  1.00  0.00     0.035 C 
ENDROOT
BRANCH   1   7
HETATM    7  C   UNL     1      42.311 -15.512   4.237  1.00  0.00     0.127 C 
BRANCH   7   8
HETATM    8  N   UNL     1      43.516 -16.300   4.003  1.00  0.00    -0.376 N 
HETATM    9  H   UNL     1      44.178 -15.818   3.384  1.00  0.00     0.161 HD
BRANCH   8  10
HETATM   10  C   UNL     1      43.546 -17.663   3.705  1.00  0.00     0.101 A 
HETATM   11  N   UNL     1      43.969 -18.604   4.565  1.00  0.00    -0.347 N 
HETATM   12  C   UNL     1      44.009 -19.921   4.271  1.00  0.00     0.007 A 
HETATM   13  H   UNL     1      44.263 -18.323   5.491  1.00  0.00     0.167 HD
HETATM   14  C   UNL     1      44.454 -20.887   5.323  1.00  0.00     0.068 C 
HETATM   15  C   UNL     1      43.623 -20.353   3.004  1.00  0.00     0.025 A 
HETATM   16  C   UNL     1      43.211 -19.420   2.066  1.00  0.00     0.006 A 
HETATM   17  C   UNL     1      43.177 -18.075   2.414  1.00  0.00     0.048 A 
ENDBRANCH   8  10
ENDBRANCH   7   8
ENDBRANCH   1   7
BRANCH   3  18
HETATM   18  C   UNL     1      43.072 -12.071   5.776  1.00  0.00     0.276 C 
BRANCH  18  19
HETATM   19  C   UNL     1      44.013 -11.341   6.693  1.00  0.00     0.002 A 
HETATM   20  C   UNL     1      43.528 -10.574   7.761  1.00  0.00     0.091 A 
HETATM   21  C   UNL     1      44.404  -9.937   8.645  1.00  0.00     0.044 A 
HETATM   22 BR   UNL     1      43.739  -8.906  10.085  1.00  0.00    -0.048 Br
HETATM   23  C   UNL     1      45.779 -10.057   8.466  1.00  0.00     0.022 A 
HETATM   24  C   UNL     1      46.277 -10.815   7.408  1.00  0.00     0.002 A 
HETATM   25  C   UNL     1      45.401 -11.459   6.527  1.00  0.00     0.012 A 
BRANCH  20  26
HETATM   26  O   UNL     1      42.164 -10.461   7.895  1.00  0.00    -0.359 OA
HETATM   27  H   UNL     1      42.013  -9.969   8.733  1.00  0.00     0.218 HD
ENDBRANCH  20  26
ENDBRANCH  18  19
ENDBRANCH   3  18
TORSDOF 6
ENDMDL
MODEL 3
REMARK VINA RESULT:      -7.7      5.585      8.873
REMARK  6 active torsions:
REMARK  status: ('A' for Active; 'I' for Inactive)
REMARK    1  A    between atoms: C_5  and  N_6 
REMARK    2  A    between atoms: N_6  and  C_7 
REMARK    3  A    between atoms: C_7  and  C_8 
REMARK    4  A    between atoms: N_10  and  C_12 
REMARK    5  A    between atoms: C_12  and  C_13 
REMARK    6  A    between atoms: C_14  and  O_15 
ROOT
HETATM    1  C   UNL     1      41.961 -13.776   5.266  1.00  0.00     0.031 C 
HETATM    2  C   UNL     1      42.273 -15.000   4.403  1.00  0.00     0.241 C 
HETATM    3  N   UNL     1      42.435 -16.143   5.371  1.00  0.00    -0.067 N 
HETATM    4  H   UNL     1      41.820 -16.919   5.057  1.00  0.00     0.280 HD
HETATM    5  C   UNL     1      41.938 -15.703   6.723  1.00  0.00     0.235 C 
HETATM    6  C   UNL     1      41.204 -14.401   6.438  1.00  0.00     0.035 C 
ENDROOT
BRANCH   1   7
HETATM    7  C   UNL     1      43.213 -13.004   5.723  1.00  0.00     0.127 C 
BRANCH   7   8
HETATM    8  N   UNL     1      42.914 -12.184   6.890  1.00  0.00    -0.376 N 
HETATM    9  H   UNL     1      42.090 -11.589   6.743  1.00  0.00     0.161 HD
BRANCH   8  10
HETATM   10  C   UNL     1      43.849 -11.465   7.635  1.00  0.00     0.101 A 
HETATM   11  N   UNL     1      43.586 -10.919   8.835  1.00  0.00    -0.347 N 
HETATM   12  C   UNL     1      44.488 -10.214   9.549  1.00  0.00     0.007 A 
HETATM   13  H   UNL     1      42.669 -11.051   9.240  1.00  0.00     0.167 HD
HETATM   14  C   UNL     1      44.101  -9.692  10.896  1.00  0.00     0.068 C 
HETATM   15  C   UNL     1      45.762 -10.000   9.024  1.00  0.00     0.025 A 
HETATM   16  C   UNL     1      46.075 -10.510   7.774  1.00  0.00     0.006 A 
HETATM   17  C   UNL     1      45.118 -11.238   7.078  1.00  0.00     0.048 A 
ENDBRANCH   8  10
ENDBRANCH   7   8
ENDBRANCH   1   7
BRANCH   3  18
HETATM   18  C   UNL     1      43.798 -16.789   5.365  1.00  0.00     0.276 C 
BRANCH  18  19
HETATM   19  C   UNL     1      43.774 -18.245   4.994  1.00  0.00     0.002 A 
HETATM   20  C   UNL     1      43.750 -18.646   3.652  1.00  0.00     0.091 A 
HETATM   21  C   UNL     1      43.780 -20.000   3.305  1.00  0.00     0.044 A 
HETATM   22 BR   UNL     1      43.749 -20.531   1.489  1.00  0.00    -0.048 Br
HETATM   23  C   UNL     1      43.830 -20.971   4.301  1.00  0.00     0.022 A 
HETATM   24  C   UNL     1      43.854 -20.587   5.641  1.00  0.00     0.002 A 
HETATM   25  C   UNL     1      43.831 -19.233   5.989  1.00  0.00     0.012 A 
BRANCH  20  26
HETATM   26  O   UNL     1      43.680 -17.661   2.695  1.00  0.00    -0.359 OA
HETATM   27  H   UNL     1      43.737 -16.807   3.180  1.00  0.00     0.218 HD
ENDBRANCH  20  26
ENDBRANCH  18  19
ENDBRANCH   3  18
TORSDOF 6
ENDMDL
MODEL 4
REMARK VINA RESULT:      -7.6      5.570      8.235
REMARK  6 active torsions:
REMARK  status: ('A' for Active; 'I' for Inactive)
REMARK    1  A    between atoms: C_5  and  N_6 
REMARK    2  A    between atoms: N_6  and  C_7 
REMARK    3  A    between atoms: C_7  and  C_8 
REMARK    4  A    between atoms: N_10  and  C_12 
REMARK    5  A    between atoms: C_12  and  C_13 
REMARK    6  A    between atoms: C_14  and  O_15 
ROOT
HETATM    1  C   UNL     1      40.682 -13.143   5.025  1.00  0.00     0.031 C 
HETATM    2  C   UNL     1      41.014 -14.255   4.029  1.00  0.00     0.241 C 
HETATM    3  N   UNL     1      41.769 -15.291   4.820  1.00  0.00    -0.067 N 
HETATM    4  H   UNL     1      41.313 -16.211   4.662  1.00  0.00     0.280 HD
HETATM    5  C   UNL     1      41.629 -14.974   6.286  1.00  0.00     0.235 C 
HETATM    6  C   UNL     1      40.527 -13.926   6.330  1.00  0.00     0.035 C 
ENDROOT
BRANCH   1   7
HETATM    7  C   UNL     1      41.765 -12.053   5.121  1.00  0.00     0.127 C 
BRANCH   7   8
HETATM    8  N   UNL     1      42.094 -11.777   6.515  1.00  0.00    -0.376 N 
HETATM    9  H   UNL     1      41.398 -11.170   6.963  1.00  0.00     0.161 HD
BRANCH   8  10
HETATM   10  C   UNL     1      43.357 -11.429   6.994  1.00  0.00     0.101 A 
HETATM   11  N   UNL     1      43.571 -10.884   8.203  1.00  0.00    -0.347 N 
HETATM   12  C   UNL     1      44.793 -10.536   8.661  1.00  0.00     0.007 A 
HETATM   13  H   UNL     1      42.782 -10.734   8.818  1.00  0.00     0.167 HD
HETATM   14  C   UNL     1      44.920  -9.980  10.044  1.00  0.00     0.068 C 
HETATM   15  C   UNL     1      45.907 -10.715   7.843  1.00  0.00     0.025 A 
HETATM   16  C   UNL     1      45.739 -11.241   6.572  1.00  0.00     0.006 A 
HETATM   17  C   UNL     1      44.464 -11.593   6.146  1.00  0.00     0.048 A 
ENDBRANCH   8  10
ENDBRANCH   7   8
ENDBRANCH   1   7
BRANCH   3  18
HETATM   18  C   UNL     1      43.179 -15.545   4.348  1.00  0.00     0.276 C 
BRANCH  18  19
HETATM   19  C   UNL     1      43.396 -16.932   3.814  1.00  0.00     0.002 A 
HETATM   20  C   UNL     1      43.694 -17.998   4.675  1.00  0.00     0.091 A 
HETATM   21  C   UNL     1      43.845 -19.298   4.185  1.00  0.00     0.044 A 
HETATM   22 BR   UNL     1      44.247 -20.729   5.355  1.00  0.00    -0.048 Br
HETATM   23  C   UNL     1      43.703 -19.547   2.823  1.00  0.00     0.022 A 
HETATM   24  C   UNL     1      43.407 -18.498   1.954  1.00  0.00     0.002 A 
HETATM   25  C   UNL     1      43.249 -17.198   2.445  1.00  0.00     0.012 A 
BRANCH  20  26
HETATM   26  O   UNL     1      43.849 -17.711   6.011  1.00  0.00    -0.359 OA
HETATM   27  H   UNL     1      43.149 -18.219   6.480  1.00  0.00     0.218 HD
ENDBRANCH  20  26
ENDBRANCH  18  19
ENDBRANCH   3  18
TORSDOF 6
ENDMDL
MODEL 5
REMARK VINA RESULT:      -7.4      3.805      7.550
REMARK  6 active torsions:
REMARK  status: ('A' for Active; 'I' for Inactive)
REMARK    1  A    between atoms: C_5  and  N_6 
REMARK    2  A    between atoms: N_6  and  C_7 
REMARK    3  A    between atoms: C_7  and  C_8 
REMARK    4  A    between atoms: N_10  and  C_12 
REMARK    5  A    between atoms: C_12  and  C_13 
REMARK    6  A    between atoms: C_14  and  O_15 
ROOT
HETATM    1  C   UNL     1      39.344 -12.651   3.519  1.00  0.00     0.031 C 
HETATM    2  C   UNL     1      40.288 -13.820   3.809  1.00  0.00     0.241 C 
HETATM    3  N   UNL     1      41.611 -13.190   4.159  1.00  0.00    -0.067 N 
HETATM    4  H   UNL     1      41.927 -13.591   5.063  1.00  0.00     0.280 HD
HETATM    5  C   UNL     1      41.400 -11.715   4.379  1.00  0.00     0.235 C 
HETATM    6  C   UNL     1      39.887 -11.569   4.454  1.00  0.00     0.035 C 
ENDROOT
BRANCH   1   7
HETATM    7  C   UNL     1      39.344 -12.204   2.046  1.00  0.00     0.127 C 
BRANCH   7   8
HETATM    8  N   UNL     1      39.453 -13.357   1.160  1.00  0.00    -0.376 N 
HETATM    9  H   UNL     1      40.056 -14.090   1.552  1.00  0.00     0.161 HD
BRANCH   8  10
HETATM   10  C   UNL     1      39.667 -13.301  -0.218  1.00  0.00     0.101 A 
HETATM   11  N   UNL     1      38.989 -14.046  -1.108  1.00  0.00    -0.347 N 
HETATM   12  C   UNL     1      39.205 -13.999  -2.439  1.00  0.00     0.007 A 
HETATM   13  H   UNL     1      38.265 -14.668  -0.773  1.00  0.00     0.167 HD
HETATM   14  C   UNL     1      38.357 -14.838  -3.343  1.00  0.00     0.068 C 
HETATM   15  C   UNL     1      40.199 -13.163  -2.944  1.00  0.00     0.025 A 
HETATM   16  C   UNL     1      40.953 -12.399  -2.067  1.00  0.00     0.006 A 
HETATM   17  C   UNL     1      40.690 -12.472  -0.704  1.00  0.00     0.048 A 
ENDBRANCH   8  10
ENDBRANCH   7   8
ENDBRANCH   1   7
BRANCH   3  18
HETATM   18  C   UNL     1      42.747 -13.546   3.233  1.00  0.00     0.276 C 
BRANCH  18  19
HETATM   19  C   UNL     1      43.024 -15.021   3.157  1.00  0.00     0.002 A 
HETATM   20  C   UNL     1      43.213 -15.780   4.320  1.00  0.00     0.091 A 
HETATM   21  C   UNL     1      43.419 -17.161   4.252  1.00  0.00     0.044 A 
HETATM   22 BR   UNL     1      43.673 -18.176   5.828  1.00  0.00    -0.048 Br
HETATM   23  C   UNL     1      43.442 -17.799   3.015  1.00  0.00     0.022 A 
HETATM   24  C   UNL     1      43.255 -17.058   1.849  1.00  0.00     0.002 A 
HETATM   25  C   UNL     1      43.042 -15.677   1.917  1.00  0.00     0.012 A 
BRANCH  20  26
HETATM   26  O   UNL     1      43.206 -15.112   5.522  1.00  0.00    -0.359 OA
HETATM   27  H   UNL     1      42.689 -15.675   6.142  1.00  0.00     0.218 HD
ENDBRANCH  20  26
ENDBRANCH  18  19
ENDBRANCH   3  18
TORSDOF 6
ENDMDL
MODEL 6
REMARK VINA RESULT:      -7.3      3.271      8.235
REMARK  6 active torsions:
REMARK  status: ('A' for Active; 'I' for Inactive)
REMARK    1  A    between atoms: C_5  and  N_6 
REMARK    2  A    between atoms: N_6  and  C_7 
REMARK    3  A    between atoms: C_7  and  C_8 
REMARK    4  A    between atoms: N_10  and  C_12 
REMARK    5  A    between atoms: C_12  and  C_13 
REMARK    6  A    between atoms: C_14  and  O_15 
ROOT
HETATM    1  C   UNL     1      39.960 -14.543   2.460  1.00  0.00     0.031 C 
HETATM    2  C   UNL     1      40.622 -15.683   3.238  1.00  0.00     0.241 C 
HETATM    3  N   UNL     1      41.636 -15.021   4.134  1.00  0.00    -0.067 N 
HETATM    4  H   UNL     1      41.475 -15.356   5.104  1.00  0.00     0.280 HD
HETATM    5  C   UNL     1      41.384 -13.535   4.133  1.00  0.00     0.235 C 
HETATM    6  C   UNL     1      40.021 -13.396   3.470  1.00  0.00     0.035 C 
ENDROOT
BRANCH   1   7
HETATM    7  C   UNL     1      40.671 -14.199   1.139  1.00  0.00     0.127 C 
BRANCH   7   8
HETATM    8  N   UNL     1      40.077 -14.935   0.029  1.00  0.00    -0.376 N 
HETATM    9  H   UNL     1      40.743 -15.586  -0.402  1.00  0.00     0.161 HD
BRANCH   8  10
HETATM   10  C   UNL     1      39.287 -14.380  -0.978  1.00  0.00     0.101 A 
HETATM   11  N   UNL     1      38.662 -13.196  -0.868  1.00  0.00    -0.347 N 
HETATM   12  C   UNL     1      37.888 -12.666  -1.839  1.00  0.00     0.007 A 
HETATM   13  H   UNL     1      38.782 -12.658  -0.021  1.00  0.00     0.167 HD
HETATM   14  C   UNL     1      37.278 -11.317  -1.627  1.00  0.00     0.068 C 
HETATM   15  C   UNL     1      37.686 -13.378  -3.020  1.00  0.00     0.025 A 
HETATM   16  C   UNL     1      38.279 -14.621  -3.172  1.00  0.00     0.006 A 
HETATM   17  C   UNL     1      39.076 -15.124  -2.150  1.00  0.00     0.048 A 
ENDBRANCH   8  10
ENDBRANCH   7   8
ENDBRANCH   1   7
BRANCH   3  18
HETATM   18  C   UNL     1      43.067 -15.431   3.885  1.00  0.00     0.276 C 
BRANCH  18  19
HETATM   19  C   UNL     1      43.334 -16.883   4.158  1.00  0.00     0.002 A 
HETATM   20  C   UNL     1      43.420 -17.810   3.109  1.00  0.00     0.091 A 
HETATM   21  C   UNL     1      43.720 -19.152   3.358  1.00  0.00     0.044 A 
HETATM   22 BR   UNL     1      43.835 -20.394   1.935  1.00  0.00    -0.048 Br
HETATM   23  C   UNL     1      43.934 -19.585   4.664  1.00  0.00     0.022 A 
HETATM   24  C   UNL     1      43.852 -18.676   5.717  1.00  0.00     0.002 A 
HETATM   25  C   UNL     1      43.559 -17.331   5.468  1.00  0.00     0.012 A 
BRANCH  20  26
HETATM   26  O   UNL     1      43.182 -17.351   1.835  1.00  0.00    -0.359 OA
HETATM   27  H   UNL     1      42.658 -16.524   1.938  1.00  0.00     0.218 HD
ENDBRANCH  20  26
ENDBRANCH  18  19
ENDBRANCH   3  18
TORSDOF 6
ENDMDL
MODEL 7
REMARK VINA RESULT:      -7.2      1.884      2.618
REMARK  6 active torsions:
REMARK  status: ('A' for Active; 'I' for Inactive)
REMARK    1  A    between atoms: C_5  and  N_6 
REMARK    2  A    between atoms: N_6  and  C_7 
REMARK    3  A    between atoms: C_7  and  C_8 
REMARK    4  A    between atoms: N_10  and  C_12 
REMARK    5  A    between atoms: C_12  and  C_13 
REMARK    6  A    between atoms: C_14  and  O_15 
ROOT
HETATM    1  C   UNL     1      43.000 -14.226   4.848  1.00  0.00     0.031 C 
HETATM    2  C   UNL     1      42.586 -13.648   3.493  1.00  0.00     0.241 C 
HETATM    3  N   UNL     1      41.116 -13.341   3.620  1.00  0.00    -0.067 N 
HETATM    4  H   UNL     1      40.967 -12.356   3.327  1.00  0.00     0.280 HD
HETATM    5  C   UNL     1      40.728 -13.434   5.073  1.00  0.00     0.235 C 
HETATM    6  C   UNL     1      42.061 -13.491   5.805  1.00  0.00     0.035 C 
ENDROOT
BRANCH   1   7
HETATM    7  C   UNL     1      42.850 -15.756   4.940  1.00  0.00     0.127 C 
BRANCH   7   8
HETATM    8  N   UNL     1      43.510 -16.406   3.814  1.00  0.00    -0.376 N 
HETATM    9  H   UNL     1      43.319 -15.928   2.926  1.00  0.00     0.161 HD
BRANCH   8  10
HETATM   10  C   UNL     1      43.538 -17.781   3.577  1.00  0.00     0.101 A 
HETATM   11  N   UNL     1      43.959 -18.683   4.479  1.00  0.00    -0.347 N 
HETATM   12  C   UNL     1      43.997 -20.012   4.245  1.00  0.00     0.007 A 
HETATM   13  H   UNL     1      44.251 -18.362   5.392  1.00  0.00     0.167 HD
HETATM   14  C   UNL     1      44.439 -20.931   5.339  1.00  0.00     0.068 C 
HETATM   15  C   UNL     1      43.613 -20.500   2.997  1.00  0.00     0.025 A 
HETATM   16  C   UNL     1      43.204 -19.609   2.017  1.00  0.00     0.006 A 
HETATM   17  C   UNL     1      43.171 -18.249   2.306  1.00  0.00     0.048 A 
ENDBRANCH   8  10
ENDBRANCH   7   8
ENDBRANCH   1   7
BRANCH   3  18
HETATM   18  C   UNL     1      40.226 -14.099   2.667  1.00  0.00     0.276 C 
BRANCH  18  19
HETATM   19  C   UNL     1      39.763 -13.282   1.494  1.00  0.00     0.002 A 
HETATM   20  C   UNL     1      40.196 -13.578   0.194  1.00  0.00     0.091 A 
HETATM   21  C   UNL     1      39.726 -12.851  -0.903  1.00  0.00     0.044 A 
HETATM   22 BR   UNL     1      40.315 -13.258  -2.654  1.00  0.00    -0.048 Br
HETATM   23  C   UNL     1      38.817 -11.814  -0.711  1.00  0.00     0.022 A 
HETATM   24  C   UNL     1      38.377 -11.508   0.576  1.00  0.00     0.002 A 
HETATM   25  C   UNL     1      38.842 -12.239   1.674  1.00  0.00     0.012 A 
BRANCH  20  26
HETATM   26  O   UNL     1      41.110 -14.594   0.045  1.00  0.00    -0.359 OA
HETATM   27  H   UNL     1      41.513 -14.468  -0.844  1.00  0.00     0.218 HD
ENDBRANCH  20  26
ENDBRANCH  18  19
ENDBRANCH   3  18
TORSDOF 6
ENDMDL
MODEL 8
REMARK VINA RESULT:      -7.0      2.971      7.216
REMARK  6 active torsions:
REMARK  status: ('A' for Active; 'I' for Inactive)
REMARK    1  A    between atoms: C_5  and  N_6 
REMARK    2  A    between atoms: N_6  and  C_7 
REMARK    3  A    between atoms: C_7  and  C_8 
REMARK    4  A    between atoms: N_10  and  C_12 
REMARK    5  A    between atoms: C_12  and  C_13 
REMARK    6  A    between atoms: C_14  and  O_15 
ROOT
HETATM    1  C   UNL     1      42.717 -16.492   2.227  1.00  0.00     0.031 C 
HETATM    2  C   UNL     1      43.229 -15.477   3.251  1.00  0.00     0.241 C 
HETATM    3  N   UNL     1      43.481 -16.268   4.508  1.00  0.00    -0.067 N 
HETATM    4  H   UNL     1      44.449 -16.064   4.827  1.00  0.00     0.280 HD
HETATM    5  C   UNL     1      43.427 -17.736   4.173  1.00  0.00     0.235 C 
HETATM    6  C   UNL     1      43.449 -17.765   2.652  1.00  0.00     0.035 C 
ENDROOT
BRANCH   1   7
HETATM    7  C   UNL     1      41.187 -16.665   2.237  1.00  0.00     0.127 C 
BRANCH   7   8
HETATM    8  N   UNL     1      40.522 -15.369   2.164  1.00  0.00    -0.376 N 
HETATM    9  H   UNL     1      39.633 -15.361   2.676  1.00  0.00     0.161 HD
BRANCH   8  10
HETATM   10  C   UNL     1      40.372 -14.602   1.008  1.00  0.00     0.101 A 
HETATM   11  N   UNL     1      39.735 -15.032  -0.094  1.00  0.00    -0.347 N 
HETATM   12  C   UNL     1      39.600 -14.293  -1.215  1.00  0.00     0.007 A 
HETATM   13  H   UNL     1      39.317 -15.952  -0.088  1.00  0.00     0.167 HD
HETATM   14  C   UNL     1      38.828 -14.854  -2.368  1.00  0.00     0.068 C 
HETATM   15  C   UNL     1      40.169 -13.022  -1.271  1.00  0.00     0.025 A 
HETATM   16  C   UNL     1      40.868 -12.542  -0.175  1.00  0.00     0.006 A 
HETATM   17  C   UNL     1      40.974 -13.334   0.963  1.00  0.00     0.048 A 
ENDBRANCH   8  10
ENDBRANCH   7   8
ENDBRANCH   1   7
BRANCH   3  18
HETATM   18  C   UNL     1      42.654 -15.848   5.698  1.00  0.00     0.276 C 
BRANCH  18  19
HETATM   19  C   UNL     1      42.524 -14.359   5.847  1.00  0.00     0.002 A 
HETATM   20  C   UNL     1      41.318 -13.708   5.554  1.00  0.00     0.091 A 
HETATM   21  C   UNL     1      41.181 -12.329   5.742  1.00  0.00     0.044 A 
HETATM   22 BR   UNL     1      39.548 -11.460   5.345  1.00  0.00    -0.048 Br
HETATM   23  C   UNL     1      42.254 -11.584   6.223  1.00  0.00     0.022 A 
HETATM   24  C   UNL     1      43.460 -12.217   6.519  1.00  0.00     0.002 A 
HETATM   25  C   UNL     1      43.596 -13.597   6.338  1.00  0.00     0.012 A 
BRANCH  20  26
HETATM   26  O   UNL     1      40.287 -14.472   5.061  1.00  0.00    -0.359 OA
HETATM   27  H   UNL     1      39.526 -14.324   5.667  1.00  0.00     0.218 HD
ENDBRANCH  20  26
ENDBRANCH  18  19
ENDBRANCH   3  18
TORSDOF 6
ENDMDL
MODEL 9
REMARK VINA RESULT:      -6.8      7.063      9.434
REMARK  6 active torsions:
REMARK  status: ('A' for Active; 'I' for Inactive)
REMARK    1  A    between atoms: C_5  and  N_6 
REMARK    2  A    between atoms: N_6  and  C_7 
REMARK    3  A    between atoms: C_7  and  C_8 
REMARK    4  A    between atoms: N_10  and  C_12 
REMARK    5  A    between atoms: C_12  and  C_13 
REMARK    6  A    between atoms: C_14  and  O_15 
ROOT
HETATM    1  C   UNL     1      44.039 -11.332   7.504  1.00  0.00     0.031 C 
HETATM    2  C   UNL     1      43.713 -12.796   7.203  1.00  0.00     0.241 C 
HETATM    3  N   UNL     1      43.893 -12.950   5.715  1.00  0.00    -0.067 N 
HETATM    4  H   UNL     1      44.523 -13.760   5.550  1.00  0.00     0.280 HD
HETATM    5  C   UNL     1      44.597 -11.728   5.185  1.00  0.00     0.235 C 
HETATM    6  C   UNL     1      45.091 -11.019   6.438  1.00  0.00     0.035 C 
ENDROOT
BRANCH   1   7
HETATM    7  C   UNL     1      42.821 -10.395   7.417  1.00  0.00     0.127 C 
BRANCH   7   8
HETATM    8  N   UNL     1      42.986  -9.254   8.311  1.00  0.00    -0.376 N 
HETATM    9  H   UNL     1      43.856  -8.742   8.126  1.00  0.00     0.161 HD
BRANCH   8  10
HETATM   10  C   UNL     1      42.767  -9.267   9.688  1.00  0.00     0.101 A 
HETATM   11  N   UNL     1      41.595  -9.605  10.253  1.00  0.00    -0.347 N 
HETATM   12  C   UNL     1      41.380  -9.606  11.585  1.00  0.00     0.007 A 
HETATM   13  H   UNL     1      40.830  -9.890   9.656  1.00  0.00     0.167 HD
HETATM   14  C   UNL     1      40.049 -10.047  12.107  1.00  0.00     0.068 C 
HETATM   15  C   UNL     1      42.404  -9.212  12.445  1.00  0.00     0.025 A 
HETATM   16  C   UNL     1      43.622  -8.819  11.914  1.00  0.00     0.006 A 
HETATM   17  C   UNL     1      43.802  -8.842  10.536  1.00  0.00     0.048 A 
ENDBRANCH   8  10
ENDBRANCH   7   8
ENDBRANCH   1   7
BRANCH   3  18
HETATM   18  C   UNL     1      42.648 -13.352   4.963  1.00  0.00     0.276 C 
BRANCH  18  19
HETATM   19  C   UNL     1      42.886 -14.409   3.923  1.00  0.00     0.002 A 
HETATM   20  C   UNL     1      43.246 -15.713   4.290  1.00  0.00     0.091 A 
HETATM   21  C   UNL     1      43.417 -16.710   3.326  1.00  0.00     0.044 A 
HETATM   22 BR   UNL     1      43.902 -18.468   3.832  1.00  0.00    -0.048 Br
HETATM   23  C   UNL     1      43.233 -16.412   1.978  1.00  0.00     0.022 A 
HETATM   24  C   UNL     1      42.874 -15.120   1.598  1.00  0.00     0.002 A 
HETATM   25  C   UNL     1      42.697 -14.123   2.562  1.00  0.00     0.012 A 
BRANCH  20  26
HETATM   26  O   UNL     1      43.440 -15.966   5.628  1.00  0.00    -0.359 OA
HETATM   27  H   UNL     1      42.602 -16.365   5.953  1.00  0.00     0.218 HD
ENDBRANCH  20  26
ENDBRANCH  18  19
ENDBRANCH   3  18
TORSDOF 6
ENDMDL
MODEL 10
REMARK VINA RESULT:      -6.7      5.160      8.627
REMARK  6 active torsions:
REMARK  status: ('A' for Active; 'I' for Inactive)
REMARK    1  A    between atoms: C_5  and  N_6 
REMARK    2  A    between atoms: N_6  and  C_7 
REMARK    3  A    between atoms: C_7  and  C_8 
REMARK    4  A    between atoms: N_10  and  C_12 
REMARK    5  A    between atoms: C_12  and  C_13 
REMARK    6  A    between atoms: C_14  and  O_15 
ROOT
HETATM    1  C   UNL     1      42.275 -14.964   4.032  1.00  0.00     0.031 C 
HETATM    2  C   UNL     1      42.877 -13.568   4.200  1.00  0.00     0.241 C 
HETATM    3  N   UNL     1      43.469 -13.551   5.586  1.00  0.00    -0.067 N 
HETATM    4  H   UNL     1      44.454 -13.229   5.510  1.00  0.00     0.280 HD
HETATM    5  C   UNL     1      43.504 -14.962   6.113  1.00  0.00     0.235 C 
HETATM    6  C   UNL     1      43.212 -15.817   4.888  1.00  0.00     0.035 C 
ENDROOT
BRANCH   1   7
HETATM    7  C   UNL     1      40.809 -15.066   4.490  1.00  0.00     0.127 C 
BRANCH   7   8
HETATM    8  N   UNL     1      39.944 -15.419   3.370  1.00  0.00    -0.376 N 
HETATM    9  H   UNL     1      39.987 -16.420   3.149  1.00  0.00     0.161 HD
BRANCH   8  10
HETATM   10  C   UNL     1      39.839 -14.707   2.174  1.00  0.00     0.101 A 
HETATM   11  N   UNL     1      39.444 -13.425   2.102  1.00  0.00    -0.347 N 
HETATM   12  C   UNL     1      39.331 -12.742   0.944  1.00  0.00     0.007 A 
HETATM   13  H   UNL     1      39.230 -12.932   2.958  1.00  0.00     0.167 HD
HETATM   14  C   UNL     1      38.928 -11.302   0.985  1.00  0.00     0.068 C 
HETATM   15  C   UNL     1      39.606 -13.386  -0.262  1.00  0.00     0.025 A 
HETATM   16  C   UNL     1      39.984 -14.719  -0.248  1.00  0.00     0.006 A 
HETATM   17  C   UNL     1      40.096 -15.381   0.969  1.00  0.00     0.048 A 
ENDBRANCH   8  10
ENDBRANCH   7   8
ENDBRANCH   1   7
BRANCH   3  18
HETATM   18  C   UNL     1      42.868 -12.530   6.520  1.00  0.00     0.276 C 
BRANCH  18  19
HETATM   19  C   UNL     1      43.853 -11.509   7.013  1.00  0.00     0.002 A 
HETATM   20  C   UNL     1      43.424 -10.365   7.700  1.00  0.00     0.091 A 
HETATM   21  C   UNL     1      44.343  -9.441   8.204  1.00  0.00     0.044 A 
HETATM   22 BR   UNL     1      43.752  -7.901   9.131  1.00  0.00    -0.048 Br
HETATM   23  C   UNL     1      45.708  -9.650   8.022  1.00  0.00     0.022 A 
HETATM   24  C   UNL     1      46.151 -10.782   7.341  1.00  0.00     0.002 A 
HETATM   25  C   UNL     1      45.232 -11.711   6.842  1.00  0.00     0.012 A 
BRANCH  20  26
HETATM   26  O   UNL     1      42.068 -10.182   7.842  1.00  0.00    -0.359 OA
HETATM   27  H   UNL     1      41.700 -10.159   6.930  1.00  0.00     0.218 HD
ENDBRANCH  20  26
ENDBRANCH  18  19
ENDBRANCH   3  18
TORSDOF 6
ENDMDL
