MODEL 1
REMARK VINA RESULT:      -9.2      0.000      0.000
REMARK  5 active torsions:
REMARK  status: ('A' for Active; 'I' for Inactive)
REMARK    1  A    between atoms: C_7  and  C_8 
REMARK    2  A    between atoms: C_16  and  C_17 
REMARK    3  A    between atoms: C_20  and  O_21 
REMARK    4  A    between atoms: C_24  and  C_25 
REMARK       I    between atoms: C_25  and  N_26 
REMARK    5  A    between atoms: N_26  and  C_27 
ROOT
HETATM    1  C   UNL     1      38.801 -11.502   2.927  1.00  0.00     0.070 C 
HETATM    2  C   UNL     1      39.828 -12.415   3.552  1.00  0.00     0.037 C 
HETATM    3  N   UNL     1      40.330 -13.417   2.723  1.00  0.00    -0.192 N 
HETATM    4  C   UNL     1      41.069 -14.445   3.187  1.00  0.00     0.726 A 
HETATM    5  N   UNL     1      41.504 -14.417   4.479  1.00  0.00    -0.083 N 
HETATM    6  N   UNL     1      42.181 -15.534   4.802  1.00  0.00    -0.135 NA
HETATM    7  C   UNL     1      42.146 -16.206   3.636  1.00  0.00     0.200 A 
HETATM    8  N   UNL     1      41.475 -15.549   2.621  1.00  0.00    -0.041 NA
HETATM    9  C   UNL     1      41.307 -13.283   5.384  1.00  0.00     0.202 C 
HETATM   10  C   UNL     1      40.260 -12.317   4.837  1.00  0.00     0.062 C 
HETATM   11  H   UNL     1      39.902 -13.516   1.805  1.00  0.00     0.184 HD
ENDROOT
BRANCH  10  12
HETATM   12  C   UNL     1      39.565 -11.416   5.805  1.00  0.00     0.256 C 
HETATM   13  N   UNL     1      40.137 -10.171   5.942  1.00  0.00    -0.323 N 
HETATM   14  H   UNL     1      40.937  -9.942   5.368  1.00  0.00     0.169 HD
HETATM   15  O   UNL     1      38.593 -11.840   6.420  1.00  0.00    -0.267 OA
BRANCH  13  16
HETATM   16  C   UNL     1      39.740  -9.138   6.819  1.00  0.00     0.035 A 
HETATM   17  C   UNL     1      40.024  -9.115   8.185  1.00  0.00     0.029 A 
HETATM   18  C   UNL     1      39.590  -8.051   8.981  1.00  0.00     0.002 A 
HETATM   19  C   UNL     1      38.878  -6.995   8.417  1.00  0.00     0.000 A 
HETATM   20  C   UNL     1      38.591  -7.007   7.055  1.00  0.00     0.002 A 
HETATM   21  C   UNL     1      39.014  -8.076   6.262  1.00  0.00     0.029 A 
ENDBRANCH  13  16
ENDBRANCH  10  12
BRANCH   9  22
HETATM   22  C   UNL     1      42.666 -12.627   5.636  1.00  0.00    -0.028 A 
HETATM   23  C   UNL     1      43.362 -11.949   4.614  1.00  0.00     0.012 A 
HETATM   24  C   UNL     1      44.603 -11.360   4.865  1.00  0.00     0.037 A 
HETATM   25  C   UNL     1      45.160 -11.454   6.134  1.00  0.00     0.065 A 
HETATM   26  C   UNL     1      44.500 -12.128   7.154  1.00  0.00     0.037 A 
HETATM   27  C   UNL     1      43.259 -12.717   6.907  1.00  0.00     0.012 A 
BRANCH  25  28
HETATM   28  O   UNL     1      46.372 -10.900   6.421  1.00  0.00    -0.361 OA
HETATM   29  H   UNL     1      47.066 -11.553   6.233  1.00  0.00     0.217 HD
ENDBRANCH  25  28
ENDBRANCH   9  22
BRANCH   7  30
HETATM   30  C   UNL     1      42.839 -17.472   3.440  1.00  0.00     0.036 A 
HETATM   31  C   UNL     1      43.800 -17.969   4.332  1.00  0.00     0.048 A 
HETATM   32 CL   UNL     1      44.332 -17.101   5.731  1.00  0.00    -0.083 Cl
HETATM   33  C   UNL     1      44.417 -19.204   4.086  1.00  0.00     0.025 A 
HETATM   34  C   UNL     1      44.085 -19.951   2.955  1.00  0.00     0.002 A 
HETATM   35  C   UNL     1      43.140 -19.464   2.057  1.00  0.00     0.001 A 
HETATM   36  C   UNL     1      42.525 -18.234   2.297  1.00  0.00     0.017 A 
ENDBRANCH   7  30
TORSDOF 5
ENDMDL
MODEL 2
REMARK VINA RESULT:      -9.1      1.672      2.173
REMARK  5 active torsions:
REMARK  status: ('A' for Active; 'I' for Inactive)
REMARK    1  A    between atoms: C_7  and  C_8 
REMARK    2  A    between atoms: C_16  and  C_17 
REMARK    3  A    between atoms: C_20  and  O_21 
REMARK    4  A    between atoms: C_24  and  C_25 
REMARK       I    between atoms: C_25  and  N_26 
REMARK    5  A    between atoms: N_26  and  C_27 
ROOT
HETATM    1  C   UNL     1      40.945 -11.733   0.282  1.00  0.00     0.070 C 
HETATM    2  C   UNL     1      41.340 -12.670   1.398  1.00  0.00     0.037 C 
HETATM    3  N   UNL     1      42.061 -13.799   1.011  1.00  0.00    -0.192 N 
HETATM    4  C   UNL     1      42.286 -14.839   1.840  1.00  0.00     0.726 A 
HETATM    5  N   UNL     1      41.964 -14.716   3.158  1.00  0.00    -0.083 N 
HETATM    6  N   UNL     1      42.200 -15.853   3.839  1.00  0.00    -0.135 NA
HETATM    7  C   UNL     1      42.699 -16.639   2.866  1.00  0.00     0.200 A 
HETATM    8  N   UNL     1      42.772 -16.031   1.626  1.00  0.00    -0.041 NA
HETATM    9  C   UNL     1      41.475 -13.478   3.769  1.00  0.00     0.202 C 
HETATM   10  C   UNL     1      41.029 -12.478   2.707  1.00  0.00     0.062 C 
HETATM   11  H   UNL     1      42.180 -13.953   0.013  1.00  0.00     0.184 HD
ENDROOT
BRANCH  10  12
HETATM   12  C   UNL     1      40.058 -11.416   3.108  1.00  0.00     0.256 C 
HETATM   13  N   UNL     1      40.638 -10.240   3.529  1.00  0.00    -0.323 N 
HETATM   14  H   UNL     1      41.645 -10.160   3.499  1.00  0.00     0.169 HD
HETATM   15  O   UNL     1      38.858 -11.664   3.077  1.00  0.00    -0.267 OA
BRANCH  13  16
HETATM   16  C   UNL     1      39.982  -9.090   4.021  1.00  0.00     0.035 A 
HETATM   17  C   UNL     1      39.581  -8.015   3.226  1.00  0.00     0.029 A 
HETATM   18  C   UNL     1      38.936  -6.913   3.798  1.00  0.00     0.002 A 
HETATM   19  C   UNL     1      38.677  -6.882   5.167  1.00  0.00     0.000 A 
HETATM   20  C   UNL     1      39.072  -7.950   5.968  1.00  0.00     0.002 A 
HETATM   21  C   UNL     1      39.727  -9.044   5.398  1.00  0.00     0.029 A 
ENDBRANCH  13  16
ENDBRANCH  10  12
BRANCH   9  22
HETATM   22  C   UNL     1      42.567 -12.935   4.694  1.00  0.00    -0.028 A 
HETATM   23  C   UNL     1      43.537 -12.022   4.238  1.00  0.00     0.012 A 
HETATM   24  C   UNL     1      44.527 -11.541   5.098  1.00  0.00     0.037 A 
HETATM   25  C   UNL     1      44.557 -11.979   6.417  1.00  0.00     0.065 A 
HETATM   26  C   UNL     1      43.619 -12.889   6.887  1.00  0.00     0.037 A 
HETATM   27  C   UNL     1      42.628 -13.370   6.030  1.00  0.00     0.012 A 
BRANCH  25  28
HETATM   28  O   UNL     1      45.509 -11.541   7.288  1.00  0.00    -0.361 OA
HETATM   29  H   UNL     1      45.632 -12.212   7.980  1.00  0.00     0.217 HD
ENDBRANCH  25  28
ENDBRANCH   9  22
BRANCH   7  30
HETATM   30  C   UNL     1      43.205 -17.981   3.124  1.00  0.00     0.036 A 
HETATM   31  C   UNL     1      43.934 -18.319   4.273  1.00  0.00     0.048 A 
HETATM   32 CL   UNL     1      44.383 -17.168   5.484  1.00  0.00    -0.083 Cl
HETATM   33  C   UNL     1      44.377 -19.636   4.462  1.00  0.00     0.025 A 
HETATM   34  C   UNL     1      44.102 -20.621   3.513  1.00  0.00     0.002 A 
HETATM   35  C   UNL     1      43.388 -20.295   2.364  1.00  0.00     0.001 A 
HETATM   36  C   UNL     1      42.947 -18.985   2.170  1.00  0.00     0.017 A 
ENDBRANCH   7  30
TORSDOF 5
ENDMDL
MODEL 3
REMARK VINA RESULT:      -9.1      4.757      6.649
REMARK  5 active torsions:
REMARK  status: ('A' for Active; 'I' for Inactive)
REMARK    1  A    between atoms: C_7  and  C_8 
REMARK    2  A    between atoms: C_16  and  C_17 
REMARK    3  A    between atoms: C_20  and  O_21 
REMARK    4  A    between atoms: C_24  and  C_25 
REMARK       I    between atoms: C_25  and  N_26 
REMARK    5  A    between atoms: N_26  and  C_27 
ROOT
HETATM    1  C   UNL     1      39.017  -9.875   2.669  1.00  0.00     0.070 C 
HETATM    2  C   UNL     1      39.810 -11.039   2.127  1.00  0.00     0.037 C 
HETATM    3  N   UNL     1      39.924 -12.140   2.976  1.00  0.00    -0.192 N 
HETATM    4  C   UNL     1      40.781 -13.154   2.743  1.00  0.00     0.726 A 
HETATM    5  N   UNL     1      41.430 -13.211   1.547  1.00  0.00    -0.083 N 
HETATM    6  N   UNL     1      42.284 -14.249   1.489  1.00  0.00    -0.135 NA
HETATM    7  C   UNL     1      42.088 -14.813   2.696  1.00  0.00     0.200 A 
HETATM    8  N   UNL     1      41.156 -14.162   3.484  1.00  0.00    -0.041 NA
HETATM    9  C   UNL     1      41.183 -12.286   0.437  1.00  0.00     0.202 C 
HETATM   10  C   UNL     1      40.404 -11.061   0.904  1.00  0.00     0.062 C 
HETATM   11  H   UNL     1      39.553 -12.038   3.918  1.00  0.00     0.184 HD
ENDROOT
BRANCH  10  12
HETATM   12  C   UNL     1      40.501  -9.815   0.087  1.00  0.00     0.256 C 
HETATM   13  N   UNL     1      41.694  -9.138   0.214  1.00  0.00    -0.323 N 
HETATM   14  H   UNL     1      42.416  -9.538   0.798  1.00  0.00     0.169 HD
HETATM   15  O   UNL     1      39.537  -9.467  -0.586  1.00  0.00    -0.267 OA
BRANCH  13  16
HETATM   16  C   UNL     1      42.049  -7.910  -0.385  1.00  0.00     0.035 A 
HETATM   17  C   UNL     1      41.526  -6.672  -0.007  1.00  0.00     0.029 A 
HETATM   18  C   UNL     1      41.934  -5.502  -0.656  1.00  0.00     0.002 A 
HETATM   19  C   UNL     1      42.876  -5.559  -1.681  1.00  0.00     0.000 A 
HETATM   20  C   UNL     1      43.405  -6.788  -2.065  1.00  0.00     0.002 A 
HETATM   21  C   UNL     1      42.988  -7.957  -1.425  1.00  0.00     0.029 A 
ENDBRANCH  13  16
ENDBRANCH  10  12
BRANCH   9  22
HETATM   22  C   UNL     1      40.486 -13.058  -0.685  1.00  0.00    -0.028 A 
HETATM   23  C   UNL     1      39.745 -14.229  -0.429  1.00  0.00     0.012 A 
HETATM   24  C   UNL     1      39.119 -14.920  -1.470  1.00  0.00     0.037 A 
HETATM   25  C   UNL     1      39.240 -14.450  -2.771  1.00  0.00     0.065 A 
HETATM   26  C   UNL     1      39.976 -13.305  -3.050  1.00  0.00     0.037 A 
HETATM   27  C   UNL     1      40.601 -12.612  -2.013  1.00  0.00     0.012 A 
BRANCH  25  28
HETATM   28  O   UNL     1      38.652 -15.097  -3.817  1.00  0.00    -0.361 OA
HETATM   29  H   UNL     1      38.797 -16.051  -3.716  1.00  0.00     0.217 HD
ENDBRANCH  25  28
ENDBRANCH   9  22
BRANCH   7  30
HETATM   30  C   UNL     1      42.734 -16.057   3.095  1.00  0.00     0.036 A 
HETATM   31  C   UNL     1      43.330 -16.245   4.350  1.00  0.00     0.048 A 
HETATM   32 CL   UNL     1      43.437 -14.999   5.545  1.00  0.00    -0.083 Cl
HETATM   33  C   UNL     1      43.921 -17.477   4.670  1.00  0.00     0.025 A 
HETATM   34  C   UNL     1      43.924 -18.524   3.748  1.00  0.00     0.002 A 
HETATM   35  C   UNL     1      43.344 -18.345   2.496  1.00  0.00     0.001 A 
HETATM   36  C   UNL     1      42.757 -17.121   2.172  1.00  0.00     0.017 A 
ENDBRANCH   7  30
TORSDOF 5
ENDMDL
MODEL 4
REMARK VINA RESULT:      -9.0      4.520      8.761
REMARK  5 active torsions:
REMARK  status: ('A' for Active; 'I' for Inactive)
REMARK    1  A    between atoms: C_7  and  C_8 
REMARK    2  A    between atoms: C_16  and  C_17 
REMARK    3  A    between atoms: C_20  and  O_21 
REMARK    4  A    between atoms: C_24  and  C_25 
REMARK       I    between atoms: C_25  and  N_26 
REMARK    5  A    between atoms: N_26  and  C_27 
ROOT
HETATM    1  C   UNL     1      39.864 -14.909  -0.356  1.00  0.00     0.070 C 
HETATM    2  C   UNL     1      40.328 -13.576   0.179  1.00  0.00     0.037 C 
HETATM    3  N   UNL     1      40.264 -12.510  -0.717  1.00  0.00    -0.192 N 
HETATM    4  C   UNL     1      40.850 -11.320  -0.477  1.00  0.00     0.726 A 
HETATM    5  N   UNL     1      41.367 -11.075   0.760  1.00  0.00    -0.083 N 
HETATM    6  N   UNL     1      41.960  -9.868   0.824  1.00  0.00    -0.135 NA
HETATM    7  C   UNL     1      41.745  -9.407  -0.422  1.00  0.00     0.200 A 
HETATM    8  N   UNL     1      41.052 -10.280  -1.240  1.00  0.00    -0.041 NA
HETATM    9  C   UNL     1      41.240 -11.990   1.896  1.00  0.00     0.202 C 
HETATM   10  C   UNL     1      40.796 -13.377   1.440  1.00  0.00     0.062 C 
HETATM   11  H   UNL     1      40.006 -12.727  -1.677  1.00  0.00     0.184 HD
ENDROOT
BRANCH  10  12
HETATM   12  C   UNL     1      41.100 -14.538   2.328  1.00  0.00     0.256 C 
HETATM   13  N   UNL     1      42.393 -15.004   2.240  1.00  0.00    -0.323 N 
HETATM   14  H   UNL     1      43.040 -14.520   1.633  1.00  0.00     0.169 HD
HETATM   15  O   UNL     1      40.204 -15.008   3.020  1.00  0.00    -0.267 OA
BRANCH  13  16
HETATM   16  C   UNL     1      42.950 -16.116   2.909  1.00  0.00     0.035 A 
HETATM   17  C   UNL     1      43.379 -16.100   4.237  1.00  0.00     0.029 A 
HETATM   18  C   UNL     1      43.920 -17.250   4.821  1.00  0.00     0.002 A 
HETATM   19  C   UNL     1      44.027 -18.428   4.086  1.00  0.00     0.000 A 
HETATM   20  C   UNL     1      43.600 -18.456   2.761  1.00  0.00     0.002 A 
HETATM   21  C   UNL     1      43.072 -17.304   2.174  1.00  0.00     0.029 A 
ENDBRANCH  13  16
ENDBRANCH  10  12
BRANCH   9  22
HETATM   22  C   UNL     1      40.296 -11.357   2.921  1.00  0.00    -0.028 A 
HETATM   23  C   UNL     1      40.500 -11.507   4.307  1.00  0.00     0.012 A 
HETATM   24  C   UNL     1      39.625 -10.922   5.225  1.00  0.00     0.037 A 
HETATM   25  C   UNL     1      38.535 -10.195   4.762  1.00  0.00     0.065 A 
HETATM   26  C   UNL     1      38.306 -10.044   3.400  1.00  0.00     0.037 A 
HETATM   27  C   UNL     1      39.180 -10.625   2.480  1.00  0.00     0.012 A 
BRANCH  25  28
HETATM   28  O   UNL     1      37.651  -9.614   5.622  1.00  0.00    -0.361 OA
HETATM   29  H   UNL     1      37.375  -8.758   5.255  1.00  0.00     0.217 HD
ENDBRANCH  25  28
ENDBRANCH   9  22
BRANCH   7  30
HETATM   30  C   UNL     1      42.128  -8.064  -0.838  1.00  0.00     0.036 A 
HETATM   31  C   UNL     1      41.486  -6.905  -0.379  1.00  0.00     0.048 A 
HETATM   32 CL   UNL     1      40.115  -6.936   0.676  1.00  0.00    -0.083 Cl
HETATM   33  C   UNL     1      41.920  -5.643  -0.812  1.00  0.00     0.025 A 
HETATM   34  C   UNL     1      42.988  -5.525  -1.701  1.00  0.00     0.002 A 
HETATM   35  C   UNL     1      43.626  -6.669  -2.171  1.00  0.00     0.001 A 
HETATM   36  C   UNL     1      43.197  -7.927  -1.745  1.00  0.00     0.017 A 
ENDBRANCH   7  30
TORSDOF 5
ENDMDL
MODEL 5
REMARK VINA RESULT:      -9.0      3.614      6.201
REMARK  5 active torsions:
REMARK  status: ('A' for Active; 'I' for Inactive)
REMARK    1  A    between atoms: C_7  and  C_8 
REMARK    2  A    between atoms: C_16  and  C_17 
REMARK    3  A    between atoms: C_20  and  O_21 
REMARK    4  A    between atoms: C_24  and  C_25 
REMARK       I    between atoms: C_25  and  N_26 
REMARK    5  A    between atoms: N_26  and  C_27 
ROOT
HETATM    1  C   UNL     1      43.202 -14.744   4.978  1.00  0.00     0.070 C 
HETATM    2  C   UNL     1      42.393 -13.926   4.001  1.00  0.00     0.037 C 
HETATM    3  N   UNL     1      41.563 -14.652   3.147  1.00  0.00    -0.192 N 
HETATM    4  C   UNL     1      40.959 -14.101   2.075  1.00  0.00     0.726 A 
HETATM    5  N   UNL     1      41.003 -12.748   1.914  1.00  0.00    -0.083 N 
HETATM    6  N   UNL     1      40.401 -12.361   0.774  1.00  0.00    -0.135 NA
HETATM    7  C   UNL     1      39.981 -13.544   0.287  1.00  0.00     0.200 A 
HETATM    8  N   UNL     1      40.303 -14.631   1.078  1.00  0.00    -0.041 NA
HETATM    9  C   UNL     1      41.583 -11.826   2.892  1.00  0.00     0.202 C 
HETATM   10  C   UNL     1      42.442 -12.571   3.910  1.00  0.00     0.062 C 
HETATM   11  H   UNL     1      41.637 -15.666   3.181  1.00  0.00     0.184 HD
ENDROOT
BRANCH  10  12
HETATM   12  C   UNL     1      43.493 -11.799   4.638  1.00  0.00     0.256 C 
HETATM   13  N   UNL     1      43.222 -11.579   5.971  1.00  0.00    -0.323 N 
HETATM   14  H   UNL     1      42.380 -11.976   6.364  1.00  0.00     0.169 HD
HETATM   15  O   UNL     1      44.470 -11.393   4.019  1.00  0.00    -0.267 OA
BRANCH  13  16
HETATM   16  C   UNL     1      43.995 -10.836   6.890  1.00  0.00     0.035 A 
HETATM   17  C   UNL     1      45.306 -11.152   7.248  1.00  0.00     0.029 A 
HETATM   18  C   UNL     1      45.999 -10.360   8.169  1.00  0.00     0.002 A 
HETATM   19  C   UNL     1      45.391  -9.240   8.732  1.00  0.00     0.000 A 
HETATM   20  C   UNL     1      44.083  -8.916   8.380  1.00  0.00     0.002 A 
HETATM   21  C   UNL     1      43.387  -9.714   7.470  1.00  0.00     0.029 A 
ENDBRANCH  13  16
ENDBRANCH  10  12
BRANCH   9  22
HETATM   22  C   UNL     1      40.446 -11.023   3.528  1.00  0.00    -0.028 A 
HETATM   23  C   UNL     1      40.047  -9.772   3.017  1.00  0.00     0.012 A 
HETATM   24  C   UNL     1      39.009  -9.054   3.615  1.00  0.00     0.037 A 
HETATM   25  C   UNL     1      38.372  -9.578   4.733  1.00  0.00     0.065 A 
HETATM   26  C   UNL     1      38.756 -10.803   5.263  1.00  0.00     0.037 A 
HETATM   27  C   UNL     1      39.792 -11.524   4.667  1.00  0.00     0.012 A 
BRANCH  25  28
HETATM   28  O   UNL     1      37.359  -8.908   5.352  1.00  0.00    -0.361 OA
HETATM   29  H   UNL     1      37.570  -7.960   5.361  1.00  0.00     0.217 HD
ENDBRANCH  25  28
ENDBRANCH   9  22
BRANCH   7  30
HETATM   30  C   UNL     1      39.173 -13.652  -0.921  1.00  0.00     0.036 A 
HETATM   31  C   UNL     1      38.166 -12.736  -1.257  1.00  0.00     0.048 A 
HETATM   32 CL   UNL     1      37.713 -11.411  -0.240  1.00  0.00    -0.083 Cl
HETATM   33  C   UNL     1      37.438 -12.896  -2.445  1.00  0.00     0.025 A 
HETATM   34  C   UNL     1      37.703 -13.964  -3.302  1.00  0.00     0.002 A 
HETATM   35  C   UNL     1      38.693 -14.885  -2.974  1.00  0.00     0.001 A 
HETATM   36  C   UNL     1      39.418 -14.732  -1.792  1.00  0.00     0.017 A 
ENDBRANCH   7  30
TORSDOF 5
ENDMDL
MODEL 6
REMARK VINA RESULT:      -8.9      3.668      8.522
REMARK  5 active torsions:
REMARK  status: ('A' for Active; 'I' for Inactive)
REMARK    1  A    between atoms: C_7  and  C_8 
REMARK    2  A    between atoms: C_16  and  C_17 
REMARK    3  A    between atoms: C_20  and  O_21 
REMARK    4  A    between atoms: C_24  and  C_25 
REMARK       I    between atoms: C_25  and  N_26 
REMARK    5  A    between atoms: N_26  and  C_27 
ROOT
HETATM    1  C   UNL     1      39.840 -15.707   1.263  1.00  0.00     0.070 C 
HETATM    2  C   UNL     1      40.551 -14.402   1.527  1.00  0.00     0.037 C 
HETATM    3  N   UNL     1      39.811 -13.248   1.266  1.00  0.00    -0.192 N 
HETATM    4  C   UNL     1      40.367 -12.021   1.226  1.00  0.00     0.726 A 
HETATM    5  N   UNL     1      41.657 -11.864   1.636  1.00  0.00    -0.083 N 
HETATM    6  N   UNL     1      42.079 -10.595   1.487  1.00  0.00    -0.135 NA
HETATM    7  C   UNL     1      40.970 -10.009   0.996  1.00  0.00     0.200 A 
HETATM    8  N   UNL     1      39.897 -10.866   0.837  1.00  0.00    -0.041 NA
HETATM    9  C   UNL     1      42.466 -12.936   2.221  1.00  0.00     0.202 C 
HETATM   10  C   UNL     1      41.829 -14.301   1.978  1.00  0.00     0.062 C 
HETATM   11  H   UNL     1      38.899 -13.371   0.833  1.00  0.00     0.184 HD
ENDROOT
BRANCH  10  12
HETATM   12  C   UNL     1      42.712 -15.505   2.030  1.00  0.00     0.256 C 
HETATM   13  N   UNL     1      42.287 -16.490   2.894  1.00  0.00    -0.323 N 
HETATM   14  H   UNL     1      41.414 -16.357   3.386  1.00  0.00     0.169 HD
HETATM   15  O   UNL     1      43.737 -15.521   1.358  1.00  0.00    -0.267 OA
BRANCH  13  16
HETATM   16  C   UNL     1      42.941 -17.704   3.195  1.00  0.00     0.035 A 
HETATM   17  C   UNL     1      43.033 -18.786   2.318  1.00  0.00     0.029 A 
HETATM   18  C   UNL     1      43.700 -19.954   2.700  1.00  0.00     0.002 A 
HETATM   19  C   UNL     1      44.291 -20.046   3.958  1.00  0.00     0.000 A 
HETATM   20  C   UNL     1      44.207 -18.973   4.841  1.00  0.00     0.002 A 
HETATM   21  C   UNL     1      43.529 -17.811   4.463  1.00  0.00     0.029 A 
ENDBRANCH  13  16
ENDBRANCH  10  12
BRANCH   9  22
HETATM   22  C   UNL     1      42.681 -12.621   3.703  1.00  0.00    -0.028 A 
HETATM   23  C   UNL     1      41.749 -13.011   4.686  1.00  0.00     0.012 A 
HETATM   24  C   UNL     1      41.964 -12.712   6.033  1.00  0.00     0.037 A 
HETATM   25  C   UNL     1      43.106 -12.011   6.403  1.00  0.00     0.065 A 
HETATM   26  C   UNL     1      44.032 -11.605   5.451  1.00  0.00     0.037 A 
HETATM   27  C   UNL     1      43.821 -11.905   4.104  1.00  0.00     0.012 A 
BRANCH  25  28
HETATM   28  O   UNL     1      43.352 -11.691   7.705  1.00  0.00    -0.361 OA
HETATM   29  H   UNL     1      44.098 -12.226   8.023  1.00  0.00     0.217 HD
ENDBRANCH  25  28
ENDBRANCH   9  22
BRANCH   7  30
HETATM   30  C   UNL     1      40.885  -8.576   0.747  1.00  0.00     0.036 A 
HETATM   31  C   UNL     1      41.498  -7.949  -0.348  1.00  0.00     0.048 A 
HETATM   32 CL   UNL     1      42.489  -8.791  -1.489  1.00  0.00    -0.083 Cl
HETATM   33  C   UNL     1      41.361  -6.566  -0.533  1.00  0.00     0.025 A 
HETATM   34  C   UNL     1      40.619  -5.799   0.365  1.00  0.00     0.002 A 
HETATM   35  C   UNL     1      40.015  -6.408   1.461  1.00  0.00     0.001 A 
HETATM   36  C   UNL     1      40.150  -7.784   1.651  1.00  0.00     0.017 A 
ENDBRANCH   7  30
TORSDOF 5
ENDMDL
MODEL 7
REMARK VINA RESULT:      -8.7      4.427      9.693
REMARK  5 active torsions:
REMARK  status: ('A' for Active; 'I' for Inactive)
REMARK    1  A    between atoms: C_7  and  C_8 
REMARK    2  A    between atoms: C_16  and  C_17 
REMARK    3  A    between atoms: C_20  and  O_21 
REMARK    4  A    between atoms: C_24  and  C_25 
REMARK       I    between atoms: C_25  and  N_26 
REMARK    5  A    between atoms: N_26  and  C_27 
ROOT
HETATM    1  C   UNL     1      46.398 -10.821   7.506  1.00  0.00     0.070 C 
HETATM    2  C   UNL     1      45.146 -10.384   8.228  1.00  0.00     0.037 C 
HETATM    3  N   UNL     1      45.347  -9.687   9.419  1.00  0.00    -0.192 N 
HETATM    4  C   UNL     1      44.351  -9.433  10.292  1.00  0.00     0.726 A 
HETATM    5  N   UNL     1      43.066  -9.697   9.925  1.00  0.00    -0.083 N 
HETATM    6  N   UNL     1      42.198  -9.439  10.920  1.00  0.00    -0.135 NA
HETATM    7  C   UNL     1      43.029  -8.988  11.879  1.00  0.00     0.200 A 
HETATM    8  N   UNL     1      44.362  -8.965  11.510  1.00  0.00    -0.041 NA
HETATM    9  C   UNL     1      42.673 -10.151   8.588  1.00  0.00     0.202 C 
HETATM   10  C   UNL     1      43.882 -10.637   7.794  1.00  0.00     0.062 C 
HETATM   11  H   UNL     1      46.304  -9.612   9.755  1.00  0.00     0.184 HD
ENDROOT
BRANCH  10  12
HETATM   12  C   UNL     1      43.644 -11.582   6.663  1.00  0.00     0.256 C 
HETATM   13  N   UNL     1      43.232 -12.840   7.044  1.00  0.00    -0.323 N 
HETATM   14  H   UNL     1      43.083 -13.021   8.027  1.00  0.00     0.169 HD
HETATM   15  O   UNL     1      43.861 -11.205   5.516  1.00  0.00    -0.267 OA
BRANCH  13  16
HETATM   16  C   UNL     1      42.989 -13.951   6.208  1.00  0.00     0.035 A 
HETATM   17  C   UNL     1      41.941 -14.029   5.290  1.00  0.00     0.029 A 
HETATM   18  C   UNL     1      41.774 -15.171   4.500  1.00  0.00     0.002 A 
HETATM   19  C   UNL     1      42.660 -16.240   4.614  1.00  0.00     0.000 A 
HETATM   20  C   UNL     1      43.709 -16.173   5.525  1.00  0.00     0.002 A 
HETATM   21  C   UNL     1      43.869 -15.037   6.323  1.00  0.00     0.029 A 
ENDBRANCH  13  16
ENDBRANCH  10  12
BRANCH   9  22
HETATM   22  C   UNL     1      41.910  -9.017   7.900  1.00  0.00    -0.028 A 
HETATM   23  C   UNL     1      42.519  -7.777   7.622  1.00  0.00     0.012 A 
HETATM   24  C   UNL     1      41.803  -6.755   6.995  1.00  0.00     0.037 A 
HETATM   25  C   UNL     1      40.472  -6.963   6.654  1.00  0.00     0.065 A 
HETATM   26  C   UNL     1      39.846  -8.172   6.930  1.00  0.00     0.037 A 
HETATM   27  C   UNL     1      40.559  -9.196   7.554  1.00  0.00     0.012 A 
BRANCH  25  28
HETATM   28  O   UNL     1      39.734  -5.990   6.048  1.00  0.00    -0.361 OA
HETATM   29  H   UNL     1      40.330  -5.278   5.762  1.00  0.00     0.217 HD
ENDBRANCH  25  28
ENDBRANCH   9  22
BRANCH   7  30
HETATM   30  C   UNL     1      42.550  -8.480  13.157  1.00  0.00     0.036 A 
HETATM   31  C   UNL     1      41.426  -8.998  13.817  1.00  0.00     0.048 A 
HETATM   32 CL   UNL     1      40.432 -10.250  13.156  1.00  0.00    -0.083 Cl
HETATM   33  C   UNL     1      41.031  -8.468  15.054  1.00  0.00     0.025 A 
HETATM   34  C   UNL     1      41.746  -7.423  15.640  1.00  0.00     0.002 A 
HETATM   35  C   UNL     1      42.857  -6.895  14.990  1.00  0.00     0.001 A 
HETATM   36  C   UNL     1      43.252  -7.417  13.758  1.00  0.00     0.017 A 
ENDBRANCH   7  30
TORSDOF 5
ENDMDL
MODEL 8
REMARK VINA RESULT:      -8.6     17.580     20.162
REMARK  5 active torsions:
REMARK  status: ('A' for Active; 'I' for Inactive)
REMARK    1  A    between atoms: C_7  and  C_8 
REMARK    2  A    between atoms: C_16  and  C_17 
REMARK    3  A    between atoms: C_20  and  O_21 
REMARK    4  A    between atoms: C_24  and  C_25 
REMARK       I    between atoms: C_25  and  N_26 
REMARK    5  A    between atoms: N_26  and  C_27 
ROOT
HETATM    1  C   UNL     1      45.404 -27.346  -4.052  1.00  0.00     0.070 C 
HETATM    2  C   UNL     1      45.650 -28.266  -2.881  1.00  0.00     0.037 C 
HETATM    3  N   UNL     1      46.564 -27.806  -1.933  1.00  0.00    -0.192 N 
HETATM    4  C   UNL     1      47.065 -28.595  -0.962  1.00  0.00     0.726 A 
HETATM    5  N   UNL     1      46.530 -29.834  -0.773  1.00  0.00    -0.083 N 
HETATM    6  N   UNL     1      47.171 -30.514   0.195  1.00  0.00    -0.135 NA
HETATM    7  C   UNL     1      48.089 -29.609   0.584  1.00  0.00     0.200 A 
HETATM    8  N   UNL     1      48.037 -28.413  -0.108  1.00  0.00    -0.041 NA
HETATM    9  C   UNL     1      45.362 -30.340  -1.498  1.00  0.00     0.202 C 
HETATM   10  C   UNL     1      45.055 -29.477  -2.719  1.00  0.00     0.062 C 
HETATM   11  H   UNL     1      47.060 -26.944  -2.148  1.00  0.00     0.184 HD
ENDROOT
BRANCH  10  12
HETATM   12  C   UNL     1      44.269 -30.091  -3.830  1.00  0.00     0.256 C 
HETATM   13  N   UNL     1      44.967 -31.003  -4.590  1.00  0.00    -0.323 N 
HETATM   14  H   UNL     1      45.919 -31.221  -4.329  1.00  0.00     0.169 HD
HETATM   15  O   UNL     1      43.112 -29.727  -4.012  1.00  0.00    -0.267 OA
BRANCH  13  16
HETATM   16  C   UNL     1      44.509 -31.693  -5.734  1.00  0.00     0.035 A 
HETATM   17  C   UNL     1      44.248 -31.088  -6.964  1.00  0.00     0.029 A 
HETATM   18  C   UNL     1      43.794 -31.849  -8.046  1.00  0.00     0.002 A 
HETATM   19  C   UNL     1      43.609 -33.223  -7.911  1.00  0.00     0.000 A 
HETATM   20  C   UNL     1      43.868 -33.837  -6.689  1.00  0.00     0.002 A 
HETATM   21  C   UNL     1      44.308 -33.074  -5.605  1.00  0.00     0.029 A 
ENDBRANCH  13  16
ENDBRANCH  10  12
BRANCH   9  22
HETATM   22  C   UNL     1      44.193 -30.439  -0.515  1.00  0.00    -0.028 A 
HETATM   23  C   UNL     1      43.594 -29.292   0.041  1.00  0.00     0.012 A 
HETATM   24  C   UNL     1      42.529 -29.405   0.938  1.00  0.00     0.037 A 
HETATM   25  C   UNL     1      42.066 -30.667   1.292  1.00  0.00     0.065 A 
HETATM   26  C   UNL     1      42.649 -31.813   0.767  1.00  0.00     0.037 A 
HETATM   27  C   UNL     1      43.711 -31.703  -0.131  1.00  0.00     0.012 A 
BRANCH  25  28
HETATM   28  O   UNL     1      41.035 -30.824   2.169  1.00  0.00    -0.361 OA
HETATM   29  H   UNL     1      40.626 -29.958   2.330  1.00  0.00     0.217 HD
ENDBRANCH  25  28
ENDBRANCH   9  22
BRANCH   7  30
HETATM   30  C   UNL     1      48.995 -29.840   1.701  1.00  0.00     0.036 A 
HETATM   31  C   UNL     1      50.290 -30.355   1.547  1.00  0.00     0.048 A 
HETATM   32 CL   UNL     1      50.939 -30.848   0.020  1.00  0.00    -0.083 Cl
HETATM   33  C   UNL     1      51.112 -30.538   2.669  1.00  0.00     0.025 A 
HETATM   34  C   UNL     1      50.655 -30.213   3.946  1.00  0.00     0.002 A 
HETATM   35  C   UNL     1      49.368 -29.710   4.112  1.00  0.00     0.001 A 
HETATM   36  C   UNL     1      48.545 -29.529   2.999  1.00  0.00     0.017 A 
ENDBRANCH   7  30
TORSDOF 5
ENDMDL
MODEL 9
REMARK VINA RESULT:      -8.4      2.259      3.373
REMARK  5 active torsions:
REMARK  status: ('A' for Active; 'I' for Inactive)
REMARK    1  A    between atoms: C_7  and  C_8 
REMARK    2  A    between atoms: C_16  and  C_17 
REMARK    3  A    between atoms: C_20  and  O_21 
REMARK    4  A    between atoms: C_24  and  C_25 
REMARK       I    between atoms: C_25  and  N_26 
REMARK    5  A    between atoms: N_26  and  C_27 
ROOT
HETATM    1  C   UNL     1      40.050  -8.270   5.235  1.00  0.00     0.070 C 
HETATM    2  C   UNL     1      40.816  -9.560   5.404  1.00  0.00     0.037 C 
HETATM    3  N   UNL     1      40.965 -10.329   4.250  1.00  0.00    -0.192 N 
HETATM    4  C   UNL     1      41.413 -11.600   4.276  1.00  0.00     0.726 A 
HETATM    5  N   UNL     1      41.917 -12.102   5.438  1.00  0.00    -0.083 N 
HETATM    6  N   UNL     1      42.272 -13.394   5.313  1.00  0.00    -0.135 NA
HETATM    7  C   UNL     1      41.978 -13.620   4.019  1.00  0.00     0.200 A 
HETATM    8  N   UNL     1      41.457 -12.525   3.354  1.00  0.00    -0.041 NA
HETATM    9  C   UNL     1      42.102 -11.312   6.658  1.00  0.00     0.202 C 
HETATM   10  C   UNL     1      41.336  -9.994   6.582  1.00  0.00     0.062 C 
HETATM   11  H   UNL     1      40.471 -10.016   3.418  1.00  0.00     0.184 HD
ENDROOT
BRANCH  10  12
HETATM   12  C   UNL     1      40.982  -9.315   7.864  1.00  0.00     0.256 C 
HETATM   13  N   UNL     1      41.887  -8.363   8.277  1.00  0.00    -0.323 N 
HETATM   14  H   UNL     1      42.682  -8.163   7.685  1.00  0.00     0.169 HD
HETATM   15  O   UNL     1      39.971  -9.664   8.463  1.00  0.00    -0.267 OA
BRANCH  13  16
HETATM   16  C   UNL     1      41.850  -7.606   9.469  1.00  0.00     0.035 A 
HETATM   17  C   UNL     1      41.049  -6.479   9.659  1.00  0.00     0.029 A 
HETATM   18  C   UNL     1      41.076  -5.788  10.874  1.00  0.00     0.002 A 
HETATM   19  C   UNL     1      41.894  -6.224  11.914  1.00  0.00     0.000 A 
HETATM   20  C   UNL     1      42.696  -7.348  11.735  1.00  0.00     0.002 A 
HETATM   21  C   UNL     1      42.679  -8.031  10.517  1.00  0.00     0.029 A 
ENDBRANCH  13  16
ENDBRANCH  10  12
BRANCH   9  22
HETATM   22  C   UNL     1      43.603 -11.130   6.889  1.00  0.00    -0.028 A 
HETATM   23  C   UNL     1      44.117 -10.735   8.140  1.00  0.00     0.012 A 
HETATM   24  C   UNL     1      45.491 -10.572   8.329  1.00  0.00     0.037 A 
HETATM   25  C   UNL     1      46.358 -10.793   7.265  1.00  0.00     0.065 A 
HETATM   26  C   UNL     1      45.874 -11.171   6.019  1.00  0.00     0.037 A 
HETATM   27  C   UNL     1      44.502 -11.337   5.828  1.00  0.00     0.012 A 
BRANCH  25  28
HETATM   28  O   UNL     1      47.705 -10.639   7.403  1.00  0.00    -0.361 OA
HETATM   29  H   UNL     1      48.153 -11.224   6.770  1.00  0.00     0.217 HD
ENDBRANCH  25  28
ENDBRANCH   9  22
BRANCH   7  30
HETATM   30  C   UNL     1      42.275 -14.883   3.356  1.00  0.00     0.036 A 
HETATM   31  C   UNL     1      41.750 -16.113   3.777  1.00  0.00     0.048 A 
HETATM   32 CL   UNL     1      40.750 -16.288   5.178  1.00  0.00    -0.083 Cl
HETATM   33  C   UNL     1      42.068 -17.288   3.080  1.00  0.00     0.025 A 
HETATM   34  C   UNL     1      42.907 -17.249   1.967  1.00  0.00     0.002 A 
HETATM   35  C   UNL     1      43.442 -16.035   1.546  1.00  0.00     0.001 A 
HETATM   36  C   UNL     1      43.130 -14.864   2.237  1.00  0.00     0.017 A 
ENDBRANCH   7  30
TORSDOF 5
ENDMDL
MODEL 10
REMARK VINA RESULT:      -8.4      2.981      8.096
REMARK  5 active torsions:
REMARK  status: ('A' for Active; 'I' for Inactive)
REMARK    1  A    between atoms: C_7  and  C_8 
REMARK    2  A    between atoms: C_16  and  C_17 
REMARK    3  A    between atoms: C_20  and  O_21 
REMARK    4  A    between atoms: C_24  and  C_25 
REMARK       I    between atoms: C_25  and  N_26 
REMARK    5  A    between atoms: N_26  and  C_27 
ROOT
HETATM    1  C   UNL     1      40.147 -15.783   6.677  1.00  0.00     0.070 C 
HETATM    2  C   UNL     1      40.661 -14.569   5.942  1.00  0.00     0.037 C 
HETATM    3  N   UNL     1      39.789 -13.481   5.888  1.00  0.00    -0.192 N 
HETATM    4  C   UNL     1      39.998 -12.420   5.083  1.00  0.00     0.726 A 
HETATM    5  N   UNL     1      41.189 -12.307   4.432  1.00  0.00    -0.083 N 
HETATM    6  N   UNL     1      41.221 -11.226   3.631  1.00  0.00    -0.135 NA
HETATM    7  C   UNL     1      40.004 -10.697   3.861  1.00  0.00     0.200 A 
HETATM    8  N   UNL     1      39.235 -11.410   4.762  1.00  0.00    -0.041 NA
HETATM    9  C   UNL     1      42.318 -13.219   4.627  1.00  0.00     0.202 C 
HETATM   10  C   UNL     1      41.880 -14.492   5.345  1.00  0.00     0.062 C 
HETATM   11  H   UNL     1      38.852 -13.621   6.257  1.00  0.00     0.184 HD
ENDROOT
BRANCH  10  12
HETATM   12  C   UNL     1      42.722 -15.715   5.181  1.00  0.00     0.256 C 
HETATM   13  N   UNL     1      42.374 -16.511   4.112  1.00  0.00    -0.323 N 
HETATM   14  H   UNL     1      41.625 -16.205   3.506  1.00  0.00     0.169 HD
HETATM   15  O   UNL     1      43.607 -15.943   5.999  1.00  0.00    -0.267 OA
BRANCH  13  16
HETATM   16  C   UNL     1      42.945 -17.749   3.745  1.00  0.00     0.035 A 
HETATM   17  C   UNL     1      43.724 -18.537   4.594  1.00  0.00     0.029 A 
HETATM   18  C   UNL     1      44.253 -19.752   4.147  1.00  0.00     0.002 A 
HETATM   19  C   UNL     1      43.998 -20.195   2.851  1.00  0.00     0.000 A 
HETATM   20  C   UNL     1      43.220 -19.418   1.997  1.00  0.00     0.002 A 
HETATM   21  C   UNL     1      42.703 -18.199   2.440  1.00  0.00     0.029 A 
ENDBRANCH  13  16
ENDBRANCH  10  12
BRANCH   9  22
HETATM   22  C   UNL     1      43.429 -12.461   5.357  1.00  0.00    -0.028 A 
HETATM   23  C   UNL     1      44.502 -11.870   4.663  1.00  0.00     0.012 A 
HETATM   24  C   UNL     1      45.507 -11.184   5.350  1.00  0.00     0.037 A 
HETATM   25  C   UNL     1      45.449 -11.097   6.735  1.00  0.00     0.065 A 
HETATM   26  C   UNL     1      44.408 -11.683   7.443  1.00  0.00     0.037 A 
HETATM   27  C   UNL     1      43.401 -12.366   6.760  1.00  0.00     0.012 A 
BRANCH  25  28
HETATM   28  O   UNL     1      46.412 -10.444   7.446  1.00  0.00    -0.361 OA
HETATM   29  H   UNL     1      46.003 -10.043   8.230  1.00  0.00     0.217 HD
ENDBRANCH  25  28
ENDBRANCH   9  22
BRANCH   7  30
HETATM   30  C   UNL     1      39.578  -9.430   3.281  1.00  0.00     0.036 A 
HETATM   31  C   UNL     1      38.546  -9.326   2.337  1.00  0.00     0.048 A 
HETATM   32 CL   UNL     1      37.711 -10.697   1.691  1.00  0.00    -0.083 Cl
HETATM   33  C   UNL     1      38.179  -8.070   1.833  1.00  0.00     0.025 A 
HETATM   34  C   UNL     1      38.832  -6.914   2.260  1.00  0.00     0.002 A 
HETATM   35  C   UNL     1      39.863  -7.006   3.190  1.00  0.00     0.001 A 
HETATM   36  C   UNL     1      40.234  -8.253   3.693  1.00  0.00     0.017 A 
ENDBRANCH   7  30
TORSDOF 5
ENDMDL
