MODEL 1
REMARK VINA RESULT:      -8.6      0.000      0.000
REMARK  5 active torsions:
REMARK  status: ('A' for Active; 'I' for Inactive)
REMARK    1  A    between atoms: C_2  and  C_3 
REMARK    2  A    between atoms: C_6  and  C_7 
REMARK    3  A    between atoms: C_7  and  N_8 
REMARK    4  A    between atoms: C_7  and  C_21 
REMARK       I    between atoms: N_8  and  C_9 
REMARK       I    between atoms: C_9  and  N_10 
REMARK    5  A    between atoms: N_10  and  N_11 
ROOT
HETATM    1  N   UNL     1      40.986 -13.666   3.357  1.00  0.00    -0.333 N 
HETATM    2  C   UNL     1      40.018 -13.223   2.516  1.00  0.00     0.335 C 
HETATM    3  N   UNL     1      40.420 -12.850   1.271  1.00  0.00    -0.244 N 
HETATM    4  O   UNL     1      38.865 -13.139   2.930  1.00  0.00    -0.246 OA
HETATM    5  H   UNL     1      40.611 -13.936   4.256  1.00  0.00     0.165 HD
HETATM    6  H   UNL     1      41.173 -13.375   0.856  1.00  0.00     0.192 HD
ENDROOT
BRANCH   1   7
HETATM    7  C   UNL     1      42.435 -13.761   3.181  1.00  0.00     0.122 C 
BRANCH   7   8
HETATM    8  C   UNL     1      42.821 -15.233   3.172  1.00  0.00    -0.035 A 
HETATM    9  C   UNL     1      42.823 -15.952   1.968  1.00  0.00     0.010 A 
HETATM   10  C   UNL     1      43.188 -17.300   1.943  1.00  0.00     0.007 A 
HETATM   11  C   UNL     1      43.550 -17.962   3.122  1.00  0.00    -0.059 A 
HETATM   12  C   UNL     1      43.547 -17.249   4.326  1.00  0.00     0.007 A 
HETATM   13  C   UNL     1      43.185 -15.901   4.351  1.00  0.00     0.010 A 
BRANCH  11  14
HETATM   14  C   UNL     1      43.971 -19.408   3.093  1.00  0.00     0.034 C 
HETATM   15  C   UNL     1      43.229 -20.189   2.019  1.00  0.00     0.010 C 
ENDBRANCH  11  14
ENDBRANCH   7   8
BRANCH   7  16
HETATM   16  C   UNL     1      43.185 -12.934   4.263  1.00  0.00     0.005 C 
HETATM   17  C   UNL     1      43.784 -11.646   3.681  1.00  0.00     0.012 C 
HETATM   18  C   UNL     1      42.251 -12.560   5.422  1.00  0.00     0.012 C 
ENDBRANCH   7  16
ENDBRANCH   1   7
BRANCH   3  19
HETATM   19  N   UNL     1      39.458 -12.520   0.372  1.00  0.00    -0.244 N 
HETATM   20  C   UNL     1      39.135 -13.272  -0.723  1.00  0.00     0.086 A 
HETATM   21  C   UNL     1      38.300 -12.421  -1.450  1.00  0.00     0.086 A 
HETATM   22  C   UNL     1      39.473 -14.561  -1.155  1.00  0.00     0.034 A 
HETATM   23  C   UNL     1      37.767 -12.865  -2.670  1.00  0.00     0.034 A 
HETATM   24  N   UNL     1      38.143 -11.206  -0.819  1.00  0.00    -0.240 NA
HETATM   25  C   UNL     1      38.095 -14.148  -3.124  1.00  0.00     0.002 A 
HETATM   26  C   UNL     1      38.933 -14.979  -2.378  1.00  0.00     0.002 A 
HETATM   27  C   UNL     1      38.865 -11.298   0.279  1.00  0.00     0.234 A 
ENDBRANCH   3  19
TORSDOF 5
ENDMDL
MODEL 2
REMARK VINA RESULT:      -8.2      1.545      2.033
REMARK  5 active torsions:
REMARK  status: ('A' for Active; 'I' for Inactive)
REMARK    1  A    between atoms: C_2  and  C_3 
REMARK    2  A    between atoms: C_6  and  C_7 
REMARK    3  A    between atoms: C_7  and  N_8 
REMARK    4  A    between atoms: C_7  and  C_21 
REMARK       I    between atoms: N_8  and  C_9 
REMARK       I    between atoms: C_9  and  N_10 
REMARK    5  A    between atoms: N_10  and  N_11 
ROOT
HETATM    1  N   UNL     1      41.447 -14.296   4.131  1.00  0.00    -0.333 N 
HETATM    2  C   UNL     1      40.919 -13.510   3.160  1.00  0.00     0.335 C 
HETATM    3  N   UNL     1      41.791 -13.012   2.242  1.00  0.00    -0.244 N 
HETATM    4  O   UNL     1      39.719 -13.256   3.191  1.00  0.00    -0.246 OA
HETATM    5  H   UNL     1      40.740 -14.638   4.768  1.00  0.00     0.165 HD
HETATM    6  H   UNL     1      42.561 -13.602   1.975  1.00  0.00     0.192 HD
ENDROOT
BRANCH   1   7
HETATM    7  C   UNL     1      42.834 -14.667   4.411  1.00  0.00     0.122 C 
BRANCH   7   8
HETATM    8  C   UNL     1      43.069 -16.075   3.884  1.00  0.00    -0.035 A 
HETATM    9  C   UNL     1      43.894 -16.962   4.589  1.00  0.00     0.010 A 
HETATM   10  C   UNL     1      44.107 -18.263   4.124  1.00  0.00     0.007 A 
HETATM   11  C   UNL     1      43.508 -18.701   2.937  1.00  0.00    -0.059 A 
HETATM   12  C   UNL     1      42.686 -17.818   2.228  1.00  0.00     0.007 A 
HETATM   13  C   UNL     1      42.471 -16.520   2.694  1.00  0.00     0.010 A 
BRANCH  11  14
HETATM   14  C   UNL     1      43.714 -20.111   2.448  1.00  0.00     0.034 C 
HETATM   15  C   UNL     1      43.885 -21.088   3.602  1.00  0.00     0.010 C 
ENDBRANCH  11  14
ENDBRANCH   7   8
BRANCH   7  16
HETATM   16  C   UNL     1      43.161 -14.514   5.924  1.00  0.00     0.005 C 
HETATM   17  C   UNL     1      43.683 -13.109   6.253  1.00  0.00     0.012 C 
HETATM   18  C   UNL     1      41.924 -14.793   6.789  1.00  0.00     0.012 C 
ENDBRANCH   7  16
ENDBRANCH   1   7
BRANCH   3  19
HETATM   19  N   UNL     1      41.273 -12.324   1.192  1.00  0.00    -0.244 N 
HETATM   20  C   UNL     1      40.703 -12.906   0.094  1.00  0.00     0.086 A 
HETATM   21  C   UNL     1      40.561 -11.833  -0.789  1.00  0.00     0.086 A 
HETATM   22  C   UNL     1      40.314 -14.213  -0.225  1.00  0.00     0.034 A 
HETATM   23  C   UNL     1      40.002 -12.060  -2.056  1.00  0.00     0.034 A 
HETATM   24  N   UNL     1      41.039 -10.662  -0.242  1.00  0.00    -0.240 NA
HETATM   25  C   UNL     1      39.610 -13.359  -2.398  1.00  0.00     0.002 A 
HETATM   26  C   UNL     1      39.764 -14.415  -1.497  1.00  0.00     0.002 A 
HETATM   27  C   UNL     1      41.469 -10.997   0.957  1.00  0.00     0.234 A 
ENDBRANCH   3  19
TORSDOF 5
ENDMDL
MODEL 3
REMARK VINA RESULT:      -8.2      4.564      7.668
REMARK  5 active torsions:
REMARK  status: ('A' for Active; 'I' for Inactive)
REMARK    1  A    between atoms: C_2  and  C_3 
REMARK    2  A    between atoms: C_6  and  C_7 
REMARK    3  A    between atoms: C_7  and  N_8 
REMARK    4  A    between atoms: C_7  and  C_21 
REMARK       I    between atoms: N_8  and  C_9 
REMARK       I    between atoms: C_9  and  N_10 
REMARK    5  A    between atoms: N_10  and  N_11 
ROOT
HETATM    1  N   UNL     1      42.898 -13.459   4.840  1.00  0.00    -0.333 N 
HETATM    2  C   UNL     1      43.561 -12.406   5.380  1.00  0.00     0.335 C 
HETATM    3  N   UNL     1      43.806 -12.464   6.717  1.00  0.00    -0.244 N 
HETATM    4  O   UNL     1      43.853 -11.457   4.658  1.00  0.00    -0.246 OA
HETATM    5  H   UNL     1      42.763 -13.351   3.844  1.00  0.00     0.165 HD
HETATM    6  H   UNL     1      44.006 -13.370   7.107  1.00  0.00     0.192 HD
ENDROOT
BRANCH   1   7
HETATM    7  C   UNL     1      42.331 -14.654   5.466  1.00  0.00     0.122 C 
BRANCH   7   8
HETATM    8  C   UNL     1      42.837 -15.875   4.713  1.00  0.00    -0.035 A 
HETATM    9  C   UNL     1      43.578 -16.859   5.384  1.00  0.00     0.010 A 
HETATM   10  C   UNL     1      44.037 -17.992   4.707  1.00  0.00     0.007 A 
HETATM   11  C   UNL     1      43.774 -18.162   3.343  1.00  0.00    -0.059 A 
HETATM   12  C   UNL     1      43.037 -17.182   2.669  1.00  0.00     0.007 A 
HETATM   13  C   UNL     1      42.576 -16.051   3.344  1.00  0.00     0.010 A 
BRANCH  11  14
HETATM   14  C   UNL     1      44.244 -19.396   2.618  1.00  0.00     0.034 C 
HETATM   15  C   UNL     1      43.084 -20.157   1.993  1.00  0.00     0.010 C 
ENDBRANCH  11  14
ENDBRANCH   7   8
BRANCH   7  16
HETATM   16  C   UNL     1      40.780 -14.569   5.531  1.00  0.00     0.005 C 
HETATM   17  C   UNL     1      40.187 -15.664   6.428  1.00  0.00     0.012 C 
HETATM   18  C   UNL     1      40.321 -13.201   6.057  1.00  0.00     0.012 C 
ENDBRANCH   7  16
ENDBRANCH   1   7
BRANCH   3  19
HETATM   19  N   UNL     1      44.573 -11.483   7.258  1.00  0.00    -0.244 N 
HETATM   20  C   UNL     1      44.076 -10.366   7.870  1.00  0.00     0.086 A 
HETATM   21  C   UNL     1      45.211  -9.566   8.026  1.00  0.00     0.086 A 
HETATM   22  C   UNL     1      42.800  -9.968   8.286  1.00  0.00     0.034 A 
HETATM   23  C   UNL     1      45.081  -8.305   8.628  1.00  0.00     0.034 A 
HETATM   24  N   UNL     1      46.335 -10.179   7.516  1.00  0.00    -0.240 NA
HETATM   25  C   UNL     1      43.813  -7.885   9.047  1.00  0.00     0.002 A 
HETATM   26  C   UNL     1      42.694  -8.703   8.878  1.00  0.00     0.002 A 
HETATM   27  C   UNL     1      45.911 -11.336   7.052  1.00  0.00     0.234 A 
ENDBRANCH   3  19
TORSDOF 5
ENDMDL
MODEL 4
REMARK VINA RESULT:      -7.8      2.971      6.675
REMARK  5 active torsions:
REMARK  status: ('A' for Active; 'I' for Inactive)
REMARK    1  A    between atoms: C_2  and  C_3 
REMARK    2  A    between atoms: C_6  and  C_7 
REMARK    3  A    between atoms: C_7  and  N_8 
REMARK    4  A    between atoms: C_7  and  C_21 
REMARK       I    between atoms: N_8  and  C_9 
REMARK       I    between atoms: C_9  and  N_10 
REMARK    5  A    between atoms: N_10  and  N_11 
ROOT
HETATM    1  N   UNL     1      42.729 -13.160   3.128  1.00  0.00    -0.333 N 
HETATM    2  C   UNL     1      42.989 -12.023   3.821  1.00  0.00     0.335 C 
HETATM    3  N   UNL     1      42.157 -11.743   4.861  1.00  0.00    -0.244 N 
HETATM    4  O   UNL     1      43.909 -11.300   3.451  1.00  0.00    -0.246 OA
HETATM    5  H   UNL     1      43.393 -13.307   2.381  1.00  0.00     0.165 HD
HETATM    6  H   UNL     1      41.807 -12.524   5.391  1.00  0.00     0.192 HD
ENDROOT
BRANCH   1   7
HETATM    7  C   UNL     1      41.648 -14.136   3.265  1.00  0.00     0.122 C 
BRANCH   7   8
HETATM    8  C   UNL     1      42.260 -15.530   3.271  1.00  0.00    -0.035 A 
HETATM    9  C   UNL     1      41.852 -16.482   2.326  1.00  0.00     0.010 A 
HETATM   10  C   UNL     1      42.416 -17.760   2.312  1.00  0.00     0.007 A 
HETATM   11  C   UNL     1      43.392 -18.118   3.249  1.00  0.00    -0.059 A 
HETATM   12  C   UNL     1      43.800 -17.172   4.196  1.00  0.00     0.007 A 
HETATM   13  C   UNL     1      43.240 -15.894   4.209  1.00  0.00     0.010 A 
BRANCH  11  14
HETATM   14  C   UNL     1      44.021 -19.487   3.218  1.00  0.00     0.034 C 
HETATM   15  C   UNL     1      43.590 -20.277   1.991  1.00  0.00     0.010 C 
ENDBRANCH  11  14
ENDBRANCH   7   8
BRANCH   7  16
HETATM   16  C   UNL     1      40.574 -13.941   2.158  1.00  0.00     0.005 C 
HETATM   17  C   UNL     1      39.346 -13.184   2.684  1.00  0.00     0.012 C 
HETATM   18  C   UNL     1      41.147 -13.172   0.959  1.00  0.00     0.012 C 
ENDBRANCH   7  16
ENDBRANCH   1   7
BRANCH   3  19
HETATM   19  N   UNL     1      42.467 -10.679   5.645  1.00  0.00    -0.244 N 
HETATM   20  C   UNL     1      43.460 -10.675   6.584  1.00  0.00     0.086 A 
HETATM   21  C   UNL     1      43.228  -9.487   7.279  1.00  0.00     0.086 A 
HETATM   22  C   UNL     1      44.503 -11.554   6.903  1.00  0.00     0.034 A 
HETATM   23  C   UNL     1      44.071  -9.144   8.347  1.00  0.00     0.034 A 
HETATM   24  N   UNL     1      42.131  -8.816   6.781  1.00  0.00    -0.240 NA
HETATM   25  C   UNL     1      45.117 -10.010   8.687  1.00  0.00     0.002 A 
HETATM   26  C   UNL     1      45.327 -11.193   7.976  1.00  0.00     0.002 A 
HETATM   27  C   UNL     1      41.690  -9.570   5.796  1.00  0.00     0.234 A 
ENDBRANCH   3  19
TORSDOF 5
ENDMDL
MODEL 5
REMARK VINA RESULT:      -7.6      3.690      7.397
REMARK  5 active torsions:
REMARK  status: ('A' for Active; 'I' for Inactive)
REMARK    1  A    between atoms: C_2  and  C_3 
REMARK    2  A    between atoms: C_6  and  C_7 
REMARK    3  A    between atoms: C_7  and  N_8 
REMARK    4  A    between atoms: C_7  and  C_21 
REMARK       I    between atoms: N_8  and  C_9 
REMARK       I    between atoms: C_9  and  N_10 
REMARK    5  A    between atoms: N_10  and  N_11 
ROOT
HETATM    1  N   UNL     1      41.550 -13.658   4.583  1.00  0.00    -0.333 N 
HETATM    2  C   UNL     1      41.899 -14.954   4.781  1.00  0.00     0.335 C 
HETATM    3  N   UNL     1      43.191 -15.282   4.509  1.00  0.00    -0.244 N 
HETATM    4  O   UNL     1      41.038 -15.751   5.139  1.00  0.00    -0.246 OA
HETATM    5  H   UNL     1      40.582 -13.487   4.817  1.00  0.00     0.165 HD
HETATM    6  H   UNL     1      43.893 -14.590   4.713  1.00  0.00     0.192 HD
ENDROOT
BRANCH   1   7
HETATM    7  C   UNL     1      42.320 -12.530   4.058  1.00  0.00     0.122 C 
BRANCH   7   8
HETATM    8  C   UNL     1      43.240 -12.024   5.160  1.00  0.00    -0.035 A 
HETATM    9  C   UNL     1      44.589 -11.759   4.883  1.00  0.00     0.010 A 
HETATM   10  C   UNL     1      45.442 -11.281   5.882  1.00  0.00     0.007 A 
HETATM   11  C   UNL     1      44.967 -11.067   7.181  1.00  0.00    -0.059 A 
HETATM   12  C   UNL     1      43.622 -11.333   7.462  1.00  0.00     0.007 A 
HETATM   13  C   UNL     1      42.769 -11.808   6.464  1.00  0.00     0.010 A 
BRANCH  11  14
HETATM   14  C   UNL     1      45.878 -10.525   8.252  1.00  0.00     0.034 C 
HETATM   15  C   UNL     1      45.880  -9.004   8.272  1.00  0.00     0.010 C 
ENDBRANCH  11  14
ENDBRANCH   7   8
BRANCH   7  16
HETATM   16  C   UNL     1      41.382 -11.430   3.485  1.00  0.00     0.005 C 
HETATM   17  C   UNL     1      41.866 -10.925   2.119  1.00  0.00     0.012 C 
HETATM   18  C   UNL     1      39.946 -11.950   3.336  1.00  0.00     0.012 C 
ENDBRANCH   7  16
ENDBRANCH   1   7
BRANCH   3  19
HETATM   19  N   UNL     1      43.597 -16.541   4.813  1.00  0.00    -0.244 N 
HETATM   20  C   UNL     1      43.575 -17.592   3.939  1.00  0.00     0.086 A 
HETATM   21  C   UNL     1      43.835 -18.689   4.762  1.00  0.00     0.086 A 
HETATM   22  C   UNL     1      43.354 -17.708   2.561  1.00  0.00     0.034 A 
HETATM   23  C   UNL     1      43.883 -19.972   4.197  1.00  0.00     0.034 A 
HETATM   24  N   UNL     1      43.994 -18.307   6.078  1.00  0.00    -0.240 NA
HETATM   25  C   UNL     1      43.662 -20.112   2.822  1.00  0.00     0.002 A 
HETATM   26  C   UNL     1      43.402 -18.999   2.020  1.00  0.00     0.002 A 
HETATM   27  C   UNL     1      43.836 -17.000   6.073  1.00  0.00     0.234 A 
ENDBRANCH   3  19
TORSDOF 5
ENDMDL
MODEL 6
REMARK VINA RESULT:      -7.3      5.235      8.849
REMARK  5 active torsions:
REMARK  status: ('A' for Active; 'I' for Inactive)
REMARK    1  A    between atoms: C_2  and  C_3 
REMARK    2  A    between atoms: C_6  and  C_7 
REMARK    3  A    between atoms: C_7  and  N_8 
REMARK    4  A    between atoms: C_7  and  C_21 
REMARK       I    between atoms: N_8  and  C_9 
REMARK       I    between atoms: C_9  and  N_10 
REMARK    5  A    between atoms: N_10  and  N_11 
ROOT
HETATM    1  N   UNL     1      43.264  -9.835   7.310  1.00  0.00    -0.333 N 
HETATM    2  C   UNL     1      42.469 -10.487   6.426  1.00  0.00     0.335 C 
HETATM    3  N   UNL     1      42.165 -11.780   6.722  1.00  0.00    -0.244 N 
HETATM    4  O   UNL     1      42.114  -9.904   5.405  1.00  0.00    -0.246 OA
HETATM    5  H   UNL     1      43.436  -8.878   7.030  1.00  0.00     0.165 HD
HETATM    6  H   UNL     1      42.043 -12.011   7.694  1.00  0.00     0.192 HD
ENDROOT
BRANCH   1   7
HETATM    7  C   UNL     1      43.922 -10.304   8.529  1.00  0.00     0.122 C 
BRANCH   7   8
HETATM    8  C   UNL     1      43.529  -9.378   9.672  1.00  0.00    -0.035 A 
HETATM    9  C   UNL     1      43.892  -9.693  10.989  1.00  0.00     0.010 A 
HETATM   10  C   UNL     1      43.549  -8.845  12.046  1.00  0.00     0.007 A 
HETATM   11  C   UNL     1      42.827  -7.670  11.810  1.00  0.00    -0.059 A 
HETATM   12  C   UNL     1      42.459  -7.353  10.497  1.00  0.00     0.007 A 
HETATM   13  C   UNL     1      42.804  -8.198   9.441  1.00  0.00     0.010 A 
BRANCH  11  14
HETATM   14  C   UNL     1      42.480  -6.740  12.944  1.00  0.00     0.034 C 
HETATM   15  C   UNL     1      43.163  -7.154  14.239  1.00  0.00     0.010 C 
ENDBRANCH  11  14
ENDBRANCH   7   8
BRANCH   7  16
HETATM   16  C   UNL     1      45.460 -10.414   8.329  1.00  0.00     0.005 C 
HETATM   17  C   UNL     1      45.813 -11.231   7.078  1.00  0.00     0.012 C 
HETATM   18  C   UNL     1      46.105  -9.027   8.207  1.00  0.00     0.012 C 
ENDBRANCH   7  16
ENDBRANCH   1   7
BRANCH   3  19
HETATM   19  N   UNL     1      41.274 -12.416   5.919  1.00  0.00    -0.244 N 
HETATM   20  C   UNL     1      41.619 -13.221   4.870  1.00  0.00     0.086 A 
HETATM   21  C   UNL     1      40.400 -13.426   4.220  1.00  0.00     0.086 A 
HETATM   22  C   UNL     1      42.825 -13.774   4.420  1.00  0.00     0.034 A 
HETATM   23  C   UNL     1      40.367 -14.221   3.064  1.00  0.00     0.034 A 
HETATM   24  N   UNL     1      39.372 -12.758   4.851  1.00  0.00    -0.240 NA
HETATM   25  C   UNL     1      41.561 -14.780   2.594  1.00  0.00     0.002 A 
HETATM   26  C   UNL     1      42.767 -14.558   3.262  1.00  0.00     0.002 A 
HETATM   27  C   UNL     1      39.939 -12.151   5.872  1.00  0.00     0.234 A 
ENDBRANCH   3  19
TORSDOF 5
ENDMDL
MODEL 7
REMARK VINA RESULT:      -7.3      2.154      6.698
REMARK  5 active torsions:
REMARK  status: ('A' for Active; 'I' for Inactive)
REMARK    1  A    between atoms: C_2  and  C_3 
REMARK    2  A    between atoms: C_6  and  C_7 
REMARK    3  A    between atoms: C_7  and  N_8 
REMARK    4  A    between atoms: C_7  and  C_21 
REMARK       I    between atoms: N_8  and  C_9 
REMARK       I    between atoms: C_9  and  N_10 
REMARK    5  A    between atoms: N_10  and  N_11 
ROOT
HETATM    1  N   UNL     1      40.091 -14.347   4.002  1.00  0.00    -0.333 N 
HETATM    2  C   UNL     1      40.881 -15.409   4.300  1.00  0.00     0.335 C 
HETATM    3  N   UNL     1      42.195 -15.301   3.963  1.00  0.00    -0.244 N 
HETATM    4  O   UNL     1      40.369 -16.406   4.800  1.00  0.00    -0.246 OA
HETATM    5  H   UNL     1      39.134 -14.495   4.292  1.00  0.00     0.165 HD
HETATM    6  H   UNL     1      42.615 -14.390   4.044  1.00  0.00     0.192 HD
ENDROOT
BRANCH   1   7
HETATM    7  C   UNL     1      40.395 -13.094   3.311  1.00  0.00     0.122 C 
BRANCH   7   8
HETATM    8  C   UNL     1      40.119 -13.287   1.827  1.00  0.00    -0.035 A 
HETATM    9  C   UNL     1      40.628 -14.409   1.157  1.00  0.00     0.010 A 
HETATM   10  C   UNL     1      40.372 -14.606  -0.202  1.00  0.00     0.007 A 
HETATM   11  C   UNL     1      39.610 -13.681  -0.924  1.00  0.00    -0.059 A 
HETATM   12  C   UNL     1      39.102 -12.558  -0.261  1.00  0.00     0.007 A 
HETATM   13  C   UNL     1      39.356 -12.362   1.098  1.00  0.00     0.010 A 
BRANCH  11  14
HETATM   14  C   UNL     1      39.309 -13.905  -2.384  1.00  0.00     0.034 C 
HETATM   15  C   UNL     1      38.689 -15.274  -2.626  1.00  0.00     0.010 C 
ENDBRANCH  11  14
ENDBRANCH   7   8
BRANCH   7  16
HETATM   16  C   UNL     1      41.846 -12.626   3.612  1.00  0.00     0.005 C 
HETATM   17  C   UNL     1      42.378 -11.685   2.522  1.00  0.00     0.012 C 
HETATM   18  C   UNL     1      41.927 -11.904   4.965  1.00  0.00     0.012 C 
ENDBRANCH   7  16
ENDBRANCH   1   7
BRANCH   3  19
HETATM   19  N   UNL     1      43.029 -16.296   4.358  1.00  0.00    -0.244 N 
HETATM   20  C   UNL     1      43.189 -17.478   3.691  1.00  0.00     0.086 A 
HETATM   21  C   UNL     1      43.928 -18.247   4.593  1.00  0.00     0.086 A 
HETATM   22  C   UNL     1      42.777 -17.956   2.441  1.00  0.00     0.034 A 
HETATM   23  C   UNL     1      44.283 -19.559   4.242  1.00  0.00     0.034 A 
HETATM   24  N   UNL     1      44.187 -17.553   5.756  1.00  0.00    -0.240 NA
HETATM   25  C   UNL     1      43.878 -20.059   2.999  1.00  0.00     0.002 A 
HETATM   26  C   UNL     1      43.138 -19.269   2.116  1.00  0.00     0.002 A 
HETATM   27  C   UNL     1      43.621 -16.377   5.582  1.00  0.00     0.234 A 
ENDBRANCH   3  19
TORSDOF 5
ENDMDL
MODEL 8
REMARK VINA RESULT:      -7.3      2.750      7.268
REMARK  5 active torsions:
REMARK  status: ('A' for Active; 'I' for Inactive)
REMARK    1  A    between atoms: C_2  and  C_3 
REMARK    2  A    between atoms: C_6  and  C_7 
REMARK    3  A    between atoms: C_7  and  N_8 
REMARK    4  A    between atoms: C_7  and  C_21 
REMARK       I    between atoms: N_8  and  C_9 
REMARK       I    between atoms: C_9  and  N_10 
REMARK    5  A    between atoms: N_10  and  N_11 
ROOT
HETATM    1  N   UNL     1      41.614 -15.096   4.693  1.00  0.00    -0.333 N 
HETATM    2  C   UNL     1      41.698 -13.973   5.451  1.00  0.00     0.335 C 
HETATM    3  N   UNL     1      42.572 -13.021   5.027  1.00  0.00    -0.244 N 
HETATM    4  O   UNL     1      41.033 -13.901   6.479  1.00  0.00    -0.246 OA
HETATM    5  H   UNL     1      40.938 -15.751   5.062  1.00  0.00     0.165 HD
HETATM    6  H   UNL     1      42.676 -12.902   4.033  1.00  0.00     0.192 HD
ENDROOT
BRANCH   1   7
HETATM    7  C   UNL     1      42.359 -15.503   3.502  1.00  0.00     0.122 C 
BRANCH   7   8
HETATM    8  C   UNL     1      41.578 -15.060   2.274  1.00  0.00    -0.035 A 
HETATM    9  C   UNL     1      41.889 -13.847   1.642  1.00  0.00     0.010 A 
HETATM   10  C   UNL     1      41.188 -13.435   0.505  1.00  0.00     0.007 A 
HETATM   11  C   UNL     1      40.155 -14.220  -0.019  1.00  0.00    -0.059 A 
HETATM   12  C   UNL     1      39.839 -15.430   0.610  1.00  0.00     0.007 A 
HETATM   13  C   UNL     1      40.540 -15.844   1.744  1.00  0.00     0.010 A 
BRANCH  11  14
HETATM   14  C   UNL     1      39.417 -13.791  -1.260  1.00  0.00     0.034 C 
HETATM   15  C   UNL     1      38.950 -14.986  -2.078  1.00  0.00     0.010 C 
ENDBRANCH  11  14
ENDBRANCH   7   8
BRANCH   7  16
HETATM   16  C   UNL     1      42.659 -17.029   3.524  1.00  0.00     0.005 C 
HETATM   17  C   UNL     1      43.535 -17.453   2.337  1.00  0.00     0.012 C 
HETATM   18  C   UNL     1      43.364 -17.437   4.825  1.00  0.00     0.012 C 
ENDBRANCH   7  16
ENDBRANCH   1   7
BRANCH   3  19
HETATM   19  N   UNL     1      42.588 -11.840   5.696  1.00  0.00    -0.244 N 
HETATM   20  C   UNL     1      43.630 -11.401   6.464  1.00  0.00     0.086 A 
HETATM   21  C   UNL     1      43.088 -10.298   7.126  1.00  0.00     0.086 A 
HETATM   22  C   UNL     1      44.948 -11.835   6.658  1.00  0.00     0.034 A 
HETATM   23  C   UNL     1      43.888  -9.580   8.028  1.00  0.00     0.034 A 
HETATM   24  N   UNL     1      41.770 -10.095   6.775  1.00  0.00    -0.240 NA
HETATM   25  C   UNL     1      45.207  -9.998   8.240  1.00  0.00     0.002 A 
HETATM   26  C   UNL     1      45.725 -11.106   7.567  1.00  0.00     0.002 A 
HETATM   27  C   UNL     1      41.498 -11.052   5.912  1.00  0.00     0.234 A 
ENDBRANCH   3  19
TORSDOF 5
ENDMDL
MODEL 9
REMARK VINA RESULT:      -7.3      2.543      7.579
REMARK  5 active torsions:
REMARK  status: ('A' for Active; 'I' for Inactive)
REMARK    1  A    between atoms: C_2  and  C_3 
REMARK    2  A    between atoms: C_6  and  C_7 
REMARK    3  A    between atoms: C_7  and  N_8 
REMARK    4  A    between atoms: C_7  and  C_21 
REMARK       I    between atoms: N_8  and  C_9 
REMARK       I    between atoms: C_9  and  N_10 
REMARK    5  A    between atoms: N_10  and  N_11 
ROOT
HETATM    1  N   UNL     1      40.509 -14.533   2.767  1.00  0.00    -0.333 N 
HETATM    2  C   UNL     1      41.175 -15.567   3.338  1.00  0.00     0.335 C 
HETATM    3  N   UNL     1      42.519 -15.611   3.133  1.00  0.00    -0.244 N 
HETATM    4  O   UNL     1      40.537 -16.415   3.954  1.00  0.00    -0.246 OA
HETATM    5  H   UNL     1      39.520 -14.560   2.973  1.00  0.00     0.165 HD
HETATM    6  H   UNL     1      43.005 -14.731   3.090  1.00  0.00     0.192 HD
ENDROOT
BRANCH   1   7
HETATM    7  C   UNL     1      40.981 -13.458   1.894  1.00  0.00     0.122 C 
BRANCH   7   8
HETATM    8  C   UNL     1      40.954 -12.156   2.681  1.00  0.00    -0.035 A 
HETATM    9  C   UNL     1      39.744 -11.671   3.199  1.00  0.00     0.010 A 
HETATM   10  C   UNL     1      39.707 -10.484   3.935  1.00  0.00     0.007 A 
HETATM   11  C   UNL     1      40.877  -9.750   4.161  1.00  0.00    -0.059 A 
HETATM   12  C   UNL     1      42.086 -10.228   3.645  1.00  0.00     0.007 A 
HETATM   13  C   UNL     1      42.125 -11.415   2.911  1.00  0.00     0.010 A 
BRANCH  11  14
HETATM   14  C   UNL     1      40.844  -8.484   4.978  1.00  0.00     0.034 C 
HETATM   15  C   UNL     1      39.751  -8.527   6.036  1.00  0.00     0.010 C 
ENDBRANCH  11  14
ENDBRANCH   7   8
BRANCH   7  16
HETATM   16  C   UNL     1      40.154 -13.400   0.579  1.00  0.00     0.005 C 
HETATM   17  C   UNL     1      40.797 -12.468  -0.457  1.00  0.00     0.012 C 
HETATM   18  C   UNL     1      40.003 -14.795  -0.043  1.00  0.00     0.012 C 
ENDBRANCH   7  16
ENDBRANCH   1   7
BRANCH   3  19
HETATM   19  N   UNL     1      43.226 -16.564   3.792  1.00  0.00    -0.244 N 
HETATM   20  C   UNL     1      43.336 -17.864   3.383  1.00  0.00     0.086 A 
HETATM   21  C   UNL     1      43.925 -18.489   4.484  1.00  0.00     0.086 A 
HETATM   22  C   UNL     1      42.990 -18.550   2.213  1.00  0.00     0.034 A 
HETATM   23  C   UNL     1      44.190 -19.866   4.429  1.00  0.00     0.034 A 
HETATM   24  N   UNL     1      44.145 -17.597   5.513  1.00  0.00    -0.240 NA
HETATM   25  C   UNL     1      43.849 -20.572   3.270  1.00  0.00     0.002 A 
HETATM   26  C   UNL     1      43.259 -19.924   2.183  1.00  0.00     0.002 A 
HETATM   27  C   UNL     1      43.703 -16.442   5.061  1.00  0.00     0.234 A 
ENDBRANCH   3  19
TORSDOF 5
ENDMDL
MODEL 10
REMARK VINA RESULT:      -7.3     15.404     18.093
REMARK  5 active torsions:
REMARK  status: ('A' for Active; 'I' for Inactive)
REMARK    1  A    between atoms: C_2  and  C_3 
REMARK    2  A    between atoms: C_6  and  C_7 
REMARK    3  A    between atoms: C_7  and  N_8 
REMARK    4  A    between atoms: C_7  and  C_21 
REMARK       I    between atoms: N_8  and  C_9 
REMARK       I    between atoms: C_9  and  N_10 
REMARK    5  A    between atoms: N_10  and  N_11 
ROOT
HETATM    1  N   UNL     1      45.277 -28.983   1.045  1.00  0.00    -0.333 N 
HETATM    2  C   UNL     1      46.591 -29.063   1.368  1.00  0.00     0.335 C 
HETATM    3  N   UNL     1      47.192 -30.268   1.170  1.00  0.00    -0.244 N 
HETATM    4  O   UNL     1      47.143 -28.081   1.856  1.00  0.00    -0.246 OA
HETATM    5  H   UNL     1      44.903 -28.058   1.207  1.00  0.00     0.165 HD
HETATM    6  H   UNL     1      46.890 -30.806   0.374  1.00  0.00     0.192 HD
ENDROOT
BRANCH   1   7
HETATM    7  C   UNL     1      44.347 -30.005   0.564  1.00  0.00     0.122 C 
BRANCH   7   8
HETATM    8  C   UNL     1      44.354 -29.981  -0.958  1.00  0.00    -0.035 A 
HETATM    9  C   UNL     1      44.345 -31.182  -1.681  1.00  0.00     0.010 A 
HETATM   10  C   UNL     1      44.338 -31.175  -3.078  1.00  0.00     0.007 A 
HETATM   11  C   UNL     1      44.350 -29.966  -3.783  1.00  0.00    -0.059 A 
HETATM   12  C   UNL     1      44.363 -28.764  -3.066  1.00  0.00     0.007 A 
HETATM   13  C   UNL     1      44.367 -28.771  -1.671  1.00  0.00     0.010 A 
BRANCH  11  14
HETATM   14  C   UNL     1      44.315 -29.955  -5.290  1.00  0.00     0.034 C 
HETATM   15  C   UNL     1      43.949 -31.320  -5.854  1.00  0.00     0.010 C 
ENDBRANCH  11  14
ENDBRANCH   7   8
BRANCH   7  16
HETATM   16  C   UNL     1      42.931 -29.807   1.176  1.00  0.00     0.005 C 
HETATM   17  C   UNL     1      42.154 -31.128   1.251  1.00  0.00     0.012 C 
HETATM   18  C   UNL     1      43.016 -29.206   2.586  1.00  0.00     0.012 C 
ENDBRANCH   7  16
ENDBRANCH   1   7
BRANCH   3  19
HETATM   19  N   UNL     1      48.533 -30.342   1.369  1.00  0.00    -0.244 N 
HETATM   20  C   UNL     1      49.122 -30.527   2.589  1.00  0.00     0.086 A 
HETATM   21  C   UNL     1      50.472 -30.284   2.323  1.00  0.00     0.086 A 
HETATM   22  C   UNL     1      48.644 -30.860   3.862  1.00  0.00     0.034 A 
HETATM   23  C   UNL     1      51.402 -30.377   3.369  1.00  0.00     0.034 A 
HETATM   24  N   UNL     1      50.675 -29.955   1.000  1.00  0.00    -0.240 NA
HETATM   25  C   UNL     1      50.946 -30.706   4.651  1.00  0.00     0.002 A 
HETATM   26  C   UNL     1      49.591 -30.943   4.891  1.00  0.00     0.002 A 
HETATM   27  C   UNL     1      49.478 -29.993   0.453  1.00  0.00     0.234 A 
ENDBRANCH   3  19
TORSDOF 5
ENDMDL
