MODEL 1
REMARK VINA RESULT:      -8.7      0.000      0.000
REMARK  6 active torsions:
REMARK  status: ('A' for Active; 'I' for Inactive)
REMARK    1  A    between atoms: C_10  and  C_11 
REMARK       I    between atoms: C_11  and  N_12 
REMARK    2  A    between atoms: N_12  and  C_13 
REMARK    3  A    between atoms: C_13  and  C_14 
REMARK    4  A    between atoms: C_14  and  N_15 
REMARK    5  A    between atoms: C_14  and  C_19 
REMARK    6  A    between atoms: C_20  and  O_21 
ROOT
HETATM    1  C   UNL     1      42.656 -13.511   3.723  1.00  0.00     0.276 C 
HETATM    2  N   UNL     1      42.178 -13.165   2.465  1.00  0.00    -0.353 N 
HETATM    3  O   UNL     1      42.708 -12.677   4.623  1.00  0.00    -0.265 OA
HETATM    4  H   UNL     1      42.408 -13.825   1.724  1.00  0.00     0.162 HD
ENDROOT
BRANCH   2   5
HETATM    5  C   UNL     1      41.931 -11.760   2.156  1.00  0.00     0.161 C 
BRANCH   5   6
HETATM    6  C   UNL     1      40.592 -11.560   1.376  1.00  0.00     0.240 C 
BRANCH   6   7
HETATM    7  N   UNL     1      39.418 -11.742   2.368  1.00  0.00    -0.069 N 
HETATM    8  H   UNL     1      39.389 -12.761   2.512  1.00  0.00     0.279 HD
HETATM    9  C   UNL     1      39.715 -11.141   3.713  1.00  0.00     0.270 C 
HETATM   10  C   UNL     1      38.072 -11.322   1.869  1.00  0.00     0.270 C 
ENDBRANCH   6   7
BRANCH   6  11
HETATM   11  C   UNL     1      40.474 -12.355   0.089  1.00  0.00     0.007 A 
HETATM   12  C   UNL     1      40.060 -13.705   0.134  1.00  0.00     0.076 A 
HETATM   13  C   UNL     1      39.955 -14.454  -1.042  1.00  0.00     0.037 A 
HETATM   14  C   UNL     1      40.234 -13.867  -2.273  1.00  0.00     0.003 A 
HETATM   15  C   UNL     1      40.629 -12.535  -2.336  1.00  0.00     0.001 A 
HETATM   16  C   UNL     1      40.752 -11.784  -1.166  1.00  0.00     0.012 A 
BRANCH  12  17
HETATM   17  O   UNL     1      39.831 -14.236   1.378  1.00  0.00    -0.355 OA
HETATM   18  C   UNL     1      39.867 -15.661   1.459  1.00  0.00     0.210 C 
ENDBRANCH  12  17
ENDBRANCH   6  11
ENDBRANCH   5   6
ENDBRANCH   2   5
BRANCH   1  19
HETATM   19  C   UNL     1      43.044 -14.894   3.862  1.00  0.00     0.150 A 
HETATM   20  O   UNL     1      43.042 -15.683   2.741  1.00  0.00    -0.304 OA
HETATM   21  C   UNL     1      43.343 -16.949   3.142  1.00  0.00     0.087 A 
HETATM   22  C   UNL     1      43.396 -18.066   2.314  1.00  0.00     0.045 A 
HETATM   23  C   UNL     1      43.583 -16.978   4.507  1.00  0.00     0.007 A 
HETATM   24  C   UNL     1      43.715 -19.300   2.913  1.00  0.00    -0.053 A 
HETATM   25  C   UNL     1      43.963 -19.377   4.302  1.00  0.00    -0.055 A 
HETATM   26  C   UNL     1      43.741 -20.534   2.048  1.00  0.00     0.049 C 
HETATM   27  C   UNL     1      44.317 -20.683   4.964  1.00  0.00     0.049 C 
HETATM   28  C   UNL     1      43.911 -18.212   5.097  1.00  0.00     0.022 A 
HETATM   29  C   UNL     1      43.402 -15.641   4.974  1.00  0.00    -0.009 A 
HETATM   30  C   UNL     1      43.549 -15.158   6.371  1.00  0.00     0.052 C 
ENDBRANCH   1  19
TORSDOF 6
ENDMDL
MODEL 2
REMARK VINA RESULT:      -8.6      1.722      2.420
REMARK  6 active torsions:
REMARK  status: ('A' for Active; 'I' for Inactive)
REMARK    1  A    between atoms: C_10  and  C_11 
REMARK       I    between atoms: C_11  and  N_12 
REMARK    2  A    between atoms: N_12  and  C_13 
REMARK    3  A    between atoms: C_13  and  C_14 
REMARK    4  A    between atoms: C_14  and  N_15 
REMARK    5  A    between atoms: C_14  and  C_19 
REMARK    6  A    between atoms: C_20  and  O_21 
ROOT
HETATM    1  C   UNL     1      41.967 -13.532   2.659  1.00  0.00     0.276 C 
HETATM    2  N   UNL     1      40.730 -13.565   2.029  1.00  0.00    -0.353 N 
HETATM    3  O   UNL     1      42.516 -12.461   2.903  1.00  0.00    -0.265 OA
HETATM    4  H   UNL     1      40.473 -14.470   1.639  1.00  0.00     0.162 HD
ENDROOT
BRANCH   2   5
HETATM    5  C   UNL     1      40.179 -12.334   1.471  1.00  0.00     0.161 C 
BRANCH   5   6
HETATM    6  C   UNL     1      40.571 -12.146  -0.031  1.00  0.00     0.240 C 
BRANCH   6   7
HETATM    7  N   UNL     1      40.786 -10.636  -0.293  1.00  0.00    -0.069 N 
HETATM    8  H   UNL     1      39.828 -10.283  -0.427  1.00  0.00     0.279 HD
HETATM    9  C   UNL     1      41.325  -9.922   0.914  1.00  0.00     0.270 C 
HETATM   10  C   UNL     1      41.566 -10.293  -1.522  1.00  0.00     0.270 C 
ENDBRANCH   6   7
BRANCH   6  11
HETATM   11  C   UNL     1      39.663 -12.848  -1.024  1.00  0.00     0.007 A 
HETATM   12  C   UNL     1      38.398 -12.297  -1.328  1.00  0.00     0.076 A 
HETATM   13  C   UNL     1      37.547 -12.936  -2.234  1.00  0.00     0.037 A 
HETATM   14  C   UNL     1      37.949 -14.110  -2.865  1.00  0.00     0.003 A 
HETATM   15  C   UNL     1      39.197 -14.658  -2.586  1.00  0.00     0.001 A 
HETATM   16  C   UNL     1      40.048 -14.036  -1.672  1.00  0.00     0.012 A 
BRANCH  12  17
HETATM   17  O   UNL     1      38.046 -11.157  -0.651  1.00  0.00    -0.355 OA
HETATM   18  C   UNL     1      37.358 -10.169  -1.419  1.00  0.00     0.210 C 
ENDBRANCH  12  17
ENDBRANCH   6  11
ENDBRANCH   5   6
ENDBRANCH   2   5
BRANCH   1  19
HETATM   19  C   UNL     1      42.502 -14.827   3.006  1.00  0.00     0.150 A 
HETATM   20  O   UNL     1      42.560 -15.787   2.029  1.00  0.00    -0.304 OA
HETATM   21  C   UNL     1      43.003 -16.931   2.618  1.00  0.00     0.087 A 
HETATM   22  C   UNL     1      43.156 -18.159   1.981  1.00  0.00     0.045 A 
HETATM   23  C   UNL     1      43.274 -16.710   3.959  1.00  0.00     0.007 A 
HETATM   24  C   UNL     1      43.618 -19.239   2.759  1.00  0.00    -0.053 A 
HETATM   25  C   UNL     1      43.903 -19.059   4.131  1.00  0.00    -0.055 A 
HETATM   26  C   UNL     1      43.756 -20.589   2.106  1.00  0.00     0.049 C 
HETATM   27  C   UNL     1      44.408 -20.194   4.982  1.00  0.00     0.049 C 
HETATM   28  C   UNL     1      43.744 -17.790   4.728  1.00  0.00     0.022 A 
HETATM   29  C   UNL     1      42.963 -15.339   4.210  1.00  0.00    -0.009 A 
HETATM   30  C   UNL     1      43.088 -14.619   5.503  1.00  0.00     0.052 C 
ENDBRANCH   1  19
TORSDOF 6
ENDMDL
MODEL 3
REMARK VINA RESULT:      -8.5      3.632      6.169
REMARK  6 active torsions:
REMARK  status: ('A' for Active; 'I' for Inactive)
REMARK    1  A    between atoms: C_10  and  C_11 
REMARK       I    between atoms: C_11  and  N_12 
REMARK    2  A    between atoms: N_12  and  C_13 
REMARK    3  A    between atoms: C_13  and  C_14 
REMARK    4  A    between atoms: C_14  and  N_15 
REMARK    5  A    between atoms: C_14  and  C_19 
REMARK    6  A    between atoms: C_20  and  O_21 
ROOT
HETATM    1  C   UNL     1      42.533 -13.465   4.467  1.00  0.00     0.276 C 
HETATM    2  N   UNL     1      43.515 -12.562   4.852  1.00  0.00    -0.353 N 
HETATM    3  O   UNL     1      41.418 -13.071   4.134  1.00  0.00    -0.265 OA
HETATM    4  H   UNL     1      44.303 -12.973   5.350  1.00  0.00     0.162 HD
ENDROOT
BRANCH   2   5
HETATM    5  C   UNL     1      43.158 -11.161   5.058  1.00  0.00     0.161 C 
BRANCH   5   6
HETATM    6  C   UNL     1      42.719 -10.882   6.532  1.00  0.00     0.240 C 
BRANCH   6   7
HETATM    7  N   UNL     1      41.425 -10.034   6.502  1.00  0.00    -0.069 N 
HETATM    8  H   UNL     1      41.440  -9.550   7.411  1.00  0.00     0.279 HD
HETATM    9  C   UNL     1      41.477  -8.956   5.457  1.00  0.00     0.270 C 
HETATM   10  C   UNL     1      40.143 -10.804   6.427  1.00  0.00     0.270 C 
ENDBRANCH   6   7
BRANCH   6  11
HETATM   11  C   UNL     1      43.814 -10.351   7.439  1.00  0.00     0.007 A 
HETATM   12  C   UNL     1      43.476  -9.781   8.686  1.00  0.00     0.076 A 
HETATM   13  C   UNL     1      44.472  -9.279   9.529  1.00  0.00     0.037 A 
HETATM   14  C   UNL     1      45.812  -9.360   9.155  1.00  0.00     0.003 A 
HETATM   15  C   UNL     1      46.161  -9.932   7.937  1.00  0.00     0.001 A 
HETATM   16  C   UNL     1      45.173 -10.421   7.082  1.00  0.00     0.012 A 
BRANCH  12  17
HETATM   17  O   UNL     1      42.140  -9.699   8.982  1.00  0.00    -0.355 OA
HETATM   18  C   UNL     1      41.814  -9.006  10.188  1.00  0.00     0.210 C 
ENDBRANCH  12  17
ENDBRANCH   6  11
ENDBRANCH   5   6
ENDBRANCH   2   5
BRANCH   1  19
HETATM   19  C   UNL     1      42.948 -14.847   4.473  1.00  0.00     0.150 A 
HETATM   20  O   UNL     1      42.972 -15.522   3.281  1.00  0.00    -0.304 OA
HETATM   21  C   UNL     1      43.296 -16.815   3.559  1.00  0.00     0.087 A 
HETATM   22  C   UNL     1      43.379 -17.844   2.626  1.00  0.00     0.045 A 
HETATM   23  C   UNL     1      43.526 -16.973   4.916  1.00  0.00     0.007 A 
HETATM   24  C   UNL     1      43.720 -19.124   3.104  1.00  0.00    -0.053 A 
HETATM   25  C   UNL     1      43.958 -19.332   4.481  1.00  0.00    -0.055 A 
HETATM   26  C   UNL     1      43.779 -20.266   2.123  1.00  0.00     0.049 C 
HETATM   27  C   UNL     1      44.335 -20.689   5.016  1.00  0.00     0.049 C 
HETATM   28  C   UNL     1      43.876 -18.252   5.386  1.00  0.00     0.022 A 
HETATM   29  C   UNL     1      43.314 -15.692   5.511  1.00  0.00    -0.009 A 
HETATM   30  C   UNL     1      43.440 -15.346   6.950  1.00  0.00     0.052 C 
ENDBRANCH   1  19
TORSDOF 6
ENDMDL
MODEL 4
REMARK VINA RESULT:      -8.4      5.210      8.750
REMARK  6 active torsions:
REMARK  status: ('A' for Active; 'I' for Inactive)
REMARK    1  A    between atoms: C_10  and  C_11 
REMARK       I    between atoms: C_11  and  N_12 
REMARK    2  A    between atoms: N_12  and  C_13 
REMARK    3  A    between atoms: C_13  and  C_14 
REMARK    4  A    between atoms: C_14  and  N_15 
REMARK    5  A    between atoms: C_14  and  C_19 
REMARK    6  A    between atoms: C_20  and  O_21 
ROOT
HETATM    1  C   UNL     1      44.264 -11.824   7.411  1.00  0.00     0.276 C 
HETATM    2  N   UNL     1      43.312 -12.825   7.268  1.00  0.00    -0.353 N 
HETATM    3  O   UNL     1      45.342 -11.898   6.827  1.00  0.00    -0.265 OA
HETATM    4  H   UNL     1      42.575 -12.819   7.971  1.00  0.00     0.162 HD
ENDROOT
BRANCH   2   5
HETATM    5  C   UNL     1      43.675 -14.065   6.587  1.00  0.00     0.161 C 
BRANCH   5   6
HETATM    6  C   UNL     1      42.569 -14.525   5.584  1.00  0.00     0.240 C 
BRANCH   6   7
HETATM    7  N   UNL     1      41.223 -14.597   6.343  1.00  0.00    -0.069 N 
HETATM    8  H   UNL     1      41.477 -14.312   7.299  1.00  0.00     0.279 HD
HETATM    9  C   UNL     1      40.240 -13.571   5.853  1.00  0.00     0.270 C 
HETATM   10  C   UNL     1      40.596 -15.953   6.432  1.00  0.00     0.270 C 
ENDBRANCH   6   7
BRANCH   6  11
HETATM   11  C   UNL     1      42.914 -15.759   4.769  1.00  0.00     0.007 A 
HETATM   12  C   UNL     1      42.346 -15.934   3.488  1.00  0.00     0.076 A 
HETATM   13  C   UNL     1      42.646 -17.069   2.729  1.00  0.00     0.037 A 
HETATM   14  C   UNL     1      43.530 -18.026   3.221  1.00  0.00     0.003 A 
HETATM   15  C   UNL     1      44.108 -17.861   4.474  1.00  0.00     0.001 A 
HETATM   16  C   UNL     1      43.802 -16.739   5.246  1.00  0.00     0.012 A 
BRANCH  12  17
HETATM   17  O   UNL     1      41.458 -14.973   3.073  1.00  0.00    -0.355 OA
HETATM   18  C   UNL     1      40.196 -15.455   2.611  1.00  0.00     0.210 C 
ENDBRANCH  12  17
ENDBRANCH   6  11
ENDBRANCH   5   6
ENDBRANCH   2   5
BRANCH   1  19
HETATM   19  C   UNL     1      43.863 -10.727   8.258  1.00  0.00     0.150 A 
HETATM   20  O   UNL     1      44.322 -10.703   9.550  1.00  0.00    -0.304 OA
HETATM   21  C   UNL     1      43.734  -9.640  10.164  1.00  0.00     0.087 A 
HETATM   22  C   UNL     1      43.896  -9.290  11.501  1.00  0.00     0.045 A 
HETATM   23  C   UNL     1      42.931  -8.949   9.270  1.00  0.00     0.007 A 
HETATM   24  C   UNL     1      43.196  -8.159  11.964  1.00  0.00    -0.053 A 
HETATM   25  C   UNL     1      42.362  -7.428  11.087  1.00  0.00    -0.055 A 
HETATM   26  C   UNL     1      43.322  -7.779  13.416  1.00  0.00     0.049 C 
HETATM   27  C   UNL     1      41.612  -6.209  11.555  1.00  0.00     0.049 C 
HETATM   28  C   UNL     1      42.242  -7.815   9.735  1.00  0.00     0.022 A 
HETATM   29  C   UNL     1      43.024  -9.646   8.027  1.00  0.00    -0.009 A 
HETATM   30  C   UNL     1      42.344  -9.293   6.754  1.00  0.00     0.052 C 
ENDBRANCH   1  19
TORSDOF 6
ENDMDL
MODEL 5
REMARK VINA RESULT:      -8.4      3.408      6.097
REMARK  6 active torsions:
REMARK  status: ('A' for Active; 'I' for Inactive)
REMARK    1  A    between atoms: C_10  and  C_11 
REMARK       I    between atoms: C_11  and  N_12 
REMARK    2  A    between atoms: N_12  and  C_13 
REMARK    3  A    between atoms: C_13  and  C_14 
REMARK    4  A    between atoms: C_14  and  N_15 
REMARK    5  A    between atoms: C_14  and  C_19 
REMARK    6  A    between atoms: C_20  and  O_21 
ROOT
HETATM    1  C   UNL     1      42.847 -13.142   3.705  1.00  0.00     0.276 C 
HETATM    2  N   UNL     1      42.168 -12.745   4.850  1.00  0.00    -0.353 N 
HETATM    3  O   UNL     1      43.351 -12.310   2.956  1.00  0.00    -0.265 OA
HETATM    4  H   UNL     1      41.572 -13.459   5.264  1.00  0.00     0.162 HD
ENDROOT
BRANCH   2   5
HETATM    5  C   UNL     1      41.877 -11.328   5.053  1.00  0.00     0.161 C 
BRANCH   5   6
HETATM    6  C   UNL     1      42.025 -10.910   6.552  1.00  0.00     0.240 C 
BRANCH   6   7
HETATM    7  N   UNL     1      41.118  -9.683   6.807  1.00  0.00    -0.069 N 
HETATM    8  H   UNL     1      41.504  -9.282   7.673  1.00  0.00     0.279 HD
HETATM    9  C   UNL     1      41.283  -8.627   5.751  1.00  0.00     0.270 C 
HETATM   10  C   UNL     1      39.673  -9.981   7.056  1.00  0.00     0.270 C 
ENDBRANCH   6   7
BRANCH   6  11
HETATM   11  C   UNL     1      43.454 -10.766   7.041  1.00  0.00     0.007 A 
HETATM   12  C   UNL     1      43.705 -10.260   8.336  1.00  0.00     0.076 A 
HETATM   13  C   UNL     1      45.016 -10.112   8.797  1.00  0.00     0.037 A 
HETATM   14  C   UNL     1      46.088 -10.487   7.992  1.00  0.00     0.003 A 
HETATM   15  C   UNL     1      45.858 -11.000   6.720  1.00  0.00     0.001 A 
HETATM   16  C   UNL     1      44.553 -11.136   6.244  1.00  0.00     0.012 A 
BRANCH  12  17
HETATM   17  O   UNL     1      42.609  -9.878   9.068  1.00  0.00    -0.355 OA
HETATM   18  C   UNL     1      42.751  -8.664   9.807  1.00  0.00     0.210 C 
ENDBRANCH  12  17
ENDBRANCH   6  11
ENDBRANCH   5   6
ENDBRANCH   2   5
BRANCH   1  19
HETATM   19  C   UNL     1      42.916 -14.571   3.511  1.00  0.00     0.150 A 
HETATM   20  O   UNL     1      43.379 -15.343   4.544  1.00  0.00    -0.304 OA
HETATM   21  C   UNL     1      43.442 -16.625   4.089  1.00  0.00     0.087 A 
HETATM   22  C   UNL     1      43.909 -17.716   4.815  1.00  0.00     0.045 A 
HETATM   23  C   UNL     1      42.984 -16.696   2.783  1.00  0.00     0.007 A 
HETATM   24  C   UNL     1      43.910 -18.969   4.171  1.00  0.00    -0.053 A 
HETATM   25  C   UNL     1      43.455 -19.087   2.838  1.00  0.00    -0.055 A 
HETATM   26  C   UNL     1      44.446 -20.162   4.919  1.00  0.00     0.049 C 
HETATM   27  C   UNL     1      43.436 -20.416   2.131  1.00  0.00     0.049 C 
HETATM   28  C   UNL     1      42.978 -17.951   2.149  1.00  0.00     0.022 A 
HETATM   29  C   UNL     1      42.628 -15.364   2.410  1.00  0.00    -0.009 A 
HETATM   30  C   UNL     1      42.081 -14.921   1.102  1.00  0.00     0.052 C 
ENDBRANCH   1  19
TORSDOF 6
ENDMDL
MODEL 6
REMARK VINA RESULT:      -8.1      6.100      9.003
REMARK  6 active torsions:
REMARK  status: ('A' for Active; 'I' for Inactive)
REMARK    1  A    between atoms: C_10  and  C_11 
REMARK       I    between atoms: C_11  and  N_12 
REMARK    2  A    between atoms: N_12  and  C_13 
REMARK    3  A    between atoms: C_13  and  C_14 
REMARK    4  A    between atoms: C_14  and  N_15 
REMARK    5  A    between atoms: C_14  and  C_19 
REMARK    6  A    between atoms: C_20  and  O_21 
ROOT
HETATM    1  C   UNL     1      44.184 -11.183   7.665  1.00  0.00     0.276 C 
HETATM    2  N   UNL     1      43.562 -11.133   8.906  1.00  0.00    -0.353 N 
HETATM    3  O   UNL     1      44.992 -10.319   7.336  1.00  0.00    -0.265 OA
HETATM    4  H   UNL     1      42.735 -11.721   8.995  1.00  0.00     0.162 HD
ENDROOT
BRANCH   2   5
HETATM    5  C   UNL     1      43.715  -9.940   9.735  1.00  0.00     0.161 C 
BRANCH   5   6
HETATM    6  C   UNL     1      42.339  -9.411  10.256  1.00  0.00     0.240 C 
BRANCH   6   7
HETATM    7  N   UNL     1      41.805  -8.367   9.246  1.00  0.00    -0.069 N 
HETATM    8  H   UNL     1      41.368  -7.658   9.851  1.00  0.00     0.279 HD
HETATM    9  C   UNL     1      42.915  -7.662   8.518  1.00  0.00     0.270 C 
HETATM   10  C   UNL     1      40.757  -8.856   8.297  1.00  0.00     0.270 C 
ENDBRANCH   6   7
BRANCH   6  11
HETATM   11  C   UNL     1      42.331  -8.965  11.706  1.00  0.00     0.007 A 
HETATM   12  C   UNL     1      41.338  -9.453  12.584  1.00  0.00     0.076 A 
HETATM   13  C   UNL     1      41.310  -9.045  13.921  1.00  0.00     0.037 A 
HETATM   14  C   UNL     1      42.280  -8.171  14.406  1.00  0.00     0.003 A 
HETATM   15  C   UNL     1      43.272  -7.692  13.558  1.00  0.00     0.001 A 
HETATM   16  C   UNL     1      43.299  -8.082  12.218  1.00  0.00     0.012 A 
BRANCH  12  17
HETATM   17  O   UNL     1      40.392 -10.285  12.039  1.00  0.00    -0.355 OA
HETATM   18  C   UNL     1      39.377 -10.738  12.936  1.00  0.00     0.210 C 
ENDBRANCH  12  17
ENDBRANCH   6  11
ENDBRANCH   5   6
ENDBRANCH   2   5
BRANCH   1  19
HETATM   19  C   UNL     1      43.818 -12.318   6.853  1.00  0.00     0.150 A 
HETATM   20  O   UNL     1      44.065 -13.573   7.344  1.00  0.00    -0.304 OA
HETATM   21  C   UNL     1      43.728 -14.459   6.367  1.00  0.00     0.087 A 
HETATM   22  C   UNL     1      43.873 -15.841   6.446  1.00  0.00     0.045 A 
HETATM   23  C   UNL     1      43.223 -13.790   5.262  1.00  0.00     0.007 A 
HETATM   24  C   UNL     1      43.477 -16.598   5.326  1.00  0.00    -0.053 A 
HETATM   25  C   UNL     1      42.962 -15.957   4.177  1.00  0.00    -0.055 A 
HETATM   26  C   UNL     1      43.659 -18.093   5.367  1.00  0.00     0.049 C 
HETATM   27  C   UNL     1      42.522 -16.744   2.970  1.00  0.00     0.049 C 
HETATM   28  C   UNL     1      42.821 -14.553   4.151  1.00  0.00     0.022 A 
HETATM   29  C   UNL     1      43.267 -12.399   5.581  1.00  0.00    -0.009 A 
HETATM   30  C   UNL     1      42.832 -11.272   4.717  1.00  0.00     0.052 C 
ENDBRANCH   1  19
TORSDOF 6
ENDMDL
MODEL 7
REMARK VINA RESULT:      -8.1      2.000      3.379
REMARK  6 active torsions:
REMARK  status: ('A' for Active; 'I' for Inactive)
REMARK    1  A    between atoms: C_10  and  C_11 
REMARK       I    between atoms: C_11  and  N_12 
REMARK    2  A    between atoms: N_12  and  C_13 
REMARK    3  A    between atoms: C_13  and  C_14 
REMARK    4  A    between atoms: C_14  and  N_15 
REMARK    5  A    between atoms: C_14  and  C_19 
REMARK    6  A    between atoms: C_20  and  O_21 
ROOT
HETATM    1  C   UNL     1      42.743 -13.509   4.875  1.00  0.00     0.276 C 
HETATM    2  N   UNL     1      43.140 -12.544   3.959  1.00  0.00    -0.353 N 
HETATM    3  O   UNL     1      42.287 -13.183   5.968  1.00  0.00    -0.265 OA
HETATM    4  H   UNL     1      43.733 -12.888   3.205  1.00  0.00     0.162 HD
ENDROOT
BRANCH   2   5
HETATM    5  C   UNL     1      43.207 -11.146   4.376  1.00  0.00     0.161 C 
BRANCH   5   6
HETATM    6  C   UNL     1      42.042 -10.299   3.769  1.00  0.00     0.240 C 
BRANCH   6   7
HETATM    7  N   UNL     1      41.424  -9.441   4.899  1.00  0.00    -0.069 N 
HETATM    8  H   UNL     1      40.477  -9.831   4.999  1.00  0.00     0.279 HD
HETATM    9  C   UNL     1      42.107  -9.664   6.218  1.00  0.00     0.270 C 
HETATM   10  C   UNL     1      41.278  -7.981   4.602  1.00  0.00     0.270 C 
ENDBRANCH   6   7
BRANCH   6  11
HETATM   11  C   UNL     1      41.043 -11.083   2.938  1.00  0.00     0.007 A 
HETATM   12  C   UNL     1      41.125 -11.052   1.529  1.00  0.00     0.076 A 
HETATM   13  C   UNL     1      40.207 -11.761   0.749  1.00  0.00     0.037 A 
HETATM   14  C   UNL     1      39.216 -12.527   1.358  1.00  0.00     0.003 A 
HETATM   15  C   UNL     1      39.130 -12.579   2.745  1.00  0.00     0.001 A 
HETATM   16  C   UNL     1      40.032 -11.862   3.531  1.00  0.00     0.012 A 
BRANCH  12  17
HETATM   17  O   UNL     1      42.102 -10.255   0.988  1.00  0.00    -0.355 OA
HETATM   18  C   UNL     1      41.694  -9.433  -0.107  1.00  0.00     0.210 C 
ENDBRANCH  12  17
ENDBRANCH   6  11
ENDBRANCH   5   6
ENDBRANCH   2   5
BRANCH   1  19
HETATM   19  C   UNL     1      42.891 -14.870   4.420  1.00  0.00     0.150 A 
HETATM   20  O   UNL     1      43.287 -15.818   5.328  1.00  0.00    -0.304 OA
HETATM   21  C   UNL     1      43.447 -16.985   4.645  1.00  0.00     0.087 A 
HETATM   22  C   UNL     1      43.890 -18.185   5.193  1.00  0.00     0.045 A 
HETATM   23  C   UNL     1      43.117 -16.812   3.310  1.00  0.00     0.007 A 
HETATM   24  C   UNL     1      44.004 -19.289   4.325  1.00  0.00    -0.053 A 
HETATM   25  C   UNL     1      43.682 -19.156   2.955  1.00  0.00    -0.055 A 
HETATM   26  C   UNL     1      44.518 -20.591   4.881  1.00  0.00     0.049 C 
HETATM   27  C   UNL     1      43.786 -20.323   2.009  1.00  0.00     0.049 C 
HETATM   28  C   UNL     1      43.224 -17.920   2.451  1.00  0.00     0.022 A 
HETATM   29  C   UNL     1      42.742 -15.442   3.165  1.00  0.00    -0.009 A 
HETATM   30  C   UNL     1      42.302 -14.766   1.917  1.00  0.00     0.052 C 
ENDBRANCH   1  19
TORSDOF 6
ENDMDL
MODEL 8
REMARK VINA RESULT:      -8.0      2.293      3.479
REMARK  6 active torsions:
REMARK  status: ('A' for Active; 'I' for Inactive)
REMARK    1  A    between atoms: C_10  and  C_11 
REMARK       I    between atoms: C_11  and  N_12 
REMARK    2  A    between atoms: N_12  and  C_13 
REMARK    3  A    between atoms: C_13  and  C_14 
REMARK    4  A    between atoms: C_14  and  N_15 
REMARK    5  A    between atoms: C_14  and  C_19 
REMARK    6  A    between atoms: C_20  and  O_21 
ROOT
HETATM    1  C   UNL     1      43.194 -13.870   5.660  1.00  0.00     0.276 C 
HETATM    2  N   UNL     1      43.380 -12.802   4.793  1.00  0.00    -0.353 N 
HETATM    3  O   UNL     1      43.000 -13.678   6.857  1.00  0.00    -0.265 OA
HETATM    4  H   UNL     1      43.783 -13.047   3.891  1.00  0.00     0.162 HD
ENDROOT
BRANCH   2   5
HETATM    5  C   UNL     1      43.551 -11.459   5.340  1.00  0.00     0.161 C 
BRANCH   5   6
HETATM    6  C   UNL     1      42.587 -10.427   4.670  1.00  0.00     0.240 C 
BRANCH   6   7
HETATM    7  N   UNL     1      41.827  -9.673   5.788  1.00  0.00    -0.069 N 
HETATM    8  H   UNL     1      40.993 -10.257   5.939  1.00  0.00     0.279 HD
HETATM    9  C   UNL     1      42.579  -9.681   7.089  1.00  0.00     0.270 C 
HETATM   10  C   UNL     1      41.354  -8.297   5.440  1.00  0.00     0.270 C 
ENDBRANCH   6   7
BRANCH   6  11
HETATM   11  C   UNL     1      41.712 -10.990   3.565  1.00  0.00     0.007 A 
HETATM   12  C   UNL     1      40.515 -11.665   3.894  1.00  0.00     0.076 A 
HETATM   13  C   UNL     1      39.702 -12.197   2.889  1.00  0.00     0.037 A 
HETATM   14  C   UNL     1      40.054 -12.043   1.550  1.00  0.00     0.003 A 
HETATM   15  C   UNL     1      41.221 -11.369   1.209  1.00  0.00     0.001 A 
HETATM   16  C   UNL     1      42.047 -10.848   2.207  1.00  0.00     0.012 A 
BRANCH  12  17
HETATM   17  O   UNL     1      40.240 -11.812   5.230  1.00  0.00    -0.355 OA
HETATM   18  C   UNL     1      39.709 -13.080   5.617  1.00  0.00     0.210 C 
ENDBRANCH  12  17
ENDBRANCH   6  11
ENDBRANCH   5   6
ENDBRANCH   2   5
BRANCH   1  19
HETATM   19  C   UNL     1      43.223 -15.169   5.031  1.00  0.00     0.150 A 
HETATM   20  O   UNL     1      43.523 -16.258   5.807  1.00  0.00    -0.304 OA
HETATM   21  C   UNL     1      43.585 -17.336   4.978  1.00  0.00     0.087 A 
HETATM   22  C   UNL     1      43.912 -18.633   5.364  1.00  0.00     0.045 A 
HETATM   23  C   UNL     1      43.285 -16.962   3.678  1.00  0.00     0.007 A 
HETATM   24  C   UNL     1      43.936 -19.620   4.359  1.00  0.00    -0.053 A 
HETATM   25  C   UNL     1      43.641 -19.282   3.019  1.00  0.00    -0.055 A 
HETATM   26  C   UNL     1      44.325 -21.025   4.741  1.00  0.00     0.049 C 
HETATM   27  C   UNL     1      43.649 -20.321   1.929  1.00  0.00     0.049 C 
HETATM   28  C   UNL     1      43.301 -17.955   2.681  1.00  0.00     0.022 A 
HETATM   29  C   UNL     1      43.036 -15.557   3.712  1.00  0.00    -0.009 A 
HETATM   30  C   UNL     1      42.672 -14.688   2.564  1.00  0.00     0.052 C 
ENDBRANCH   1  19
TORSDOF 6
ENDMDL
MODEL 9
REMARK VINA RESULT:      -8.0      1.955      7.893
REMARK  6 active torsions:
REMARK  status: ('A' for Active; 'I' for Inactive)
REMARK    1  A    between atoms: C_10  and  C_11 
REMARK       I    between atoms: C_11  and  N_12 
REMARK    2  A    between atoms: N_12  and  C_13 
REMARK    3  A    between atoms: C_13  and  C_14 
REMARK    4  A    between atoms: C_14  and  N_15 
REMARK    5  A    between atoms: C_14  and  C_19 
REMARK    6  A    between atoms: C_20  and  O_21 
ROOT
HETATM    1  C   UNL     1      39.892 -14.837   0.584  1.00  0.00     0.276 C 
HETATM    2  N   UNL     1      39.862 -14.484   1.927  1.00  0.00    -0.353 N 
HETATM    3  O   UNL     1      39.670 -15.994   0.236  1.00  0.00    -0.265 OA
HETATM    4  H   UNL     1      40.302 -13.592   2.145  1.00  0.00     0.162 HD
ENDROOT
BRANCH   2   5
HETATM    5  C   UNL     1      39.769 -15.532   2.940  1.00  0.00     0.161 C 
BRANCH   5   6
HETATM    6  C   UNL     1      40.978 -15.497   3.929  1.00  0.00     0.240 C 
BRANCH   6   7
HETATM    7  N   UNL     1      41.540 -14.055   3.960  1.00  0.00    -0.069 N 
HETATM    8  H   UNL     1      40.950 -13.559   3.278  1.00  0.00     0.279 HD
HETATM    9  C   UNL     1      41.302 -13.382   5.282  1.00  0.00     0.270 C 
HETATM   10  C   UNL     1      42.961 -13.901   3.518  1.00  0.00     0.270 C 
ENDBRANCH   6   7
BRANCH   6  11
HETATM   11  C   UNL     1      42.013 -16.586   3.717  1.00  0.00     0.007 A 
HETATM   12  C   UNL     1      42.816 -17.010   4.799  1.00  0.00     0.076 A 
HETATM   13  C   UNL     1      43.781 -18.005   4.618  1.00  0.00     0.037 A 
HETATM   14  C   UNL     1      43.941 -18.607   3.372  1.00  0.00     0.003 A 
HETATM   15  C   UNL     1      43.148 -18.210   2.300  1.00  0.00     0.001 A 
HETATM   16  C   UNL     1      42.194 -17.206   2.468  1.00  0.00     0.012 A 
BRANCH  12  17
HETATM   17  O   UNL     1      42.634 -16.358   5.992  1.00  0.00    -0.355 OA
HETATM   18  C   UNL     1      43.821 -15.864   6.615  1.00  0.00     0.210 C 
ENDBRANCH  12  17
ENDBRANCH   6  11
ENDBRANCH   5   6
ENDBRANCH   2   5
BRANCH   1  19
HETATM   19  C   UNL     1      40.174 -13.748  -0.320  1.00  0.00     0.150 A 
HETATM   20  O   UNL     1      40.833 -12.651   0.172  1.00  0.00    -0.304 OA
HETATM   21  C   UNL     1      40.891 -11.735  -0.832  1.00  0.00     0.087 A 
HETATM   22  C   UNL     1      41.439 -10.460  -0.730  1.00  0.00     0.045 A 
HETATM   23  C   UNL     1      40.314 -12.244  -1.985  1.00  0.00     0.007 A 
HETATM   24  C   UNL     1      41.399  -9.644  -1.878  1.00  0.00    -0.053 A 
HETATM   25  C   UNL     1      40.816 -10.122  -3.073  1.00  0.00    -0.055 A 
HETATM   26  C   UNL     1      41.950  -8.245  -1.786  1.00  0.00     0.049 C 
HETATM   27  C   UNL     1      40.770  -9.274  -4.317  1.00  0.00     0.049 C 
HETATM   28  C   UNL     1      40.286 -11.429  -3.130  1.00  0.00     0.022 A 
HETATM   29  C   UNL     1      39.859 -13.558  -1.658  1.00  0.00    -0.009 A 
HETATM   30  C   UNL     1      39.171 -14.514  -2.563  1.00  0.00     0.052 C 
ENDBRANCH   1  19
TORSDOF 6
ENDMDL
MODEL 10
REMARK VINA RESULT:      -7.9      3.434      7.468
REMARK  6 active torsions:
REMARK  status: ('A' for Active; 'I' for Inactive)
REMARK    1  A    between atoms: C_10  and  C_11 
REMARK       I    between atoms: C_11  and  N_12 
REMARK    2  A    between atoms: N_12  and  C_13 
REMARK    3  A    between atoms: C_13  and  C_14 
REMARK    4  A    between atoms: C_14  and  N_15 
REMARK    5  A    between atoms: C_14  and  C_19 
REMARK    6  A    between atoms: C_20  and  O_21 
ROOT
HETATM    1  C   UNL     1      41.086 -13.102   4.928  1.00  0.00     0.276 C 
HETATM    2  N   UNL     1      41.575 -14.367   5.226  1.00  0.00    -0.353 N 
HETATM    3  O   UNL     1      40.187 -12.957   4.104  1.00  0.00    -0.265 OA
HETATM    4  H   UNL     1      42.472 -14.377   5.709  1.00  0.00     0.162 HD
ENDROOT
BRANCH   2   5
HETATM    5  C   UNL     1      41.161 -15.504   4.409  1.00  0.00     0.161 C 
BRANCH   5   6
HETATM    6  C   UNL     1      42.135 -15.748   3.211  1.00  0.00     0.240 C 
BRANCH   6   7
HETATM    7  N   UNL     1      41.400 -15.374   1.902  1.00  0.00    -0.069 N 
HETATM    8  H   UNL     1      41.715 -16.098   1.241  1.00  0.00     0.279 HD
HETATM    9  C   UNL     1      39.911 -15.539   2.020  1.00  0.00     0.270 C 
HETATM   10  C   UNL     1      41.755 -14.045   1.313  1.00  0.00     0.270 C 
ENDBRANCH   6   7
BRANCH   6  11
HETATM   11  C   UNL     1      42.814 -17.106   3.201  1.00  0.00     0.007 A 
HETATM   12  C   UNL     1      43.754 -17.427   4.206  1.00  0.00     0.076 A 
HETATM   13  C   UNL     1      44.394 -18.669   4.206  1.00  0.00     0.037 A 
HETATM   14  C   UNL     1      44.091 -19.613   3.227  1.00  0.00     0.003 A 
HETATM   15  C   UNL     1      43.158 -19.318   2.240  1.00  0.00     0.001 A 
HETATM   16  C   UNL     1      42.525 -18.074   2.223  1.00  0.00     0.012 A 
BRANCH  12  17
HETATM   17  O   UNL     1      44.033 -16.445   5.121  1.00  0.00    -0.355 OA
HETATM   18  C   UNL     1      44.059 -16.861   6.488  1.00  0.00     0.210 C 
ENDBRANCH  12  17
ENDBRANCH   6  11
ENDBRANCH   5   6
ENDBRANCH   2   5
BRANCH   1  19
HETATM   19  C   UNL     1      41.700 -12.028   5.671  1.00  0.00     0.150 A 
HETATM   20  O   UNL     1      42.904 -12.266   6.280  1.00  0.00    -0.304 OA
HETATM   21  C   UNL     1      43.223 -11.148   6.989  1.00  0.00     0.087 A 
HETATM   22  C   UNL     1      44.349 -10.997   7.792  1.00  0.00     0.045 A 
HETATM   23  C   UNL     1      42.256 -10.171   6.810  1.00  0.00     0.007 A 
HETATM   24  C   UNL     1      44.506  -9.766   8.461  1.00  0.00    -0.053 A 
HETATM   25  C   UNL     1      43.542  -8.744   8.310  1.00  0.00    -0.055 A 
HETATM   26  C   UNL     1      45.695  -9.588   9.368  1.00  0.00     0.049 C 
HETATM   27  C   UNL     1      43.692  -7.416   9.005  1.00  0.00     0.049 C 
HETATM   28  C   UNL     1      42.423  -8.942   7.472  1.00  0.00     0.022 A 
HETATM   29  C   UNL     1      41.272 -10.736   5.942  1.00  0.00    -0.009 A 
HETATM   30  C   UNL     1      40.034 -10.078   5.451  1.00  0.00     0.052 C 
ENDBRANCH   1  19
TORSDOF 6
ENDMDL
