MODEL 1
REMARK VINA RESULT:      -8.1      0.000      0.000
REMARK  5 active torsions:
REMARK  status: ('A' for Active; 'I' for Inactive)
REMARK    1  A    between atoms: O_2  and  C_3 
REMARK    2  A    between atoms: C_5  and  C_6 
REMARK    3  A    between atoms: C_10  and  C_11 
REMARK       I    between atoms: C_11  and  N_12 
REMARK    4  A    between atoms: N_12  and  C_13 
REMARK    5  A    between atoms: C_15  and  O_16 
ROOT
HETATM    1  C   UNL     1      42.558 -15.312   4.412  1.00  0.00     0.063 A 
HETATM    2  N   UNL     1      41.334 -14.728   4.201  1.00  0.00    -0.277 N 
HETATM    3  H   UNL     1      40.552 -15.111   3.682  1.00  0.00     0.189 HD
HETATM    4  N   UNL     1      41.179 -13.522   4.778  1.00  0.00    -0.169 NA
HETATM    5  C   UNL     1      42.348 -13.319   5.418  1.00  0.00     0.147 A 
HETATM    6  C   UNL     1      43.234 -14.406   5.207  1.00  0.00     0.071 A 
ENDROOT
BRANCH   5   7
HETATM    7  C   UNL     1      42.601 -12.110   6.225  1.00  0.00     0.276 C 
HETATM    8  N   UNL     1      43.816 -12.180   6.879  1.00  0.00    -0.322 N 
HETATM    9  H   UNL     1      44.308 -13.055   6.715  1.00  0.00     0.169 HD
HETATM   10  O   UNL     1      41.794 -11.188   6.265  1.00  0.00    -0.266 OA
BRANCH   8  11
HETATM   11  C   UNL     1      44.429 -11.219   7.700  1.00  0.00     0.037 A 
HETATM   12  C   UNL     1      43.943 -10.841   8.956  1.00  0.00     0.066 A 
HETATM   13  C   UNL     1      44.600  -9.861   9.707  1.00  0.00     0.070 A 
HETATM   14  C   UNL     1      45.759  -9.269   9.201  1.00  0.00     0.037 A 
HETATM   15  C   UNL     1      46.253  -9.638   7.953  1.00  0.00     0.005 A 
HETATM   16  C   UNL     1      45.589 -10.609   7.204  1.00  0.00     0.029 A 
BRANCH  13  17
HETATM   17  O   UNL     1      44.217  -9.401  10.938  1.00  0.00    -0.356 OA
HETATM   18  C   UNL     1      43.397 -10.263  11.719  1.00  0.00     0.210 C 
ENDBRANCH  13  17
ENDBRANCH   8  11
ENDBRANCH   5   7
BRANCH   1  19
HETATM   19  C   UNL     1      42.944 -16.627   3.895  1.00  0.00    -0.005 A 
HETATM   20  C   UNL     1      43.639 -17.531   4.718  1.00  0.00     0.050 A 
HETATM   21  C   UNL     1      44.011 -18.794   4.249  1.00  0.00     0.069 A 
HETATM   22  C   UNL     1      43.683 -19.163   2.944  1.00  0.00     0.037 A 
HETATM   23  C   UNL     1      43.000 -18.279   2.111  1.00  0.00     0.004 A 
HETATM   24  C   UNL     1      42.636 -17.016   2.583  1.00  0.00     0.014 A 
BRANCH  21  25
HETATM   25  O   UNL     1      44.686 -19.750   4.958  1.00  0.00    -0.356 OA
HETATM   26  C   UNL     1      43.971 -20.934   5.288  1.00  0.00     0.210 C 
ENDBRANCH  21  25
ENDBRANCH   1  19
TORSDOF 5
ENDMDL
MODEL 2
REMARK VINA RESULT:      -8.0      1.314      2.040
REMARK  5 active torsions:
REMARK  status: ('A' for Active; 'I' for Inactive)
REMARK    1  A    between atoms: O_2  and  C_3 
REMARK    2  A    between atoms: C_5  and  C_6 
REMARK    3  A    between atoms: C_10  and  C_11 
REMARK       I    between atoms: C_11  and  N_12 
REMARK    4  A    between atoms: N_12  and  C_13 
REMARK    5  A    between atoms: C_15  and  O_16 
ROOT
HETATM    1  C   UNL     1      43.431 -16.501   5.001  1.00  0.00     0.063 A 
HETATM    2  N   UNL     1      43.127 -15.794   3.864  1.00  0.00    -0.277 N 
HETATM    3  H   UNL     1      42.951 -16.166   2.937  1.00  0.00     0.189 HD
HETATM    4  N   UNL     1      43.038 -14.462   4.037  1.00  0.00    -0.169 NA
HETATM    5  C   UNL     1      43.270 -14.293   5.355  1.00  0.00     0.147 A 
HETATM    6  C   UNL     1      43.526 -15.536   5.986  1.00  0.00     0.071 A 
ENDROOT
BRANCH   5   7
HETATM    7  C   UNL     1      43.233 -12.964   5.993  1.00  0.00     0.276 C 
HETATM    8  N   UNL     1      44.379 -12.718   6.725  1.00  0.00    -0.322 N 
HETATM    9  H   UNL     1      45.031 -13.500   6.720  1.00  0.00     0.169 HD
HETATM   10  O   UNL     1      42.275 -12.212   5.849  1.00  0.00    -0.266 OA
BRANCH   8  11
HETATM   11  C   UNL     1      44.738 -11.561   7.435  1.00  0.00     0.037 A 
HETATM   12  C   UNL     1      43.957 -10.993   8.447  1.00  0.00     0.066 A 
HETATM   13  C   UNL     1      44.374  -9.827   9.097  1.00  0.00     0.070 A 
HETATM   14  C   UNL     1      45.588  -9.237   8.738  1.00  0.00     0.037 A 
HETATM   15  C   UNL     1      46.374  -9.794   7.734  1.00  0.00     0.005 A 
HETATM   16  C   UNL     1      45.949 -10.952   7.083  1.00  0.00     0.029 A 
BRANCH  13  17
HETATM   17  O   UNL     1      43.695  -9.174  10.090  1.00  0.00    -0.356 OA
HETATM   18  C   UNL     1      42.275  -9.266  10.065  1.00  0.00     0.210 C 
ENDBRANCH  13  17
ENDBRANCH   8  11
ENDBRANCH   5   7
BRANCH   1  19
HETATM   19  C   UNL     1      43.562 -17.959   5.053  1.00  0.00    -0.005 A 
HETATM   20  C   UNL     1      43.750 -18.692   3.867  1.00  0.00     0.050 A 
HETATM   21  C   UNL     1      43.884 -20.083   3.892  1.00  0.00     0.069 A 
HETATM   22  C   UNL     1      43.835 -20.752   5.115  1.00  0.00     0.037 A 
HETATM   23  C   UNL     1      43.643 -20.046   6.300  1.00  0.00     0.004 A 
HETATM   24  C   UNL     1      43.503 -18.656   6.268  1.00  0.00     0.014 A 
BRANCH  21  25
HETATM   25  O   UNL     1      44.071 -20.894   2.806  1.00  0.00    -0.356 OA
HETATM   26  C   UNL     1      43.536 -20.446   1.567  1.00  0.00     0.210 C 
ENDBRANCH  21  25
ENDBRANCH   1  19
TORSDOF 5
ENDMDL
MODEL 3
REMARK VINA RESULT:      -7.6      5.354      8.584
REMARK  5 active torsions:
REMARK  status: ('A' for Active; 'I' for Inactive)
REMARK    1  A    between atoms: O_2  and  C_3 
REMARK    2  A    between atoms: C_5  and  C_6 
REMARK    3  A    between atoms: C_10  and  C_11 
REMARK       I    between atoms: C_11  and  N_12 
REMARK    4  A    between atoms: N_12  and  C_13 
REMARK    5  A    between atoms: C_15  and  O_16 
ROOT
HETATM    1  C   UNL     1      42.683 -15.533   2.890  1.00  0.00     0.063 A 
HETATM    2  N   UNL     1      42.865 -14.243   3.321  1.00  0.00    -0.277 N 
HETATM    3  H   UNL     1      43.384 -13.933   4.134  1.00  0.00     0.189 HD
HETATM    4  N   UNL     1      42.294 -13.305   2.542  1.00  0.00    -0.169 NA
HETATM    5  C   UNL     1      41.734 -14.014   1.541  1.00  0.00     0.147 A 
HETATM    6  C   UNL     1      41.948 -15.403   1.727  1.00  0.00     0.071 A 
ENDROOT
BRANCH   5   7
HETATM    7  C   UNL     1      41.020 -13.366   0.425  1.00  0.00     0.276 C 
HETATM    8  N   UNL     1      40.106 -14.222  -0.160  1.00  0.00    -0.322 N 
HETATM    9  H   UNL     1      40.103 -15.149   0.259  1.00  0.00     0.169 HD
HETATM   10  O   UNL     1      41.253 -12.206   0.105  1.00  0.00    -0.266 OA
BRANCH   8  11
HETATM   11  C   UNL     1      39.211 -13.967  -1.211  1.00  0.00     0.037 A 
HETATM   12  C   UNL     1      38.426 -12.812  -1.304  1.00  0.00     0.066 A 
HETATM   13  C   UNL     1      37.542 -12.638  -2.374  1.00  0.00     0.070 A 
HETATM   14  C   UNL     1      37.457 -13.622  -3.362  1.00  0.00     0.037 A 
HETATM   15  C   UNL     1      38.234 -14.774  -3.281  1.00  0.00     0.005 A 
HETATM   16  C   UNL     1      39.107 -14.946  -2.207  1.00  0.00     0.029 A 
BRANCH  13  17
HETATM   17  O   UNL     1      36.718 -11.563  -2.569  1.00  0.00    -0.356 OA
HETATM   18  C   UNL     1      36.801 -10.509  -1.616  1.00  0.00     0.210 C 
ENDBRANCH  13  17
ENDBRANCH   8  11
ENDBRANCH   5   7
BRANCH   1  19
HETATM   19  C   UNL     1      43.226 -16.712   3.570  1.00  0.00    -0.005 A 
HETATM   20  C   UNL     1      43.277 -17.949   2.901  1.00  0.00     0.050 A 
HETATM   21  C   UNL     1      43.798 -19.085   3.526  1.00  0.00     0.069 A 
HETATM   22  C   UNL     1      44.277 -18.988   4.832  1.00  0.00     0.037 A 
HETATM   23  C   UNL     1      44.230 -17.774   5.514  1.00  0.00     0.004 A 
HETATM   24  C   UNL     1      43.703 -16.642   4.887  1.00  0.00     0.014 A 
BRANCH  21  25
HETATM   25  O   UNL     1      43.897 -20.333   2.975  1.00  0.00    -0.356 OA
HETATM   26  C   UNL     1      43.548 -20.462   1.602  1.00  0.00     0.210 C 
ENDBRANCH  21  25
ENDBRANCH   1  19
TORSDOF 5
ENDMDL
MODEL 4
REMARK VINA RESULT:      -7.5      1.250      8.691
REMARK  5 active torsions:
REMARK  status: ('A' for Active; 'I' for Inactive)
REMARK    1  A    between atoms: O_2  and  C_3 
REMARK    2  A    between atoms: C_5  and  C_6 
REMARK    3  A    between atoms: C_10  and  C_11 
REMARK       I    between atoms: C_11  and  N_12 
REMARK    4  A    between atoms: N_12  and  C_13 
REMARK    5  A    between atoms: C_15  and  O_16 
ROOT
HETATM    1  C   UNL     1      43.382 -11.757   6.808  1.00  0.00     0.063 A 
HETATM    2  N   UNL     1      42.317 -11.275   6.088  1.00  0.00    -0.277 N 
HETATM    3  H   UNL     1      41.955 -10.328   6.083  1.00  0.00     0.189 HD
HETATM    4  N   UNL     1      41.722 -12.182   5.291  1.00  0.00    -0.169 NA
HETATM    5  C   UNL     1      42.447 -13.303   5.480  1.00  0.00     0.147 A 
HETATM    6  C   UNL     1      43.482 -13.080   6.423  1.00  0.00     0.071 A 
ENDROOT
BRANCH   5   7
HETATM    7  C   UNL     1      42.156 -14.556   4.760  1.00  0.00     0.276 C 
HETATM    8  N   UNL     1      43.289 -15.331   4.607  1.00  0.00    -0.322 N 
HETATM    9  H   UNL     1      44.125 -14.894   4.989  1.00  0.00     0.169 HD
HETATM   10  O   UNL     1      41.023 -14.823   4.373  1.00  0.00    -0.266 OA
BRANCH   8  11
HETATM   11  C   UNL     1      43.414 -16.601   4.021  1.00  0.00     0.037 A 
HETATM   12  C   UNL     1      43.792 -17.750   4.724  1.00  0.00     0.066 A 
HETATM   13  C   UNL     1      43.913 -18.978   4.066  1.00  0.00     0.070 A 
HETATM   14  C   UNL     1      43.639 -19.056   2.699  1.00  0.00     0.037 A 
HETATM   15  C   UNL     1      43.260 -17.919   1.989  1.00  0.00     0.005 A 
HETATM   16  C   UNL     1      43.151 -16.696   2.648  1.00  0.00     0.029 A 
BRANCH  13  17
HETATM   17  O   UNL     1      44.284 -20.165   4.639  1.00  0.00    -0.356 OA
HETATM   18  C   UNL     1      43.804 -20.419   5.955  1.00  0.00     0.210 C 
ENDBRANCH  13  17
ENDBRANCH   8  11
ENDBRANCH   5   7
BRANCH   1  19
HETATM   19  C   UNL     1      44.188 -10.948   7.726  1.00  0.00    -0.005 A 
HETATM   20  C   UNL     1      43.777 -10.777   9.060  1.00  0.00     0.050 A 
HETATM   21  C   UNL     1      44.533 -10.015   9.955  1.00  0.00     0.069 A 
HETATM   22  C   UNL     1      45.716  -9.420   9.517  1.00  0.00     0.037 A 
HETATM   23  C   UNL     1      46.137  -9.572   8.198  1.00  0.00     0.004 A 
HETATM   24  C   UNL     1      45.374 -10.329   7.306  1.00  0.00     0.014 A 
BRANCH  21  25
HETATM   25  O   UNL     1      44.231  -9.782  11.270  1.00  0.00    -0.356 OA
HETATM   26  C   UNL     1      43.560  -8.566  11.572  1.00  0.00     0.210 C 
ENDBRANCH  21  25
ENDBRANCH   1  19
TORSDOF 5
ENDMDL
MODEL 5
REMARK VINA RESULT:      -7.3      5.386      8.720
REMARK  5 active torsions:
REMARK  status: ('A' for Active; 'I' for Inactive)
REMARK    1  A    between atoms: O_2  and  C_3 
REMARK    2  A    between atoms: C_5  and  C_6 
REMARK    3  A    between atoms: C_10  and  C_11 
REMARK       I    between atoms: C_11  and  N_12 
REMARK    4  A    between atoms: N_12  and  C_13 
REMARK    5  A    between atoms: C_15  and  O_16 
ROOT
HETATM    1  C   UNL     1      42.632 -15.452   2.799  1.00  0.00     0.063 A 
HETATM    2  N   UNL     1      42.930 -14.170   3.191  1.00  0.00    -0.277 N 
HETATM    3  H   UNL     1      43.510 -13.885   3.971  1.00  0.00     0.189 HD
HETATM    4  N   UNL     1      42.392 -13.208   2.419  1.00  0.00    -0.169 NA
HETATM    5  C   UNL     1      41.733 -13.892   1.463  1.00  0.00     0.147 A 
HETATM    6  C   UNL     1      41.852 -15.289   1.670  1.00  0.00     0.071 A 
ENDROOT
BRANCH   5   7
HETATM    7  C   UNL     1      41.015 -13.214   0.368  1.00  0.00     0.276 C 
HETATM    8  N   UNL     1      40.031 -14.020  -0.172  1.00  0.00    -0.322 N 
HETATM    9  H   UNL     1      39.990 -14.942   0.257  1.00  0.00     0.169 HD
HETATM   10  O   UNL     1      41.301 -12.072   0.026  1.00  0.00    -0.266 OA
BRANCH   8  11
HETATM   11  C   UNL     1      39.111 -13.723  -1.191  1.00  0.00     0.037 A 
HETATM   12  C   UNL     1      38.321 -12.569  -1.216  1.00  0.00     0.066 A 
HETATM   13  C   UNL     1      37.413 -12.352  -2.257  1.00  0.00     0.070 A 
HETATM   14  C   UNL     1      37.308 -13.291  -3.285  1.00  0.00     0.037 A 
HETATM   15  C   UNL     1      38.091 -14.442  -3.272  1.00  0.00     0.005 A 
HETATM   16  C   UNL     1      38.988 -14.658  -2.227  1.00  0.00     0.029 A 
BRANCH  13  17
HETATM   17  O   UNL     1      36.580 -11.273  -2.386  1.00  0.00    -0.356 OA
HETATM   18  C   UNL     1      35.638 -11.313  -3.452  1.00  0.00     0.210 C 
ENDBRANCH  13  17
ENDBRANCH   8  11
ENDBRANCH   5   7
BRANCH   1  19
HETATM   19  C   UNL     1      43.120 -16.655   3.478  1.00  0.00    -0.005 A 
HETATM   20  C   UNL     1      43.108 -16.723   4.884  1.00  0.00     0.050 A 
HETATM   21  C   UNL     1      43.562 -17.863   5.553  1.00  0.00     0.069 A 
HETATM   22  C   UNL     1      44.030 -18.949   4.814  1.00  0.00     0.037 A 
HETATM   23  C   UNL     1      44.056 -18.899   3.423  1.00  0.00     0.004 A 
HETATM   24  C   UNL     1      43.606 -17.755   2.758  1.00  0.00     0.014 A 
BRANCH  21  25
HETATM   25  O   UNL     1      43.596 -18.040   6.910  1.00  0.00    -0.356 OA
HETATM   26  C   UNL     1      43.795 -16.879   7.707  1.00  0.00     0.210 C 
ENDBRANCH  21  25
ENDBRANCH   1  19
TORSDOF 5
ENDMDL
MODEL 6
REMARK VINA RESULT:      -7.3      5.421      7.681
REMARK  5 active torsions:
REMARK  status: ('A' for Active; 'I' for Inactive)
REMARK    1  A    between atoms: O_2  and  C_3 
REMARK    2  A    between atoms: C_5  and  C_6 
REMARK    3  A    between atoms: C_10  and  C_11 
REMARK       I    between atoms: C_11  and  N_12 
REMARK    4  A    between atoms: N_12  and  C_13 
REMARK    5  A    between atoms: C_15  and  O_16 
ROOT
HETATM    1  C   UNL     1      41.797 -15.995   2.093  1.00  0.00     0.063 A 
HETATM    2  N   UNL     1      40.541 -16.364   1.679  1.00  0.00    -0.277 N 
HETATM    3  H   UNL     1      40.079 -17.253   1.833  1.00  0.00     0.189 HD
HETATM    4  N   UNL     1      39.863 -15.407   1.017  1.00  0.00    -0.169 NA
HETATM    5  C   UNL     1      40.706 -14.356   1.020  1.00  0.00     0.147 A 
HETATM    6  C   UNL     1      41.922 -14.685   1.672  1.00  0.00     0.071 A 
ENDROOT
BRANCH   5   7
HETATM    7  C   UNL     1      40.344 -13.058   0.418  1.00  0.00     0.276 C 
HETATM    8  N   UNL     1      41.203 -12.715  -0.608  1.00  0.00    -0.322 N 
HETATM    9  H   UNL     1      41.945 -13.397  -0.752  1.00  0.00     0.169 HD
HETATM   10  O   UNL     1      39.383 -12.413   0.822  1.00  0.00    -0.266 OA
BRANCH   8  11
HETATM   11  C   UNL     1      41.164 -11.590  -1.448  1.00  0.00     0.037 A 
HETATM   12  C   UNL     1      41.491 -10.295  -1.032  1.00  0.00     0.066 A 
HETATM   13  C   UNL     1      41.411  -9.221  -1.924  1.00  0.00     0.070 A 
HETATM   14  C   UNL     1      41.015  -9.451  -3.243  1.00  0.00     0.037 A 
HETATM   15  C   UNL     1      40.689 -10.736  -3.669  1.00  0.00     0.005 A 
HETATM   16  C   UNL     1      40.762 -11.802  -2.773  1.00  0.00     0.029 A 
BRANCH  13  17
HETATM   17  O   UNL     1      41.693  -7.913  -1.635  1.00  0.00    -0.356 OA
HETATM   18  C   UNL     1      43.045  -7.603  -1.313  1.00  0.00     0.210 C 
ENDBRANCH  13  17
ENDBRANCH   8  11
ENDBRANCH   5   7
BRANCH   1  19
HETATM   19  C   UNL     1      42.705 -16.866   2.843  1.00  0.00    -0.005 A 
HETATM   20  C   UNL     1      43.139 -16.490   4.127  1.00  0.00     0.050 A 
HETATM   21  C   UNL     1      44.000 -17.308   4.865  1.00  0.00     0.069 A 
HETATM   22  C   UNL     1      44.431 -18.516   4.317  1.00  0.00     0.037 A 
HETATM   23  C   UNL     1      44.018 -18.903   3.044  1.00  0.00     0.004 A 
HETATM   24  C   UNL     1      43.162 -18.079   2.309  1.00  0.00     0.014 A 
BRANCH  21  25
HETATM   25  O   UNL     1      44.484 -17.045   6.117  1.00  0.00    -0.356 OA
HETATM   26  C   UNL     1      43.581 -16.463   7.049  1.00  0.00     0.210 C 
ENDBRANCH  21  25
ENDBRANCH   1  19
TORSDOF 5
ENDMDL
MODEL 7
REMARK VINA RESULT:      -7.2      2.681      9.845
REMARK  5 active torsions:
REMARK  status: ('A' for Active; 'I' for Inactive)
REMARK    1  A    between atoms: O_2  and  C_3 
REMARK    2  A    between atoms: C_5  and  C_6 
REMARK    3  A    between atoms: C_10  and  C_11 
REMARK       I    between atoms: C_11  and  N_12 
REMARK    4  A    between atoms: N_12  and  C_13 
REMARK    5  A    between atoms: C_15  and  O_16 
ROOT
HETATM    1  C   UNL     1      43.944  -9.206  10.134  1.00  0.00     0.063 A 
HETATM    2  N   UNL     1      45.096  -9.898  10.418  1.00  0.00    -0.277 N 
HETATM    3  H   UNL     1      45.673  -9.818  11.247  1.00  0.00     0.189 HD
HETATM    4  N   UNL     1      45.460 -10.790   9.478  1.00  0.00    -0.169 NA
HETATM    5  C   UNL     1      44.488 -10.695   8.549  1.00  0.00     0.147 A 
HETATM    6  C   UNL     1      43.532  -9.716   8.917  1.00  0.00     0.071 A 
ENDROOT
BRANCH   5   7
HETATM    7  C   UNL     1      44.475 -11.539   7.339  1.00  0.00     0.276 C 
HETATM    8  N   UNL     1      43.605 -12.604   7.470  1.00  0.00    -0.322 N 
HETATM    9  H   UNL     1      43.148 -12.637   8.379  1.00  0.00     0.169 HD
HETATM   10  O   UNL     1      45.173 -11.273   6.367  1.00  0.00    -0.266 OA
BRANCH   8  11
HETATM   11  C   UNL     1      43.281 -13.596   6.530  1.00  0.00     0.037 A 
HETATM   12  C   UNL     1      43.844 -14.877   6.523  1.00  0.00     0.066 A 
HETATM   13  C   UNL     1      43.484 -15.806   5.542  1.00  0.00     0.070 A 
HETATM   14  C   UNL     1      42.543 -15.452   4.572  1.00  0.00     0.037 A 
HETATM   15  C   UNL     1      41.975 -14.181   4.571  1.00  0.00     0.005 A 
HETATM   16  C   UNL     1      42.344 -13.256   5.546  1.00  0.00     0.029 A 
BRANCH  13  17
HETATM   17  O   UNL     1      43.971 -17.080   5.424  1.00  0.00    -0.356 OA
HETATM   18  C   UNL     1      43.407 -18.065   6.282  1.00  0.00     0.210 C 
ENDBRANCH  13  17
ENDBRANCH   8  11
ENDBRANCH   5   7
BRANCH   1  19
HETATM   19  C   UNL     1      43.350  -8.200  11.017  1.00  0.00    -0.005 A 
HETATM   20  C   UNL     1      43.350  -8.397  12.410  1.00  0.00     0.050 A 
HETATM   21  C   UNL     1      42.796  -7.448  13.273  1.00  0.00     0.069 A 
HETATM   22  C   UNL     1      42.238  -6.285  12.742  1.00  0.00     0.037 A 
HETATM   23  C   UNL     1      42.221  -6.074  11.366  1.00  0.00     0.004 A 
HETATM   24  C   UNL     1      42.772  -7.029  10.507  1.00  0.00     0.014 A 
BRANCH  21  25
HETATM   25  O   UNL     1      42.741  -7.534  14.638  1.00  0.00    -0.356 OA
HETATM   26  C   UNL     1      41.612  -8.191  15.198  1.00  0.00     0.210 C 
ENDBRANCH  21  25
ENDBRANCH   1  19
TORSDOF 5
ENDMDL
MODEL 8
REMARK VINA RESULT:      -7.1      2.654      9.957
REMARK  5 active torsions:
REMARK  status: ('A' for Active; 'I' for Inactive)
REMARK    1  A    between atoms: O_2  and  C_3 
REMARK    2  A    between atoms: C_5  and  C_6 
REMARK    3  A    between atoms: C_10  and  C_11 
REMARK       I    between atoms: C_11  and  N_12 
REMARK    4  A    between atoms: N_12  and  C_13 
REMARK    5  A    between atoms: C_15  and  O_16 
ROOT
HETATM    1  C   UNL     1      43.997  -9.518   9.801  1.00  0.00     0.063 A 
HETATM    2  N   UNL     1      45.302  -9.940   9.745  1.00  0.00    -0.277 N 
HETATM    3  H   UNL     1      46.064  -9.666  10.354  1.00  0.00     0.189 HD
HETATM    4  N   UNL     1      45.561 -10.836   8.774  1.00  0.00    -0.169 NA
HETATM    5  C   UNL     1      44.364 -11.027   8.184  1.00  0.00     0.147 A 
HETATM    6  C   UNL     1      43.369 -10.219   8.790  1.00  0.00     0.071 A 
ENDROOT
BRANCH   5   7
HETATM    7  C   UNL     1      44.182 -11.976   7.070  1.00  0.00     0.276 C 
HETATM    8  N   UNL     1      43.484 -13.100   7.468  1.00  0.00    -0.322 N 
HETATM    9  H   UNL     1      43.243 -13.091   8.456  1.00  0.00     0.169 HD
HETATM   10  O   UNL     1      44.617 -11.738   5.949  1.00  0.00    -0.266 OA
BRANCH   8  11
HETATM   11  C   UNL     1      43.076 -14.201   6.696  1.00  0.00     0.037 A 
HETATM   12  C   UNL     1      43.901 -15.289   6.392  1.00  0.00     0.066 A 
HETATM   13  C   UNL     1      43.427 -16.341   5.601  1.00  0.00     0.070 A 
HETATM   14  C   UNL     1      42.114 -16.306   5.126  1.00  0.00     0.037 A 
HETATM   15  C   UNL     1      41.283 -15.230   5.425  1.00  0.00     0.005 A 
HETATM   16  C   UNL     1      41.764 -14.180   6.206  1.00  0.00     0.029 A 
BRANCH  13  17
HETATM   17  O   UNL     1      44.139 -17.449   5.227  1.00  0.00    -0.356 OA
HETATM   18  C   UNL     1      43.800 -18.036   3.975  1.00  0.00     0.210 C 
ENDBRANCH  13  17
ENDBRANCH   8  11
ENDBRANCH   5   7
BRANCH   1  19
HETATM   19  C   UNL     1      43.483  -8.561  10.784  1.00  0.00    -0.005 A 
HETATM   20  C   UNL     1      42.882  -7.364  10.353  1.00  0.00     0.050 A 
HETATM   21  C   UNL     1      42.379  -6.439  11.272  1.00  0.00     0.069 A 
HETATM   22  C   UNL     1      42.471  -6.711  12.637  1.00  0.00     0.037 A 
HETATM   23  C   UNL     1      43.068  -7.888  13.084  1.00  0.00     0.004 A 
HETATM   24  C   UNL     1      43.575  -8.806  12.162  1.00  0.00     0.014 A 
BRANCH  21  25
HETATM   25  O   UNL     1      41.776  -5.248  10.969  1.00  0.00    -0.356 OA
HETATM   26  C   UNL     1      42.620  -4.193  10.527  1.00  0.00     0.210 C 
ENDBRANCH  21  25
ENDBRANCH   1  19
TORSDOF 5
ENDMDL
MODEL 9
REMARK VINA RESULT:      -7.0      6.095      8.682
REMARK  5 active torsions:
REMARK  status: ('A' for Active; 'I' for Inactive)
REMARK    1  A    between atoms: O_2  and  C_3 
REMARK    2  A    between atoms: C_5  and  C_6 
REMARK    3  A    between atoms: C_10  and  C_11 
REMARK       I    between atoms: C_11  and  N_12 
REMARK    4  A    between atoms: N_12  and  C_13 
REMARK    5  A    between atoms: C_15  and  O_16 
ROOT
HETATM    1  C   UNL     1      41.566 -15.584   2.396  1.00  0.00     0.063 A 
HETATM    2  N   UNL     1      40.667 -14.722   2.973  1.00  0.00    -0.277 N 
HETATM    3  H   UNL     1      40.531 -14.547   3.962  1.00  0.00     0.189 HD
HETATM    4  N   UNL     1      39.910 -14.033   2.099  1.00  0.00    -0.169 NA
HETATM    5  C   UNL     1      40.353 -14.444   0.894  1.00  0.00     0.147 A 
HETATM    6  C   UNL     1      41.376 -15.414   1.037  1.00  0.00     0.071 A 
ENDROOT
BRANCH   5   7
HETATM    7  C   UNL     1      39.810 -13.905  -0.367  1.00  0.00     0.276 C 
HETATM    8  N   UNL     1      39.983 -12.537  -0.452  1.00  0.00    -0.322 N 
HETATM    9  H   UNL     1      40.426 -12.138   0.373  1.00  0.00     0.169 HD
HETATM   10  O   UNL     1      39.283 -14.634  -1.199  1.00  0.00    -0.266 OA
BRANCH   8  11
HETATM   11  C   UNL     1      39.644 -11.671  -1.505  1.00  0.00     0.037 A 
HETATM   12  C   UNL     1      40.581 -11.082  -2.361  1.00  0.00     0.066 A 
HETATM   13  C   UNL     1      40.167 -10.215  -3.377  1.00  0.00     0.070 A 
HETATM   14  C   UNL     1      38.806  -9.949  -3.543  1.00  0.00     0.037 A 
HETATM   15  C   UNL     1      37.865 -10.531  -2.698  1.00  0.00     0.005 A 
HETATM   16  C   UNL     1      38.284 -11.388  -1.681  1.00  0.00     0.029 A 
BRANCH  13  17
HETATM   17  O   UNL     1      40.984  -9.571  -4.267  1.00  0.00    -0.356 OA
HETATM   18  C   UNL     1      40.365  -8.646  -5.154  1.00  0.00     0.210 C 
ENDBRANCH  13  17
ENDBRANCH   8  11
ENDBRANCH   5   7
BRANCH   1  19
HETATM   19  C   UNL     1      42.502 -16.423   3.149  1.00  0.00    -0.005 A 
HETATM   20  C   UNL     1      42.826 -17.710   2.681  1.00  0.00     0.050 A 
HETATM   21  C   UNL     1      43.721 -18.526   3.379  1.00  0.00     0.069 A 
HETATM   22  C   UNL     1      44.304 -18.053   4.554  1.00  0.00     0.037 A 
HETATM   23  C   UNL     1      43.991 -16.784   5.037  1.00  0.00     0.004 A 
HETATM   24  C   UNL     1      43.092 -15.975   4.339  1.00  0.00     0.014 A 
BRANCH  21  25
HETATM   25  O   UNL     1      44.108 -19.788   3.019  1.00  0.00    -0.356 OA
HETATM   26  C   UNL     1      43.508 -20.340   1.855  1.00  0.00     0.210 C 
ENDBRANCH  21  25
ENDBRANCH   1  19
TORSDOF 5
ENDMDL
MODEL 10
REMARK VINA RESULT:      -7.0     16.725     19.218
REMARK  5 active torsions:
REMARK  status: ('A' for Active; 'I' for Inactive)
REMARK    1  A    between atoms: O_2  and  C_3 
REMARK    2  A    between atoms: C_5  and  C_6 
REMARK    3  A    between atoms: C_10  and  C_11 
REMARK       I    between atoms: C_11  and  N_12 
REMARK    4  A    between atoms: N_12  and  C_13 
REMARK    5  A    between atoms: C_15  and  O_16 
ROOT
HETATM    1  C   UNL     1      48.393 -29.645   2.549  1.00  0.00     0.063 A 
HETATM    2  N   UNL     1      48.046 -28.324   2.683  1.00  0.00    -0.277 N 
HETATM    3  H   UNL     1      48.157 -27.739   3.503  1.00  0.00     0.189 HD
HETATM    4  N   UNL     1      47.521 -27.766   1.576  1.00  0.00    -0.169 NA
HETATM    5  C   UNL     1      47.550 -28.762   0.668  1.00  0.00     0.147 A 
HETATM    6  C   UNL     1      48.078 -29.948   1.237  1.00  0.00     0.071 A 
ENDROOT
BRANCH   5   7
HETATM    7  C   UNL     1      47.091 -28.571  -0.721  1.00  0.00     0.276 C 
HETATM    8  N   UNL     1      46.305 -29.624  -1.147  1.00  0.00    -0.322 N 
HETATM    9  H   UNL     1      46.202 -30.355  -0.445  1.00  0.00     0.169 HD
HETATM   10  O   UNL     1      47.400 -27.575  -1.365  1.00  0.00    -0.266 OA
BRANCH   8  11
HETATM   11  C   UNL     1      45.649 -29.791  -2.377  1.00  0.00     0.037 A 
HETATM   12  C   UNL     1      46.191 -30.490  -3.461  1.00  0.00     0.066 A 
HETATM   13  C   UNL     1      45.483 -30.598  -4.662  1.00  0.00     0.070 A 
HETATM   14  C   UNL     1      44.220 -30.014  -4.771  1.00  0.00     0.037 A 
HETATM   15  C   UNL     1      43.669 -29.318  -3.698  1.00  0.00     0.005 A 
HETATM   16  C   UNL     1      44.383 -29.206  -2.506  1.00  0.00     0.029 A 
BRANCH  13  17
HETATM   17  O   UNL     1      45.911 -31.243  -5.792  1.00  0.00    -0.356 OA
HETATM   18  C   UNL     1      44.916 -31.587  -6.750  1.00  0.00     0.210 C 
ENDBRANCH  13  17
ENDBRANCH   8  11
ENDBRANCH   5   7
BRANCH   1  19
HETATM   19  C   UNL     1      48.995 -30.450   3.614  1.00  0.00    -0.005 A 
HETATM   20  C   UNL     1      50.337 -30.240   3.982  1.00  0.00     0.050 A 
HETATM   21  C   UNL     1      50.931 -30.991   5.001  1.00  0.00     0.069 A 
HETATM   22  C   UNL     1      50.178 -31.960   5.663  1.00  0.00     0.037 A 
HETATM   23  C   UNL     1      48.850 -32.188   5.309  1.00  0.00     0.004 A 
HETATM   24  C   UNL     1      48.263 -31.438   4.287  1.00  0.00     0.014 A 
BRANCH  21  25
HETATM   25  O   UNL     1      52.221 -30.873   5.440  1.00  0.00    -0.356 OA
HETATM   26  C   UNL     1      52.754 -31.964   6.179  1.00  0.00     0.210 C 
ENDBRANCH  21  25
ENDBRANCH   1  19
TORSDOF 5
ENDMDL
