MODEL 1
REMARK VINA RESULT:      -7.8      0.000      0.000
REMARK  6 active torsions:
REMARK  status: ('A' for Active; 'I' for Inactive)
REMARK    1  A    between atoms: C_6  and  C_7 
REMARK    2  A    between atoms: C_7  and  N_8 
REMARK    3  A    between atoms: C_7  and  C_24 
REMARK       I    between atoms: N_8  and  C_9 
REMARK       I    between atoms: C_9  and  N_10 
REMARK    4  A    between atoms: N_10  and  C_11 
REMARK    5  A    between atoms: C_14  and  C_15 
REMARK    6  A    between atoms: C_24  and  O_25 
ROOT
HETATM    1  N   UNL     1      42.521 -14.825   4.439  1.00  0.00    -0.331 N 
HETATM    2  C   UNL     1      42.975 -14.177   5.566  1.00  0.00     0.321 C 
HETATM    3  N   UNL     1      43.569 -12.983   5.230  1.00  0.00    -0.309 N 
HETATM    4  O   UNL     1      42.841 -14.644   6.688  1.00  0.00    -0.247 OA
HETATM    5  H   UNL     1      42.310 -14.246   3.641  1.00  0.00     0.165 HD
HETATM    6  H   UNL     1      43.844 -12.893   4.262  1.00  0.00     0.170 HD
ENDROOT
BRANCH   1   7
HETATM    7  C   UNL     1      41.795 -16.082   4.536  1.00  0.00     0.161 C 
BRANCH   7   8
HETATM    8  C   UNL     1      42.752 -17.131   4.048  1.00  0.00     0.056 A 
HETATM    9  N   UNL     1      43.448 -17.970   4.887  1.00  0.00    -0.277 N 
HETATM   10  C   UNL     1      43.400 -18.012   6.330  1.00  0.00     0.179 C 
HETATM   11  N   UNL     1      44.273 -18.813   4.234  1.00  0.00    -0.185 NA
HETATM   12  C   UNL     1      44.073 -18.530   2.949  1.00  0.00     0.141 A 
HETATM   13  C   UNL     1      43.147 -17.490   2.771  1.00  0.00     0.050 A 
ENDBRANCH   7   8
BRANCH   7  14
HETATM   14  C   UNL     1      40.469 -16.074   3.740  1.00  0.00     0.198 C 
BRANCH  14  15
HETATM   15  O   UNL     1      40.512 -15.073   2.714  1.00  0.00    -0.394 OA
HETATM   16  C   UNL     1      40.078 -15.590   1.464  1.00  0.00     0.201 C 
ENDBRANCH  14  15
ENDBRANCH   7  14
ENDBRANCH   1   7
BRANCH   3  17
HETATM   17  C   UNL     1      43.995 -11.960   6.099  1.00  0.00     0.036 A 
HETATM   18  C   UNL     1      45.299 -11.829   6.564  1.00  0.00     0.030 A 
HETATM   19  C   UNL     1      45.633 -10.807   7.461  1.00  0.00     0.010 A 
HETATM   20  C   UNL     1      44.678  -9.876   7.911  1.00  0.00    -0.054 A 
HETATM   21  C   UNL     1      43.366 -10.034   7.450  1.00  0.00     0.010 A 
HETATM   22  C   UNL     1      43.030 -11.059   6.554  1.00  0.00     0.030 A 
BRANCH  20  23
HETATM   23  C   UNL     1      45.104  -8.802   8.912  1.00  0.00     0.018 C 
HETATM   24  C   UNL     1      44.125  -7.608   8.959  1.00  0.00     0.009 C 
HETATM   25  C   UNL     1      42.859  -7.915   9.756  1.00  0.00     0.001 C 
HETATM   26  C   UNL     1      43.195  -8.338  11.180  1.00  0.00     0.000 C 
HETATM   27  C   UNL     1      44.152  -9.523  11.199  1.00  0.00     0.001 C 
HETATM   28  C   UNL     1      45.404  -9.271  10.354  1.00  0.00     0.009 C 
ENDBRANCH  20  23
ENDBRANCH   3  17
TORSDOF 6
ENDMDL
MODEL 2
REMARK VINA RESULT:      -7.4      3.355      9.045
REMARK  6 active torsions:
REMARK  status: ('A' for Active; 'I' for Inactive)
REMARK    1  A    between atoms: C_6  and  C_7 
REMARK    2  A    between atoms: C_7  and  N_8 
REMARK    3  A    between atoms: C_7  and  C_24 
REMARK       I    between atoms: N_8  and  C_9 
REMARK       I    between atoms: C_9  and  N_10 
REMARK    4  A    between atoms: N_10  and  C_11 
REMARK    5  A    between atoms: C_14  and  C_15 
REMARK    6  A    between atoms: C_24  and  O_25 
ROOT
HETATM    1  N   UNL     1      42.651  -9.358   7.628  1.00  0.00    -0.331 N 
HETATM    2  C   UNL     1      42.785 -10.538   6.930  1.00  0.00     0.321 C 
HETATM    3  N   UNL     1      42.041 -10.503   5.774  1.00  0.00    -0.309 N 
HETATM    4  O   UNL     1      43.483 -11.459   7.330  1.00  0.00    -0.247 OA
HETATM    5  H   UNL     1      42.407  -8.542   7.088  1.00  0.00     0.165 HD
HETATM    6  H   UNL     1      41.318  -9.799   5.746  1.00  0.00     0.170 HD
ENDROOT
BRANCH   1   7
HETATM    7  C   UNL     1      43.394  -9.123   8.856  1.00  0.00     0.161 C 
BRANCH   7   8
HETATM    8  C   UNL     1      42.382  -9.244   9.959  1.00  0.00     0.056 A 
HETATM    9  N   UNL     1      42.589  -9.989  11.097  1.00  0.00    -0.277 N 
HETATM   10  C   UNL     1      43.759 -10.762  11.444  1.00  0.00     0.179 C 
HETATM   11  N   UNL     1      41.536  -9.981  11.938  1.00  0.00    -0.185 NA
HETATM   12  C   UNL     1      40.652  -9.185  11.342  1.00  0.00     0.141 A 
HETATM   13  C   UNL     1      41.117  -8.704  10.107  1.00  0.00     0.050 A 
ENDBRANCH   7   8
BRANCH   7  14
HETATM   14  C   UNL     1      44.121  -7.758   8.868  1.00  0.00     0.198 C 
BRANCH  14  15
HETATM   15  O   UNL     1      45.444  -7.896   8.333  1.00  0.00    -0.394 OA
HETATM   16  C   UNL     1      45.964  -9.199   8.560  1.00  0.00     0.201 C 
ENDBRANCH  14  15
ENDBRANCH   7  14
ENDBRANCH   1   7
BRANCH   3  17
HETATM   17  C   UNL     1      42.052 -11.433   4.717  1.00  0.00     0.036 A 
HETATM   18  C   UNL     1      40.945 -12.182   4.331  1.00  0.00     0.030 A 
HETATM   19  C   UNL     1      41.050 -13.118   3.294  1.00  0.00     0.010 A 
HETATM   20  C   UNL     1      42.257 -13.324   2.602  1.00  0.00    -0.054 A 
HETATM   21  C   UNL     1      43.365 -12.577   3.016  1.00  0.00     0.010 A 
HETATM   22  C   UNL     1      43.264 -11.642   4.055  1.00  0.00     0.030 A 
BRANCH  20  23
HETATM   23  C   UNL     1      42.308 -14.382   1.499  1.00  0.00     0.018 C 
HETATM   24  C   UNL     1      43.522 -15.328   1.636  1.00  0.00     0.009 C 
HETATM   25  C   UNL     1      43.321 -16.392   2.713  1.00  0.00     0.001 C 
HETATM   26  C   UNL     1      42.072 -17.222   2.439  1.00  0.00     0.000 C 
HETATM   27  C   UNL     1      40.836 -16.342   2.305  1.00  0.00     0.001 C 
HETATM   28  C   UNL     1      41.030 -15.222   1.278  1.00  0.00     0.009 C 
ENDBRANCH  20  23
ENDBRANCH   3  17
TORSDOF 6
ENDMDL
MODEL 3
REMARK VINA RESULT:      -7.4      5.768      8.841
REMARK  6 active torsions:
REMARK  status: ('A' for Active; 'I' for Inactive)
REMARK    1  A    between atoms: C_6  and  C_7 
REMARK    2  A    between atoms: C_7  and  N_8 
REMARK    3  A    between atoms: C_7  and  C_24 
REMARK       I    between atoms: N_8  and  C_9 
REMARK       I    between atoms: C_9  and  N_10 
REMARK    4  A    between atoms: N_10  and  C_11 
REMARK    5  A    between atoms: C_14  and  C_15 
REMARK    6  A    between atoms: C_24  and  O_25 
ROOT
HETATM    1  N   UNL     1      39.067 -13.373   0.220  1.00  0.00    -0.331 N 
HETATM    2  C   UNL     1      40.248 -13.593   0.894  1.00  0.00     0.321 C 
HETATM    3  N   UNL     1      40.104 -14.622   1.796  1.00  0.00    -0.309 N 
HETATM    4  O   UNL     1      41.256 -12.935   0.681  1.00  0.00    -0.247 OA
HETATM    5  H   UNL     1      38.436 -14.156   0.152  1.00  0.00     0.165 HD
HETATM    6  H   UNL     1      39.153 -14.854   2.040  1.00  0.00     0.170 HD
ENDROOT
BRANCH   1   7
HETATM    7  C   UNL     1      38.981 -12.377  -0.836  1.00  0.00     0.161 C 
BRANCH   7   8
HETATM    8  C   UNL     1      38.171 -11.253  -0.255  1.00  0.00     0.056 A 
HETATM    9  N   UNL     1      38.321  -9.939  -0.632  1.00  0.00    -0.277 N 
HETATM   10  C   UNL     1      39.235  -9.402  -1.614  1.00  0.00     0.179 C 
HETATM   11  N   UNL     1      37.513  -9.096   0.040  1.00  0.00    -0.185 NA
HETATM   12  C   UNL     1      36.807  -9.893   0.839  1.00  0.00     0.141 A 
HETATM   13  C   UNL     1      37.176 -11.241   0.707  1.00  0.00     0.050 A 
ENDBRANCH   7   8
BRANCH   7  14
HETATM   14  C   UNL     1      38.366 -12.935  -2.141  1.00  0.00     0.198 C 
BRANCH  14  15
HETATM   15  O   UNL     1      39.222 -13.938  -2.703  1.00  0.00    -0.394 OA
HETATM   16  C   UNL     1      38.489 -15.094  -3.085  1.00  0.00     0.201 C 
ENDBRANCH  14  15
ENDBRANCH   7  14
ENDBRANCH   1   7
BRANCH   3  17
HETATM   17  C   UNL     1      41.116 -15.258   2.541  1.00  0.00     0.036 A 
HETATM   18  C   UNL     1      41.670 -14.734   3.704  1.00  0.00     0.030 A 
HETATM   19  C   UNL     1      42.702 -15.411   4.365  1.00  0.00     0.010 A 
HETATM   20  C   UNL     1      43.204 -16.638   3.893  1.00  0.00    -0.054 A 
HETATM   21  C   UNL     1      42.650 -17.141   2.711  1.00  0.00     0.010 A 
HETATM   22  C   UNL     1      41.618 -16.464   2.047  1.00  0.00     0.030 A 
BRANCH  20  23
HETATM   23  C   UNL     1      44.352 -17.309   4.648  1.00  0.00     0.018 C 
HETATM   24  C   UNL     1      44.162 -17.269   6.181  1.00  0.00     0.009 C 
HETATM   25  C   UNL     1      43.163 -18.311   6.678  1.00  0.00     0.001 C 
HETATM   26  C   UNL     1      43.585 -19.716   6.266  1.00  0.00     0.000 C 
HETATM   27  C   UNL     1      43.777 -19.822   4.759  1.00  0.00     0.001 C 
HETATM   28  C   UNL     1      44.724 -18.746   4.218  1.00  0.00     0.009 C 
ENDBRANCH  20  23
ENDBRANCH   3  17
TORSDOF 6
ENDMDL
MODEL 4
REMARK VINA RESULT:      -7.3      4.629      7.993
REMARK  6 active torsions:
REMARK  status: ('A' for Active; 'I' for Inactive)
REMARK    1  A    between atoms: C_6  and  C_7 
REMARK    2  A    between atoms: C_7  and  N_8 
REMARK    3  A    between atoms: C_7  and  C_24 
REMARK       I    between atoms: N_8  and  C_9 
REMARK       I    between atoms: C_9  and  N_10 
REMARK    4  A    between atoms: N_10  and  C_11 
REMARK    5  A    between atoms: C_14  and  C_15 
REMARK    6  A    between atoms: C_24  and  O_25 
ROOT
HETATM    1  N   UNL     1      42.653 -16.664   4.510  1.00  0.00    -0.331 N 
HETATM    2  C   UNL     1      42.457 -16.046   3.294  1.00  0.00     0.321 C 
HETATM    3  N   UNL     1      41.136 -15.691   3.141  1.00  0.00    -0.309 N 
HETATM    4  O   UNL     1      43.367 -15.863   2.498  1.00  0.00    -0.247 OA
HETATM    5  H   UNL     1      41.997 -16.436   5.241  1.00  0.00     0.165 HD
HETATM    6  H   UNL     1      40.487 -16.164   3.753  1.00  0.00     0.170 HD
ENDROOT
BRANCH   1   7
HETATM    7  C   UNL     1      43.981 -17.075   4.937  1.00  0.00     0.161 C 
BRANCH   7   8
HETATM    8  C   UNL     1      43.902 -18.567   5.092  1.00  0.00     0.056 A 
HETATM    9  N   UNL     1      44.065 -19.446   4.047  1.00  0.00    -0.277 N 
HETATM   10  C   UNL     1      44.334 -19.131   2.663  1.00  0.00     0.179 C 
HETATM   11  N   UNL     1      43.924 -20.737   4.409  1.00  0.00    -0.185 NA
HETATM   12  C   UNL     1      43.701 -20.682   5.720  1.00  0.00     0.141 A 
HETATM   13  C   UNL     1      43.668 -19.363   6.200  1.00  0.00     0.050 A 
ENDBRANCH   7   8
BRANCH   7  14
HETATM   14  C   UNL     1      44.443 -16.370   6.233  1.00  0.00     0.198 C 
BRANCH  14  15
HETATM   15  O   UNL     1      43.503 -15.354   6.606  1.00  0.00    -0.394 OA
HETATM   16  C   UNL     1      42.950 -15.603   7.892  1.00  0.00     0.201 C 
ENDBRANCH  14  15
ENDBRANCH   7  14
ENDBRANCH   1   7
BRANCH   3  17
HETATM   17  C   UNL     1      40.574 -14.892   2.127  1.00  0.00     0.036 A 
HETATM   18  C   UNL     1      40.339 -15.337   0.830  1.00  0.00     0.030 A 
HETATM   19  C   UNL     1      39.813 -14.466  -0.133  1.00  0.00     0.010 A 
HETATM   20  C   UNL     1      39.494 -13.130   0.173  1.00  0.00    -0.054 A 
HETATM   21  C   UNL     1      39.756 -12.694   1.476  1.00  0.00     0.010 A 
HETATM   22  C   UNL     1      40.285 -13.563   2.440  1.00  0.00     0.030 A 
BRANCH  20  23
HETATM   23  C   UNL     1      38.950 -12.227  -0.934  1.00  0.00     0.018 C 
HETATM   24  C   UNL     1      39.522 -10.793  -0.869  1.00  0.00     0.009 C 
HETATM   25  C   UNL     1      40.942 -10.699  -1.424  1.00  0.00     0.001 C 
HETATM   26  C   UNL     1      41.002 -11.192  -2.864  1.00  0.00     0.000 C 
HETATM   27  C   UNL     1      40.460 -12.610  -2.992  1.00  0.00     0.001 C 
HETATM   28  C   UNL     1      39.062 -12.753  -2.383  1.00  0.00     0.009 C 
ENDBRANCH  20  23
ENDBRANCH   3  17
TORSDOF 6
ENDMDL
MODEL 5
REMARK VINA RESULT:      -7.3      5.149      8.442
REMARK  6 active torsions:
REMARK  status: ('A' for Active; 'I' for Inactive)
REMARK    1  A    between atoms: C_6  and  C_7 
REMARK    2  A    between atoms: C_7  and  N_8 
REMARK    3  A    between atoms: C_7  and  C_24 
REMARK       I    between atoms: N_8  and  C_9 
REMARK       I    between atoms: C_9  and  N_10 
REMARK    4  A    between atoms: N_10  and  C_11 
REMARK    5  A    between atoms: C_14  and  C_15 
REMARK    6  A    between atoms: C_24  and  O_25 
ROOT
HETATM    1  N   UNL     1      38.964 -12.580  -0.346  1.00  0.00    -0.331 N 
HETATM    2  C   UNL     1      39.926 -13.089   0.498  1.00  0.00     0.321 C 
HETATM    3  N   UNL     1      39.346 -13.593   1.641  1.00  0.00    -0.309 N 
HETATM    4  O   UNL     1      41.116 -13.070   0.222  1.00  0.00    -0.247 OA
HETATM    5  H   UNL     1      38.036 -12.964  -0.255  1.00  0.00     0.165 HD
HETATM    6  H   UNL     1      38.407 -13.274   1.827  1.00  0.00     0.170 HD
ENDROOT
BRANCH   1   7
HETATM    7  C   UNL     1      39.318 -12.047  -1.652  1.00  0.00     0.161 C 
BRANCH   7   8
HETATM    8  C   UNL     1      39.160 -10.558  -1.528  1.00  0.00     0.056 A 
HETATM    9  N   UNL     1      40.222  -9.692  -1.409  1.00  0.00    -0.277 N 
HETATM   10  C   UNL     1      41.629 -10.020  -1.383  1.00  0.00     0.179 C 
HETATM   11  N   UNL     1      39.848  -8.404  -1.280  1.00  0.00    -0.185 NA
HETATM   12  C   UNL     1      38.519  -8.445  -1.355  1.00  0.00     0.141 A 
HETATM   13  C   UNL     1      38.034  -9.755  -1.501  1.00  0.00     0.050 A 
ENDBRANCH   7   8
BRANCH   7  14
HETATM   14  C   UNL     1      38.462 -12.639  -2.796  1.00  0.00     0.198 C 
BRANCH  14  15
HETATM   15  O   UNL     1      39.118 -13.779  -3.367  1.00  0.00    -0.394 OA
HETATM   16  C   UNL     1      38.210 -14.853  -3.571  1.00  0.00     0.201 C 
ENDBRANCH  14  15
ENDBRANCH   7  14
ENDBRANCH   1   7
BRANCH   3  17
HETATM   17  C   UNL     1      39.965 -14.349   2.655  1.00  0.00     0.036 A 
HETATM   18  C   UNL     1      40.333 -15.683   2.514  1.00  0.00     0.030 A 
HETATM   19  C   UNL     1      40.908 -16.377   3.586  1.00  0.00     0.010 A 
HETATM   20  C   UNL     1      41.145 -15.757   4.827  1.00  0.00    -0.054 A 
HETATM   21  C   UNL     1      40.750 -14.421   4.958  1.00  0.00     0.010 A 
HETATM   22  C   UNL     1      40.172 -13.726   3.887  1.00  0.00     0.030 A 
BRANCH  20  23
HETATM   23  C   UNL     1      41.749 -16.581   5.964  1.00  0.00     0.018 C 
HETATM   24  C   UNL     1      42.843 -17.558   5.477  1.00  0.00     0.009 C 
HETATM   25  C   UNL     1      44.176 -16.863   5.209  1.00  0.00     0.001 C 
HETATM   26  C   UNL     1      44.677 -16.136   6.451  1.00  0.00     0.000 C 
HETATM   27  C   UNL     1      43.642 -15.147   6.974  1.00  0.00     0.001 C 
HETATM   28  C   UNL     1      42.274 -15.800   7.190  1.00  0.00     0.009 C 
ENDBRANCH  20  23
ENDBRANCH   3  17
TORSDOF 6
ENDMDL
MODEL 6
REMARK VINA RESULT:      -6.9      4.986      8.381
REMARK  6 active torsions:
REMARK  status: ('A' for Active; 'I' for Inactive)
REMARK    1  A    between atoms: C_6  and  C_7 
REMARK    2  A    between atoms: C_7  and  N_8 
REMARK    3  A    between atoms: C_7  and  C_24 
REMARK       I    between atoms: N_8  and  C_9 
REMARK       I    between atoms: C_9  and  N_10 
REMARK    4  A    between atoms: N_10  and  C_11 
REMARK    5  A    between atoms: C_14  and  C_15 
REMARK    6  A    between atoms: C_24  and  O_25 
ROOT
HETATM    1  N   UNL     1      41.047 -12.996  -1.214  1.00  0.00    -0.331 N 
HETATM    2  C   UNL     1      40.627 -13.504  -0.005  1.00  0.00     0.321 C 
HETATM    3  N   UNL     1      41.592 -14.322   0.536  1.00  0.00    -0.309 N 
HETATM    4  O   UNL     1      39.536 -13.234   0.476  1.00  0.00    -0.247 OA
HETATM    5  H   UNL     1      42.044 -12.933  -1.354  1.00  0.00     0.165 HD
HETATM    6  H   UNL     1      42.291 -14.655  -0.112  1.00  0.00     0.170 HD
ENDROOT
BRANCH   1   7
HETATM    7  C   UNL     1      40.228 -12.050  -1.956  1.00  0.00     0.161 C 
BRANCH   7   8
HETATM    8  C   UNL     1      39.095 -12.861  -2.516  1.00  0.00     0.056 A 
HETATM    9  N   UNL     1      37.780 -12.464  -2.459  1.00  0.00    -0.277 N 
HETATM   10  C   UNL     1      37.250 -11.249  -1.883  1.00  0.00     0.179 C 
HETATM   11  N   UNL     1      36.928 -13.360  -2.995  1.00  0.00    -0.185 NA
HETATM   12  C   UNL     1      37.720 -14.334  -3.437  1.00  0.00     0.141 A 
HETATM   13  C   UNL     1      39.074 -14.085  -3.160  1.00  0.00     0.050 A 
ENDBRANCH   7   8
BRANCH   7  14
HETATM   14  C   UNL     1      41.019 -11.302  -3.055  1.00  0.00     0.198 C 
BRANCH  14  15
HETATM   15  O   UNL     1      40.838  -9.886  -2.919  1.00  0.00    -0.394 OA
HETATM   16  C   UNL     1      40.380  -9.302  -4.131  1.00  0.00     0.201 C 
ENDBRANCH  14  15
ENDBRANCH   7  14
ENDBRANCH   1   7
BRANCH   3  17
HETATM   17  C   UNL     1      41.617 -14.883   1.827  1.00  0.00     0.036 A 
HETATM   18  C   UNL     1      41.357 -14.166   2.991  1.00  0.00     0.030 A 
HETATM   19  C   UNL     1      41.442 -14.789   4.242  1.00  0.00     0.010 A 
HETATM   20  C   UNL     1      41.775 -16.150   4.370  1.00  0.00    -0.054 A 
HETATM   21  C   UNL     1      42.053 -16.852   3.191  1.00  0.00     0.010 A 
HETATM   22  C   UNL     1      41.972 -16.229   1.939  1.00  0.00     0.030 A 
BRANCH  20  23
HETATM   23  C   UNL     1      41.877 -16.760   5.768  1.00  0.00     0.018 C 
HETATM   24  C   UNL     1      43.063 -17.742   5.905  1.00  0.00     0.009 C 
HETATM   25  C   UNL     1      44.403 -17.028   6.066  1.00  0.00     0.001 C 
HETATM   26  C   UNL     1      44.388 -16.096   7.272  1.00  0.00     0.000 C 
HETATM   27  C   UNL     1      43.244 -15.094   7.188  1.00  0.00     0.001 C 
HETATM   28  C   UNL     1      41.891 -15.776   6.959  1.00  0.00     0.009 C 
ENDBRANCH  20  23
ENDBRANCH   3  17
TORSDOF 6
ENDMDL
MODEL 7
REMARK VINA RESULT:      -6.9      3.244      9.156
REMARK  6 active torsions:
REMARK  status: ('A' for Active; 'I' for Inactive)
REMARK    1  A    between atoms: C_6  and  C_7 
REMARK    2  A    between atoms: C_7  and  N_8 
REMARK    3  A    between atoms: C_7  and  C_24 
REMARK       I    between atoms: N_8  and  C_9 
REMARK       I    between atoms: C_9  and  N_10 
REMARK    4  A    between atoms: N_10  and  C_11 
REMARK    5  A    between atoms: C_14  and  C_15 
REMARK    6  A    between atoms: C_24  and  O_25 
ROOT
HETATM    1  N   UNL     1      43.153  -9.884   8.824  1.00  0.00    -0.331 N 
HETATM    2  C   UNL     1      43.699 -10.813   7.965  1.00  0.00     0.321 C 
HETATM    3  N   UNL     1      42.707 -11.525   7.330  1.00  0.00    -0.309 N 
HETATM    4  O   UNL     1      44.906 -10.945   7.825  1.00  0.00    -0.247 OA
HETATM    5  H   UNL     1      42.221  -9.566   8.608  1.00  0.00     0.165 HD
HETATM    6  H   UNL     1      41.798 -11.485   7.768  1.00  0.00     0.170 HD
ENDROOT
BRANCH   1   7
HETATM    7  C   UNL     1      43.998  -8.961   9.565  1.00  0.00     0.161 C 
BRANCH   7   8
HETATM    8  C   UNL     1      43.337  -8.809  10.905  1.00  0.00     0.056 A 
HETATM    9  N   UNL     1      43.281  -9.816  11.840  1.00  0.00    -0.277 N 
HETATM   10  C   UNL     1      43.822 -11.151  11.731  1.00  0.00     0.179 C 
HETATM   11  N   UNL     1      42.614  -9.469  12.959  1.00  0.00    -0.185 NA
HETATM   12  C   UNL     1      42.266  -8.202  12.747  1.00  0.00     0.141 A 
HETATM   13  C   UNL     1      42.679  -7.740  11.488  1.00  0.00     0.050 A 
ENDBRANCH   7   8
BRANCH   7  14
HETATM   14  C   UNL     1      44.188  -7.606   8.843  1.00  0.00     0.198 C 
BRANCH  14  15
HETATM   15  O   UNL     1      43.216  -7.460   7.799  1.00  0.00    -0.394 OA
HETATM   16  C   UNL     1      42.288  -6.424   8.092  1.00  0.00     0.201 C 
ENDBRANCH  14  15
ENDBRANCH   7  14
ENDBRANCH   1   7
BRANCH   3  17
HETATM   17  C   UNL     1      42.850 -12.430   6.262  1.00  0.00     0.036 A 
HETATM   18  C   UNL     1      42.919 -12.049   4.926  1.00  0.00     0.030 A 
HETATM   19  C   UNL     1      43.020 -13.016   3.918  1.00  0.00     0.010 A 
HETATM   20  C   UNL     1      43.069 -14.391   4.213  1.00  0.00    -0.054 A 
HETATM   21  C   UNL     1      42.978 -14.758   5.560  1.00  0.00     0.010 A 
HETATM   22  C   UNL     1      42.874 -13.792   6.570  1.00  0.00     0.030 A 
BRANCH  20  23
HETATM   23  C   UNL     1      43.151 -15.394   3.062  1.00  0.00     0.018 C 
HETATM   24  C   UNL     1      42.232 -16.619   3.270  1.00  0.00     0.009 C 
HETATM   25  C   UNL     1      40.767 -16.315   2.965  1.00  0.00     0.001 C 
HETATM   26  C   UNL     1      40.598 -15.805   1.539  1.00  0.00     0.000 C 
HETATM   27  C   UNL     1      41.473 -14.586   1.275  1.00  0.00     0.001 C 
HETATM   28  C   UNL     1      42.941 -14.838   1.635  1.00  0.00     0.009 C 
ENDBRANCH  20  23
ENDBRANCH   3  17
TORSDOF 6
ENDMDL
MODEL 8
REMARK VINA RESULT:      -6.7     17.726     20.355
REMARK  6 active torsions:
REMARK  status: ('A' for Active; 'I' for Inactive)
REMARK    1  A    between atoms: C_6  and  C_7 
REMARK    2  A    between atoms: C_7  and  N_8 
REMARK    3  A    between atoms: C_7  and  C_24 
REMARK       I    between atoms: N_8  and  C_9 
REMARK       I    between atoms: C_9  and  N_10 
REMARK    4  A    between atoms: N_10  and  C_11 
REMARK    5  A    between atoms: C_14  and  C_15 
REMARK    6  A    between atoms: C_24  and  O_25 
ROOT
HETATM    1  N   UNL     1      39.059 -32.471   3.757  1.00  0.00    -0.331 N 
HETATM    2  C   UNL     1      40.126 -32.661   2.907  1.00  0.00     0.321 C 
HETATM    3  N   UNL     1      40.478 -31.477   2.302  1.00  0.00    -0.309 N 
HETATM    4  O   UNL     1      40.651 -33.754   2.750  1.00  0.00    -0.247 OA
HETATM    5  H   UNL     1      38.940 -31.541   4.128  1.00  0.00     0.165 HD
HETATM    6  H   UNL     1      39.775 -30.753   2.326  1.00  0.00     0.170 HD
ENDROOT
BRANCH   1   7
HETATM    7  C   UNL     1      38.540 -33.562   4.567  1.00  0.00     0.161 C 
BRANCH   7   8
HETATM    8  C   UNL     1      37.309 -34.036   3.849  1.00  0.00     0.056 A 
HETATM    9  N   UNL     1      37.212 -35.269   3.248  1.00  0.00    -0.277 N 
HETATM   10  C   UNL     1      38.219 -36.304   3.190  1.00  0.00     0.179 C 
HETATM   11  N   UNL     1      36.028 -35.473   2.637  1.00  0.00    -0.185 NA
HETATM   12  C   UNL     1      35.342 -34.360   2.884  1.00  0.00     0.141 A 
HETATM   13  C   UNL     1      36.087 -33.428   3.624  1.00  0.00     0.050 A 
ENDBRANCH   7   8
BRANCH   7  14
HETATM   14  C   UNL     1      38.249 -33.142   6.027  1.00  0.00     0.198 C 
BRANCH  14  15
HETATM   15  O   UNL     1      39.030 -31.993   6.378  1.00  0.00    -0.394 OA
HETATM   16  C   UNL     1      40.162 -32.351   7.158  1.00  0.00     0.201 C 
ENDBRANCH  14  15
ENDBRANCH   7  14
ENDBRANCH   1   7
BRANCH   3  17
HETATM   17  C   UNL     1      41.615 -31.222   1.511  1.00  0.00     0.036 A 
HETATM   18  C   UNL     1      42.248 -32.182   0.728  1.00  0.00     0.030 A 
HETATM   19  C   UNL     1      43.400 -31.857   0.002  1.00  0.00     0.010 A 
HETATM   20  C   UNL     1      43.948 -30.561   0.023  1.00  0.00    -0.054 A 
HETATM   21  C   UNL     1      43.311 -29.613   0.831  1.00  0.00     0.010 A 
HETATM   22  C   UNL     1      42.160 -29.937   1.561  1.00  0.00     0.030 A 
BRANCH  20  23
HETATM   23  C   UNL     1      45.224 -30.283  -0.772  1.00  0.00     0.018 C 
HETATM   24  C   UNL     1      45.085 -30.642  -2.268  1.00  0.00     0.009 C 
HETATM   25  C   UNL     1      44.308 -29.590  -3.057  1.00  0.00     0.001 C 
HETATM   26  C   UNL     1      44.960 -28.219  -2.934  1.00  0.00     0.000 C 
HETATM   27  C   UNL     1      45.115 -27.803  -1.476  1.00  0.00     0.001 C 
HETATM   28  C   UNL     1      45.832 -28.868  -0.642  1.00  0.00     0.009 C 
ENDBRANCH  20  23
ENDBRANCH   3  17
TORSDOF 6
ENDMDL
MODEL 9
REMARK VINA RESULT:      -6.7      5.786      8.392
REMARK  6 active torsions:
REMARK  status: ('A' for Active; 'I' for Inactive)
REMARK    1  A    between atoms: C_6  and  C_7 
REMARK    2  A    between atoms: C_7  and  N_8 
REMARK    3  A    between atoms: C_7  and  C_24 
REMARK       I    between atoms: N_8  and  C_9 
REMARK       I    between atoms: C_9  and  N_10 
REMARK    4  A    between atoms: N_10  and  C_11 
REMARK    5  A    between atoms: C_14  and  C_15 
REMARK    6  A    between atoms: C_24  and  O_25 
ROOT
HETATM    1  N   UNL     1      39.050 -13.309   0.761  1.00  0.00    -0.331 N 
HETATM    2  C   UNL     1      40.211 -13.503   1.477  1.00  0.00     0.321 C 
HETATM    3  N   UNL     1      40.199 -14.735   2.091  1.00  0.00    -0.309 N 
HETATM    4  O   UNL     1      41.098 -12.663   1.528  1.00  0.00    -0.247 OA
HETATM    5  H   UNL     1      38.572 -14.139   0.447  1.00  0.00     0.165 HD
HETATM    6  H   UNL     1      39.291 -15.166   2.177  1.00  0.00     0.170 HD
ENDROOT
BRANCH   1   7
HETATM    7  C   UNL     1      38.851 -12.107  -0.032  1.00  0.00     0.161 C 
BRANCH   7   8
HETATM    8  C   UNL     1      39.637 -12.328  -1.293  1.00  0.00     0.056 A 
HETATM    9  N   UNL     1      39.161 -13.046  -2.365  1.00  0.00    -0.277 N 
HETATM   10  C   UNL     1      37.876 -13.694  -2.492  1.00  0.00     0.179 C 
HETATM   11  N   UNL     1      40.046 -13.144  -3.377  1.00  0.00    -0.185 NA
HETATM   12  C   UNL     1      41.097 -12.443  -2.955  1.00  0.00     0.141 A 
HETATM   13  C   UNL     1      40.905 -11.920  -1.666  1.00  0.00     0.050 A 
ENDBRANCH   7   8
BRANCH   7  14
HETATM   14  C   UNL     1      39.276 -10.818   0.711  1.00  0.00     0.198 C 
BRANCH  14  15
HETATM   15  O   UNL     1      38.388 -10.562   1.806  1.00  0.00    -0.394 OA
HETATM   16  C   UNL     1      38.132  -9.172   1.955  1.00  0.00     0.201 C 
ENDBRANCH  14  15
ENDBRANCH   7  14
ENDBRANCH   1   7
BRANCH   3  17
HETATM   17  C   UNL     1      41.262 -15.371   2.760  1.00  0.00     0.036 A 
HETATM   18  C   UNL     1      42.200 -16.183   2.131  1.00  0.00     0.030 A 
HETATM   19  C   UNL     1      43.205 -16.813   2.876  1.00  0.00     0.010 A 
HETATM   20  C   UNL     1      43.313 -16.641   4.268  1.00  0.00    -0.054 A 
HETATM   21  C   UNL     1      42.349 -15.837   4.888  1.00  0.00     0.010 A 
HETATM   22  C   UNL     1      41.341 -15.208   4.145  1.00  0.00     0.030 A 
BRANCH  20  23
HETATM   23  C   UNL     1      44.417 -17.381   5.024  1.00  0.00     0.018 C 
HETATM   24  C   UNL     1      44.038 -17.682   6.491  1.00  0.00     0.009 C 
HETATM   25  C   UNL     1      43.086 -18.869   6.623  1.00  0.00     0.001 C 
HETATM   26  C   UNL     1      43.683 -20.123   5.997  1.00  0.00     0.000 C 
HETATM   27  C   UNL     1      44.068 -19.892   4.541  1.00  0.00     0.001 C 
HETATM   28  C   UNL     1      44.970 -18.667   4.368  1.00  0.00     0.009 C 
ENDBRANCH  20  23
ENDBRANCH   3  17
TORSDOF 6
ENDMDL
MODEL 10
REMARK VINA RESULT:      -6.7      4.841      8.423
REMARK  6 active torsions:
REMARK  status: ('A' for Active; 'I' for Inactive)
REMARK    1  A    between atoms: C_6  and  C_7 
REMARK    2  A    between atoms: C_7  and  N_8 
REMARK    3  A    between atoms: C_7  and  C_24 
REMARK       I    between atoms: N_8  and  C_9 
REMARK       I    between atoms: C_9  and  N_10 
REMARK    4  A    between atoms: N_10  and  C_11 
REMARK    5  A    between atoms: C_14  and  C_15 
REMARK    6  A    between atoms: C_24  and  O_25 
ROOT
HETATM    1  N   UNL     1      43.471  -9.267   9.764  1.00  0.00    -0.331 N 
HETATM    2  C   UNL     1      42.625  -9.127  10.842  1.00  0.00     0.321 C 
HETATM    3  N   UNL     1      43.336  -8.798  11.974  1.00  0.00    -0.309 N 
HETATM    4  O   UNL     1      41.416  -9.285  10.751  1.00  0.00    -0.247 OA
HETATM    5  H   UNL     1      44.342  -8.763   9.808  1.00  0.00     0.165 HD
HETATM    6  H   UNL     1      44.327  -8.988  11.933  1.00  0.00     0.170 HD
ENDROOT
BRANCH   1   7
HETATM    7  C   UNL     1      42.952  -9.550   8.435  1.00  0.00     0.161 C 
BRANCH   7   8
HETATM    8  C   UNL     1      44.060 -10.271   7.723  1.00  0.00     0.056 A 
HETATM    9  N   UNL     1      43.844 -11.257   6.788  1.00  0.00    -0.277 N 
HETATM   10  C   UNL     1      42.575 -11.769   6.325  1.00  0.00     0.179 C 
HETATM   11  N   UNL     1      44.982 -11.787   6.299  1.00  0.00    -0.185 NA
HETATM   12  C   UNL     1      45.946 -11.101   6.908  1.00  0.00     0.141 A 
HETATM   13  C   UNL     1      45.436 -10.152   7.809  1.00  0.00     0.050 A 
ENDBRANCH   7   8
BRANCH   7  14
HETATM   14  C   UNL     1      42.496  -8.278   7.684  1.00  0.00     0.198 C 
BRANCH  14  15
HETATM   15  O   UNL     1      43.220  -7.135   8.158  1.00  0.00    -0.394 OA
HETATM   16  C   UNL     1      42.342  -6.111   8.607  1.00  0.00     0.201 C 
ENDBRANCH  14  15
ENDBRANCH   7  14
ENDBRANCH   1   7
BRANCH   3  17
HETATM   17  C   UNL     1      42.824  -8.401  13.224  1.00  0.00     0.036 A 
HETATM   18  C   UNL     1      41.787  -9.055  13.881  1.00  0.00     0.030 A 
HETATM   19  C   UNL     1      41.308  -8.572  15.105  1.00  0.00     0.010 A 
HETATM   20  C   UNL     1      41.857  -7.430  15.717  1.00  0.00    -0.054 A 
HETATM   21  C   UNL     1      42.885  -6.772  15.032  1.00  0.00     0.010 A 
HETATM   22  C   UNL     1      43.365  -7.252  13.806  1.00  0.00     0.030 A 
BRANCH  20  23
HETATM   23  C   UNL     1      41.267  -6.940  17.039  1.00  0.00     0.018 C 
HETATM   24  C   UNL     1      41.732  -5.514  17.409  1.00  0.00     0.009 C 
HETATM   25  C   UNL     1      40.994  -4.432  16.625  1.00  0.00     0.001 C 
HETATM   26  C   UNL     1      39.488  -4.533  16.833  1.00  0.00     0.000 C 
HETATM   27  C   UNL     1      38.966  -5.918  16.473  1.00  0.00     0.001 C 
HETATM   28  C   UNL     1      39.732  -7.031  17.194  1.00  0.00     0.009 C 
ENDBRANCH  20  23
ENDBRANCH   3  17
TORSDOF 6
ENDMDL
