MODEL 1
REMARK VINA RESULT:      -8.2      0.000      0.000
REMARK  8 active torsions:
REMARK  status: ('A' for Active; 'I' for Inactive)
REMARK    1  A    between atoms: C_2  and  O_3 
REMARK    2  A    between atoms: O_3  and  C_4 
REMARK    3  A    between atoms: C_4  and  C_5 
REMARK    4  A    between atoms: N_7  and  C_9 
REMARK    5  A    between atoms: C_9  and  C_10 
REMARK       I    between atoms: C_10  and  N_11 
REMARK    6  A    between atoms: N_11  and  C_12 
REMARK    7  A    between atoms: C_20  and  C_21 
REMARK       I    between atoms: C_21  and  N_22 
REMARK    8  A    between atoms: N_22  and  C_23 
ROOT
HETATM    1  C   UNL     1      43.231 -16.009   4.772  1.00  0.00     0.093 C 
HETATM    2  S   UNL     1      43.302 -17.080   6.079  1.00  0.00    -0.075 SA
HETATM    3  C   UNL     1      43.601 -18.386   5.041  1.00  0.00    -0.008 C 
HETATM    4  C   UNL     1      43.509 -18.046   3.699  1.00  0.00    -0.026 C 
HETATM    5  C   UNL     1      43.671 -19.107   2.638  1.00  0.00     0.041 C 
HETATM    6  C   UNL     1      43.631 -20.537   3.199  1.00  0.00     0.005 C 
HETATM    7  C   UNL     1      44.441 -20.663   4.492  1.00  0.00     0.005 C 
HETATM    8  C   UNL     1      43.865 -19.758   5.586  1.00  0.00     0.047 C 
HETATM    9  C   UNL     1      43.246 -16.619   3.524  1.00  0.00     0.073 C 
ENDROOT
BRANCH   1  10
HETATM   10  N   UNL     1      43.159 -14.690   5.173  1.00  0.00    -0.319 N 
HETATM   11  C   UNL     1      41.927 -14.122   5.405  1.00  0.00     0.248 C 
HETATM   12  O   UNL     1      40.839 -14.609   5.092  1.00  0.00    -0.271 OA
HETATM   13  H   UNL     1      43.941 -14.106   4.900  1.00  0.00     0.169 HD
BRANCH  11  14
HETATM   14  C   UNL     1      41.962 -12.747   6.075  1.00  0.00     0.337 C 
BRANCH  14  15
HETATM   15  N   UNL     1      41.412 -11.685   5.123  1.00  0.00    -0.062 N 
HETATM   16  C   UNL     1      40.058 -11.152   5.560  1.00  0.00     0.249 C 
HETATM   17  C   UNL     1      39.429 -10.354   4.424  1.00  0.00     0.111 C 
HETATM   18  C   UNL     1      40.380  -9.283   3.875  1.00  0.00     0.018 C 
HETATM   19  C   UNL     1      41.808  -9.777   3.625  1.00  0.00     0.029 C 
HETATM   20  C   UNL     1      42.374 -10.594   4.780  1.00  0.00     0.235 C 
HETATM   21  H   UNL     1      41.220 -12.227   4.250  1.00  0.00     0.280 HD
BRANCH  17  22
HETATM   22  C   UNL     1      39.025 -11.353   3.365  1.00  0.00     0.264 C 
HETATM   23  O   UNL     1      39.042 -12.561   3.570  1.00  0.00    -0.265 OA
BRANCH  22  24
HETATM   24  O   UNL     1      38.544 -10.734   2.262  1.00  0.00    -0.322 OA
BRANCH  24  25
HETATM   25  C   UNL     1      37.533 -11.472   1.560  1.00  0.00     0.174 C 
HETATM   26  C   UNL     1      36.900 -10.555   0.532  1.00  0.00     0.034 C 
ENDBRANCH  24  25
ENDBRANCH  22  24
ENDBRANCH  17  22
ENDBRANCH  14  15
ENDBRANCH  11  14
ENDBRANCH   1  10
BRANCH   9  27
HETATM   27  C   UNL     1      42.947 -15.861   2.284  1.00  0.00     0.259 C 
HETATM   28  N   UNL     1      41.661 -15.365   2.191  1.00  0.00    -0.323 N 
HETATM   29  H   UNL     1      41.015 -15.653   2.911  1.00  0.00     0.169 HD
HETATM   30  O   UNL     1      43.815 -15.705   1.424  1.00  0.00    -0.267 OA
BRANCH  28  31
HETATM   31  C   UNL     1      41.132 -14.497   1.212  1.00  0.00     0.035 A 
HETATM   32  C   UNL     1      41.455 -13.142   1.103  1.00  0.00     0.031 A 
HETATM   33  C   UNL     1      40.869 -12.348   0.109  1.00  0.00     0.026 A 
HETATM   34  C   UNL     1      39.947 -12.903  -0.772  1.00  0.00     0.034 A 
HETATM   35 CL   UNL     1      39.229 -11.924  -1.988  1.00  0.00    -0.084 Cl
HETATM   36  C   UNL     1      39.608 -14.248  -0.673  1.00  0.00     0.026 A 
HETATM   37  C   UNL     1      40.204 -15.043   0.312  1.00  0.00     0.031 A 
ENDBRANCH  28  31
ENDBRANCH   9  27
TORSDOF 8
ENDMDL
MODEL 2
REMARK VINA RESULT:      -8.1      3.484      5.868
REMARK  8 active torsions:
REMARK  status: ('A' for Active; 'I' for Inactive)
REMARK    1  A    between atoms: C_2  and  O_3 
REMARK    2  A    between atoms: O_3  and  C_4 
REMARK    3  A    between atoms: C_4  and  C_5 
REMARK    4  A    between atoms: N_7  and  C_9 
REMARK    5  A    between atoms: C_9  and  C_10 
REMARK       I    between atoms: C_10  and  N_11 
REMARK    6  A    between atoms: N_11  and  C_12 
REMARK    7  A    between atoms: C_20  and  C_21 
REMARK       I    between atoms: C_21  and  N_22 
REMARK    8  A    between atoms: N_22  and  C_23 
ROOT
HETATM    1  C   UNL     1      42.252 -13.987   3.111  1.00  0.00     0.093 C 
HETATM    2  S   UNL     1      42.603 -14.981   1.787  1.00  0.00    -0.075 SA
HETATM    3  C   UNL     1      43.123 -16.227   2.812  1.00  0.00    -0.008 C 
HETATM    4  C   UNL     1      43.167 -15.850   4.147  1.00  0.00    -0.026 C 
HETATM    5  C   UNL     1      43.680 -16.814   5.188  1.00  0.00     0.041 C 
HETATM    6  C   UNL     1      44.388 -18.038   4.584  1.00  0.00     0.005 C 
HETATM    7  C   UNL     1      43.626 -18.596   3.379  1.00  0.00     0.005 C 
HETATM    8  C   UNL     1      43.543 -17.555   2.258  1.00  0.00     0.047 C 
HETATM    9  C   UNL     1      42.681 -14.485   4.335  1.00  0.00     0.073 C 
ENDROOT
BRANCH   1  10
HETATM   10  N   UNL     1      41.597 -12.829   2.743  1.00  0.00    -0.319 N 
HETATM   11  C   UNL     1      42.325 -11.676   2.551  1.00  0.00     0.248 C 
HETATM   12  O   UNL     1      43.501 -11.505   2.875  1.00  0.00    -0.271 OA
HETATM   13  H   UNL     1      40.623 -12.772   3.013  1.00  0.00     0.169 HD
BRANCH  11  14
HETATM   14  C   UNL     1      41.552 -10.520   1.913  1.00  0.00     0.337 C 
BRANCH  14  15
HETATM   15  N   UNL     1      41.077 -10.915   0.514  1.00  0.00    -0.062 N 
HETATM   16  C   UNL     1      39.572 -11.103   0.438  1.00  0.00     0.249 C 
HETATM   17  C   UNL     1      39.205 -11.797  -0.869  1.00  0.00     0.111 C 
HETATM   18  C   UNL     1      39.816 -11.093  -2.088  1.00  0.00     0.018 C 
HETATM   19  C   UNL     1      41.293 -10.723  -1.927  1.00  0.00     0.029 C 
HETATM   20  C   UNL     1      41.606 -10.059  -0.591  1.00  0.00     0.235 C 
HETATM   21  H   UNL     1      41.475 -11.875   0.391  1.00  0.00     0.280 HD
BRANCH  17  22
HETATM   22  C   UNL     1      39.674 -13.228  -0.744  1.00  0.00     0.264 C 
HETATM   23  O   UNL     1      39.762 -13.792   0.340  1.00  0.00    -0.265 OA
BRANCH  22  24
HETATM   24  O   UNL     1      39.846 -13.797  -1.960  1.00  0.00    -0.322 OA
BRANCH  24  25
HETATM   25  C   UNL     1      38.949 -14.882  -2.241  1.00  0.00     0.174 C 
HETATM   26  C   UNL     1      38.207 -14.567  -3.524  1.00  0.00     0.034 C 
ENDBRANCH  24  25
ENDBRANCH  22  24
ENDBRANCH  17  22
ENDBRANCH  14  15
ENDBRANCH  11  14
ENDBRANCH   1  10
BRANCH   9  27
HETATM   27  C   UNL     1      42.677 -13.645   5.559  1.00  0.00     0.259 C 
HETATM   28  N   UNL     1      43.632 -12.649   5.594  1.00  0.00    -0.323 N 
HETATM   29  H   UNL     1      44.311 -12.650   4.847  1.00  0.00     0.169 HD
HETATM   30  O   UNL     1      41.859 -13.855   6.456  1.00  0.00    -0.267 OA
BRANCH  28  31
HETATM   31  C   UNL     1      43.780 -11.618   6.546  1.00  0.00     0.035 A 
HETATM   32  C   UNL     1      44.815 -11.552   7.482  1.00  0.00     0.031 A 
HETATM   33  C   UNL     1      44.876 -10.499   8.404  1.00  0.00     0.026 A 
HETATM   34  C   UNL     1      43.894  -9.514   8.402  1.00  0.00     0.034 A 
HETATM   35 CL   UNL     1      43.971  -8.225   9.537  1.00  0.00    -0.084 Cl
HETATM   36  C   UNL     1      42.852  -9.568   7.482  1.00  0.00     0.026 A 
HETATM   37  C   UNL     1      42.799 -10.614   6.554  1.00  0.00     0.031 A 
ENDBRANCH  28  31
ENDBRANCH   9  27
TORSDOF 8
ENDMDL
MODEL 3
REMARK VINA RESULT:      -7.9      3.553      7.426
REMARK  8 active torsions:
REMARK  status: ('A' for Active; 'I' for Inactive)
REMARK    1  A    between atoms: C_2  and  O_3 
REMARK    2  A    between atoms: O_3  and  C_4 
REMARK    3  A    between atoms: C_4  and  C_5 
REMARK    4  A    between atoms: N_7  and  C_9 
REMARK    5  A    between atoms: C_9  and  C_10 
REMARK       I    between atoms: C_10  and  N_11 
REMARK    6  A    between atoms: N_11  and  C_12 
REMARK    7  A    between atoms: C_20  and  C_21 
REMARK       I    between atoms: C_21  and  N_22 
REMARK    8  A    between atoms: N_22  and  C_23 
ROOT
HETATM    1  C   UNL     1      41.709 -10.518   6.368  1.00  0.00     0.093 C 
HETATM    2  S   UNL     1      41.455  -9.124   7.292  1.00  0.00    -0.075 SA
HETATM    3  C   UNL     1      43.046  -9.174   7.874  1.00  0.00    -0.008 C 
HETATM    4  C   UNL     1      43.731 -10.317   7.486  1.00  0.00    -0.026 C 
HETATM    5  C   UNL     1      45.136 -10.560   7.980  1.00  0.00     0.041 C 
HETATM    6  C   UNL     1      45.548  -9.620   9.125  1.00  0.00     0.005 C 
HETATM    7  C   UNL     1      45.100  -8.179   8.865  1.00  0.00     0.005 C 
HETATM    8  C   UNL     1      43.573  -8.092   8.768  1.00  0.00     0.047 C 
HETATM    9  C   UNL     1      42.919 -11.157   6.608  1.00  0.00     0.073 C 
ENDROOT
BRANCH   1  10
HETATM   10  N   UNL     1      40.651 -10.794   5.526  1.00  0.00    -0.319 N 
HETATM   11  C   UNL     1      40.731 -10.429   4.201  1.00  0.00     0.248 C 
HETATM   12  O   UNL     1      41.580  -9.683   3.710  1.00  0.00    -0.271 OA
HETATM   13  H   UNL     1      39.745 -10.876   5.973  1.00  0.00     0.169 HD
BRANCH  11  14
HETATM   14  C   UNL     1      39.626 -10.991   3.305  1.00  0.00     0.337 C 
BRANCH  14  15
HETATM   15  N   UNL     1      40.111 -12.263   2.608  1.00  0.00    -0.062 N 
HETATM   16  C   UNL     1      39.076 -13.374   2.631  1.00  0.00     0.249 C 
HETATM   17  C   UNL     1      39.724 -14.690   2.219  1.00  0.00     0.111 C 
HETATM   18  C   UNL     1      40.488 -14.568   0.894  1.00  0.00     0.018 C 
HETATM   19  C   UNL     1      41.383 -13.329   0.796  1.00  0.00     0.029 C 
HETATM   20  C   UNL     1      40.692 -12.049   1.248  1.00  0.00     0.235 C 
HETATM   21  H   UNL     1      40.879 -12.597   3.234  1.00  0.00     0.280 HD
BRANCH  17  22
HETATM   22  C   UNL     1      40.625 -15.104   3.359  1.00  0.00     0.264 C 
HETATM   23  O   UNL     1      40.656 -14.492   4.420  1.00  0.00    -0.265 OA
BRANCH  22  24
HETATM   24  O   UNL     1      41.260 -16.268   3.087  1.00  0.00    -0.322 OA
BRANCH  24  25
HETATM   25  C   UNL     1      42.693 -16.174   3.074  1.00  0.00     0.174 C 
HETATM   26  C   UNL     1      43.255 -17.511   2.638  1.00  0.00     0.034 C 
ENDBRANCH  24  25
ENDBRANCH  22  24
ENDBRANCH  17  22
ENDBRANCH  14  15
ENDBRANCH  11  14
ENDBRANCH   1  10
BRANCH   9  27
HETATM   27  C   UNL     1      43.202 -12.513   6.075  1.00  0.00     0.259 C 
HETATM   28  N   UNL     1      43.267 -13.517   7.020  1.00  0.00    -0.323 N 
HETATM   29  H   UNL     1      43.229 -13.229   7.986  1.00  0.00     0.169 HD
HETATM   30  O   UNL     1      43.358 -12.686   4.865  1.00  0.00    -0.267 OA
BRANCH  28  31
HETATM   31  C   UNL     1      43.377 -14.908   6.805  1.00  0.00     0.035 A 
HETATM   32  C   UNL     1      44.547 -15.552   6.395  1.00  0.00     0.031 A 
HETATM   33  C   UNL     1      44.562 -16.938   6.190  1.00  0.00     0.026 A 
HETATM   34  C   UNL     1      43.404 -17.683   6.382  1.00  0.00     0.034 A 
HETATM   35 CL   UNL     1      43.427 -19.383   6.127  1.00  0.00    -0.084 Cl
HETATM   36  C   UNL     1      42.229 -17.057   6.784  1.00  0.00     0.026 A 
HETATM   37  C   UNL     1      42.218 -15.675   7.000  1.00  0.00     0.031 A 
ENDBRANCH  28  31
ENDBRANCH   9  27
TORSDOF 8
ENDMDL
MODEL 4
REMARK VINA RESULT:      -7.9      3.286      4.599
REMARK  8 active torsions:
REMARK  status: ('A' for Active; 'I' for Inactive)
REMARK    1  A    between atoms: C_2  and  O_3 
REMARK    2  A    between atoms: O_3  and  C_4 
REMARK    3  A    between atoms: C_4  and  C_5 
REMARK    4  A    between atoms: N_7  and  C_9 
REMARK    5  A    between atoms: C_9  and  C_10 
REMARK       I    between atoms: C_10  and  N_11 
REMARK    6  A    between atoms: N_11  and  C_12 
REMARK    7  A    between atoms: C_20  and  C_21 
REMARK       I    between atoms: C_21  and  N_22 
REMARK    8  A    between atoms: N_22  and  C_23 
ROOT
HETATM    1  C   UNL     1      42.722 -14.711   4.749  1.00  0.00     0.093 C 
HETATM    2  S   UNL     1      43.601 -15.835   5.658  1.00  0.00    -0.075 SA
HETATM    3  C   UNL     1      43.566 -16.951   4.383  1.00  0.00    -0.008 C 
HETATM    4  C   UNL     1      42.773 -16.538   3.322  1.00  0.00    -0.026 C 
HETATM    5  C   UNL     1      42.568 -17.446   2.133  1.00  0.00     0.041 C 
HETATM    6  C   UNL     1      43.046 -18.886   2.382  1.00  0.00     0.005 C 
HETATM    7  C   UNL     1      44.394 -18.920   3.108  1.00  0.00     0.005 C 
HETATM    8  C   UNL     1      44.286 -18.262   4.487  1.00  0.00     0.047 C 
HETATM    9  C   UNL     1      42.225 -15.203   3.549  1.00  0.00     0.073 C 
ENDROOT
BRANCH   1  10
HETATM   10  N   UNL     1      42.639 -13.480   5.369  1.00  0.00    -0.319 N 
HETATM   11  C   UNL     1      43.148 -12.371   4.733  1.00  0.00     0.248 C 
HETATM   12  O   UNL     1      43.870 -12.381   3.735  1.00  0.00    -0.271 OA
HETATM   13  H   UNL     1      42.583 -13.502   6.380  1.00  0.00     0.169 HD
BRANCH  11  14
HETATM   14  C   UNL     1      42.791 -11.031   5.381  1.00  0.00     0.337 C 
BRANCH  14  15
HETATM   15  N   UNL     1      43.835 -10.664   6.436  1.00  0.00    -0.062 N 
HETATM   16  C   UNL     1      43.250 -10.586   7.836  1.00  0.00     0.249 C 
HETATM   17  C   UNL     1      44.247  -9.914   8.773  1.00  0.00     0.111 C 
HETATM   18  C   UNL     1      45.634 -10.565   8.705  1.00  0.00     0.018 C 
HETATM   19  C   UNL     1      46.137 -10.828   7.282  1.00  0.00     0.029 C 
HETATM   20  C   UNL     1      45.090 -11.474   6.383  1.00  0.00     0.235 C 
HETATM   21  H   UNL     1      44.082  -9.677   6.191  1.00  0.00     0.280 HD
BRANCH  17  22
HETATM   22  C   UNL     1      44.284  -8.453   8.388  1.00  0.00     0.264 C 
HETATM   23  O   UNL     1      45.329  -7.813   8.361  1.00  0.00    -0.265 OA
BRANCH  22  24
HETATM   24  O   UNL     1      43.070  -8.022   7.974  1.00  0.00    -0.322 OA
BRANCH  24  25
HETATM   25  C   UNL     1      42.602  -6.838   8.638  1.00  0.00     0.174 C 
HETATM   26  C   UNL     1      42.635  -7.085  10.133  1.00  0.00     0.034 C 
ENDBRANCH  24  25
ENDBRANCH  22  24
ENDBRANCH  17  22
ENDBRANCH  14  15
ENDBRANCH  11  14
ENDBRANCH   1  10
BRANCH   9  27
HETATM   27  C   UNL     1      41.236 -14.441   2.747  1.00  0.00     0.259 C 
HETATM   28  N   UNL     1      41.559 -14.273   1.415  1.00  0.00    -0.323 N 
HETATM   29  H   UNL     1      42.477 -14.581   1.133  1.00  0.00     0.169 HD
HETATM   30  O   UNL     1      40.209 -14.008   3.272  1.00  0.00    -0.267 OA
BRANCH  28  31
HETATM   31  C   UNL     1      40.760 -13.725   0.388  1.00  0.00     0.035 A 
HETATM   32  C   UNL     1      39.852 -14.458  -0.379  1.00  0.00     0.031 A 
HETATM   33  C   UNL     1      39.110 -13.836  -1.392  1.00  0.00     0.026 A 
HETATM   34  C   UNL     1      39.284 -12.480  -1.650  1.00  0.00     0.034 A 
HETATM   35 CL   UNL     1      38.373 -11.722  -2.895  1.00  0.00    -0.084 Cl
HETATM   36  C   UNL     1      40.189 -11.737  -0.900  1.00  0.00     0.026 A 
HETATM   37  C   UNL     1      40.920 -12.357   0.120  1.00  0.00     0.031 A 
ENDBRANCH  28  31
ENDBRANCH   9  27
TORSDOF 8
ENDMDL
MODEL 5
REMARK VINA RESULT:      -7.8      3.370      5.529
REMARK  8 active torsions:
REMARK  status: ('A' for Active; 'I' for Inactive)
REMARK    1  A    between atoms: C_2  and  O_3 
REMARK    2  A    between atoms: O_3  and  C_4 
REMARK    3  A    between atoms: C_4  and  C_5 
REMARK    4  A    between atoms: N_7  and  C_9 
REMARK    5  A    between atoms: C_9  and  C_10 
REMARK       I    between atoms: C_10  and  N_11 
REMARK    6  A    between atoms: N_11  and  C_12 
REMARK    7  A    between atoms: C_20  and  C_21 
REMARK       I    between atoms: C_21  and  N_22 
REMARK    8  A    between atoms: N_22  and  C_23 
ROOT
HETATM    1  C   UNL     1      41.439 -14.875   3.786  1.00  0.00     0.093 C 
HETATM    2  S   UNL     1      41.365 -15.860   2.412  1.00  0.00    -0.075 SA
HETATM    3  C   UNL     1      42.501 -16.931   3.071  1.00  0.00    -0.008 C 
HETATM    4  C   UNL     1      43.046 -16.478   4.265  1.00  0.00    -0.026 C 
HETATM    5  C   UNL     1      44.131 -17.273   4.950  1.00  0.00     0.041 C 
HETATM    6  C   UNL     1      44.724 -18.379   4.062  1.00  0.00     0.005 C 
HETATM    7  C   UNL     1      43.637 -19.133   3.291  1.00  0.00     0.005 C 
HETATM    8  C   UNL     1      42.882 -18.189   2.350  1.00  0.00     0.047 C 
HETATM    9  C   UNL     1      42.440 -15.217   4.686  1.00  0.00     0.073 C 
ENDROOT
BRANCH   1  10
HETATM   10  N   UNL     1      40.484 -13.879   3.774  1.00  0.00    -0.319 N 
HETATM   11  C   UNL     1      40.803 -12.646   3.251  1.00  0.00     0.248 C 
HETATM   12  O   UNL     1      41.938 -12.256   2.967  1.00  0.00    -0.271 OA
HETATM   13  H   UNL     1      39.762 -13.956   4.480  1.00  0.00     0.169 HD
BRANCH  11  14
HETATM   14  C   UNL     1      39.619 -11.696   3.059  1.00  0.00     0.337 C 
BRANCH  14  15
HETATM   15  N   UNL     1      39.479 -11.324   1.583  1.00  0.00    -0.062 N 
HETATM   16  C   UNL     1      38.105 -11.654   1.024  1.00  0.00     0.249 C 
HETATM   17  C   UNL     1      38.133 -11.564  -0.497  1.00  0.00     0.111 C 
HETATM   18  C   UNL     1      38.708 -10.228  -0.986  1.00  0.00     0.018 C 
HETATM   19  C   UNL     1      39.993  -9.797  -0.273  1.00  0.00     0.029 C 
HETATM   20  C   UNL     1      39.918  -9.937   1.242  1.00  0.00     0.235 C 
HETATM   21  H   UNL     1      40.130 -11.991   1.108  1.00  0.00     0.280 HD
BRANCH  17  22
HETATM   22  C   UNL     1      38.941 -12.744  -0.985  1.00  0.00     0.264 C 
HETATM   23  O   UNL     1      39.484 -13.526  -0.214  1.00  0.00    -0.265 OA
BRANCH  22  24
HETATM   24  O   UNL     1      38.866 -12.868  -2.331  1.00  0.00    -0.322 OA
BRANCH  24  25
HETATM   25  C   UNL     1      37.724 -13.602  -2.797  1.00  0.00     0.174 C 
HETATM   26  C   UNL     1      38.214 -14.844  -3.513  1.00  0.00     0.034 C 
ENDBRANCH  24  25
ENDBRANCH  22  24
ENDBRANCH  17  22
ENDBRANCH  14  15
ENDBRANCH  11  14
ENDBRANCH   1  10
BRANCH   9  27
HETATM   27  C   UNL     1      42.808 -14.326   5.815  1.00  0.00     0.259 C 
HETATM   28  N   UNL     1      43.438 -13.150   5.458  1.00  0.00    -0.323 N 
HETATM   29  H   UNL     1      43.691 -13.053   4.486  1.00  0.00     0.169 HD
HETATM   30  O   UNL     1      42.547 -14.649   6.975  1.00  0.00    -0.267 OA
BRANCH  28  31
HETATM   31  C   UNL     1      43.774 -12.057   6.284  1.00  0.00     0.035 A 
HETATM   32  C   UNL     1      42.880 -11.051   6.661  1.00  0.00     0.031 A 
HETATM   33  C   UNL     1      43.303  -9.991   7.473  1.00  0.00     0.026 A 
HETATM   34  C   UNL     1      44.625  -9.924   7.900  1.00  0.00     0.034 A 
HETATM   35 CL   UNL     1      45.139  -8.620   8.894  1.00  0.00    -0.084 Cl
HETATM   36  C   UNL     1      45.529 -10.913   7.529  1.00  0.00     0.026 A 
HETATM   37  C   UNL     1      45.103 -11.979   6.728  1.00  0.00     0.031 A 
ENDBRANCH  28  31
ENDBRANCH   9  27
TORSDOF 8
ENDMDL
MODEL 6
REMARK VINA RESULT:      -7.8      2.955      4.636
REMARK  8 active torsions:
REMARK  status: ('A' for Active; 'I' for Inactive)
REMARK    1  A    between atoms: C_2  and  O_3 
REMARK    2  A    between atoms: O_3  and  C_4 
REMARK    3  A    between atoms: C_4  and  C_5 
REMARK    4  A    between atoms: N_7  and  C_9 
REMARK    5  A    between atoms: C_9  and  C_10 
REMARK       I    between atoms: C_10  and  N_11 
REMARK    6  A    between atoms: N_11  and  C_12 
REMARK    7  A    between atoms: C_20  and  C_21 
REMARK       I    between atoms: C_21  and  N_22 
REMARK    8  A    between atoms: N_22  and  C_23 
ROOT
HETATM    1  C   UNL     1      41.609 -14.245   5.736  1.00  0.00     0.093 C 
HETATM    2  S   UNL     1      42.302 -15.259   6.900  1.00  0.00    -0.075 SA
HETATM    3  C   UNL     1      42.895 -16.297   5.698  1.00  0.00    -0.008 C 
HETATM    4  C   UNL     1      42.454 -15.962   4.425  1.00  0.00    -0.026 C 
HETATM    5  C   UNL     1      42.825 -16.827   3.245  1.00  0.00     0.041 C 
HETATM    6  C   UNL     1      43.427 -18.182   3.652  1.00  0.00     0.005 C 
HETATM    7  C   UNL     1      44.431 -18.035   4.799  1.00  0.00     0.005 C 
HETATM    8  C   UNL     1      43.748 -17.477   6.052  1.00  0.00     0.047 C 
HETATM    9  C   UNL     1      41.643 -14.746   4.440  1.00  0.00     0.073 C 
ENDROOT
BRANCH   1  10
HETATM   10  N   UNL     1      41.111 -13.079   6.280  1.00  0.00    -0.319 N 
HETATM   11  C   UNL     1      41.725 -11.882   5.986  1.00  0.00     0.248 C 
HETATM   12  O   UNL     1      42.820 -11.751   5.438  1.00  0.00    -0.271 OA
HETATM   13  H   UNL     1      40.600 -13.184   7.149  1.00  0.00     0.169 HD
BRANCH  11  14
HETATM   14  C   UNL     1      40.960 -10.634   6.432  1.00  0.00     0.337 C 
BRANCH  14  15
HETATM   15  N   UNL     1      41.498 -10.142   7.776  1.00  0.00    -0.062 N 
HETATM   16  C   UNL     1      42.792  -9.358   7.637  1.00  0.00     0.249 C 
HETATM   17  C   UNL     1      43.434  -9.179   9.008  1.00  0.00     0.111 C 
HETATM   18  C   UNL     1      42.454  -8.600  10.035  1.00  0.00     0.018 C 
HETATM   19  C   UNL     1      41.074  -9.265  10.033  1.00  0.00     0.029 C 
HETATM   20  C   UNL     1      40.494  -9.444   8.635  1.00  0.00     0.235 C 
HETATM   21  H   UNL     1      41.771 -11.029   8.261  1.00  0.00     0.280 HD
BRANCH  17  22
HETATM   22  C   UNL     1      43.956 -10.536   9.421  1.00  0.00     0.264 C 
HETATM   23  O   UNL     1      43.831 -10.961  10.564  1.00  0.00    -0.265 OA
BRANCH  22  24
HETATM   24  O   UNL     1      44.439 -11.222   8.359  1.00  0.00    -0.322 OA
BRANCH  24  25
HETATM   25  C   UNL     1      45.778 -10.868   7.982  1.00  0.00     0.174 C 
HETATM   26  C   UNL     1      45.972 -11.221   6.521  1.00  0.00     0.034 C 
ENDBRANCH  24  25
ENDBRANCH  22  24
ENDBRANCH  17  22
ENDBRANCH  14  15
ENDBRANCH  11  14
ENDBRANCH   1  10
BRANCH   9  27
HETATM   27  C   UNL     1      40.873 -14.113   3.341  1.00  0.00     0.259 C 
HETATM   28  N   UNL     1      41.478 -14.147   2.101  1.00  0.00    -0.323 N 
HETATM   29  H   UNL     1      42.425 -14.494   2.072  1.00  0.00     0.169 HD
HETATM   30  O   UNL     1      39.772 -13.606   3.564  1.00  0.00    -0.267 OA
BRANCH  28  31
HETATM   31  C   UNL     1      40.935 -13.759   0.857  1.00  0.00     0.035 A 
HETATM   32  C   UNL     1      41.097 -12.494   0.286  1.00  0.00     0.031 A 
HETATM   33  C   UNL     1      40.509 -12.189  -0.948  1.00  0.00     0.026 A 
HETATM   34  C   UNL     1      39.745 -13.144  -1.610  1.00  0.00     0.034 A 
HETATM   35 CL   UNL     1      39.023 -12.764  -3.123  1.00  0.00    -0.084 Cl
HETATM   36  C   UNL     1      39.567 -14.406  -1.053  1.00  0.00     0.026 A 
HETATM   37  C   UNL     1      40.166 -14.714   0.173  1.00  0.00     0.031 A 
ENDBRANCH  28  31
ENDBRANCH   9  27
TORSDOF 8
ENDMDL
MODEL 7
REMARK VINA RESULT:      -7.7      3.319      6.682
REMARK  8 active torsions:
REMARK  status: ('A' for Active; 'I' for Inactive)
REMARK    1  A    between atoms: C_2  and  O_3 
REMARK    2  A    between atoms: O_3  and  C_4 
REMARK    3  A    between atoms: C_4  and  C_5 
REMARK    4  A    between atoms: N_7  and  C_9 
REMARK    5  A    between atoms: C_9  and  C_10 
REMARK       I    between atoms: C_10  and  N_11 
REMARK    6  A    between atoms: N_11  and  C_12 
REMARK    7  A    between atoms: C_20  and  C_21 
REMARK       I    between atoms: C_21  and  N_22 
REMARK    8  A    between atoms: N_22  and  C_23 
ROOT
HETATM    1  C   UNL     1      41.688 -11.054   5.832  1.00  0.00     0.093 C 
HETATM    2  S   UNL     1      41.515  -9.893   7.051  1.00  0.00    -0.075 SA
HETATM    3  C   UNL     1      43.171  -9.963   7.405  1.00  0.00    -0.008 C 
HETATM    4  C   UNL     1      43.835 -10.961   6.704  1.00  0.00    -0.026 C 
HETATM    5  C   UNL     1      45.302 -11.213   6.955  1.00  0.00     0.041 C 
HETATM    6  C   UNL     1      45.833 -10.501   8.210  1.00  0.00     0.005 C 
HETATM    7  C   UNL     1      45.306  -9.067   8.315  1.00  0.00     0.005 C 
HETATM    8  C   UNL     1      43.778  -9.055   8.431  1.00  0.00     0.047 C 
HETATM    9  C   UNL     1      42.940 -11.653   5.779  1.00  0.00     0.073 C 
ENDROOT
BRANCH   1  10
HETATM   10  N   UNL     1      40.535 -11.217   5.090  1.00  0.00    -0.319 N 
HETATM   11  C   UNL     1      40.470 -10.690   3.821  1.00  0.00     0.248 C 
HETATM   12  O   UNL     1      41.271  -9.892   3.331  1.00  0.00    -0.271 OA
HETATM   13  H   UNL     1      39.685 -11.351   5.626  1.00  0.00     0.169 HD
BRANCH  11  14
HETATM   14  C   UNL     1      39.258 -11.130   2.996  1.00  0.00     0.337 C 
BRANCH  14  15
HETATM   15  N   UNL     1      39.582 -12.416   2.234  1.00  0.00    -0.062 N 
HETATM   16  C   UNL     1      40.687 -12.226   1.210  1.00  0.00     0.249 C 
HETATM   17  C   UNL     1      40.737 -13.431   0.278  1.00  0.00     0.111 C 
HETATM   18  C   UNL     1      40.813 -14.755   1.050  1.00  0.00     0.018 C 
HETATM   19  C   UNL     1      39.827 -14.861   2.217  1.00  0.00     0.029 C 
HETATM   20  C   UNL     1      39.798 -13.617   3.096  1.00  0.00     0.235 C 
HETATM   21  H   UNL     1      38.716 -12.580   1.670  1.00  0.00     0.280 HD
BRANCH  17  22
HETATM   22  C   UNL     1      39.508 -13.352  -0.598  1.00  0.00     0.264 C 
HETATM   23  O   UNL     1      38.830 -12.335  -0.678  1.00  0.00    -0.265 OA
BRANCH  22  24
HETATM   24  O   UNL     1      39.358 -14.476  -1.337  1.00  0.00    -0.322 OA
BRANCH  24  25
HETATM   25  C   UNL     1      39.510 -14.281  -2.751  1.00  0.00     0.174 C 
HETATM   26  C   UNL     1      38.271 -14.815  -3.442  1.00  0.00     0.034 C 
ENDBRANCH  24  25
ENDBRANCH  22  24
ENDBRANCH  17  22
ENDBRANCH  14  15
ENDBRANCH  11  14
ENDBRANCH   1  10
BRANCH   9  27
HETATM   27  C   UNL     1      43.193 -12.853   4.943  1.00  0.00     0.259 C 
HETATM   28  N   UNL     1      43.322 -14.040   5.637  1.00  0.00    -0.323 N 
HETATM   29  H   UNL     1      43.345 -13.972   6.644  1.00  0.00     0.169 HD
HETATM   30  O   UNL     1      43.271 -12.753   3.718  1.00  0.00    -0.267 OA
BRANCH  28  31
HETATM   31  C   UNL     1      43.423 -15.347   5.115  1.00  0.00     0.035 A 
HETATM   32  C   UNL     1      42.864 -15.756   3.901  1.00  0.00     0.031 A 
HETATM   33  C   UNL     1      42.999 -17.080   3.466  1.00  0.00     0.026 A 
HETATM   34  C   UNL     1      43.682 -18.005   4.249  1.00  0.00     0.034 A 
HETATM   35 CL   UNL     1      43.842 -19.630   3.711  1.00  0.00    -0.084 Cl
HETATM   36  C   UNL     1      44.238 -17.617   5.463  1.00  0.00     0.026 A 
HETATM   37  C   UNL     1      44.114 -16.290   5.891  1.00  0.00     0.031 A 
ENDBRANCH  28  31
ENDBRANCH   9  27
TORSDOF 8
ENDMDL
MODEL 8
REMARK VINA RESULT:      -7.4      3.152      5.283
REMARK  8 active torsions:
REMARK  status: ('A' for Active; 'I' for Inactive)
REMARK    1  A    between atoms: C_2  and  O_3 
REMARK    2  A    between atoms: O_3  and  C_4 
REMARK    3  A    between atoms: C_4  and  C_5 
REMARK    4  A    between atoms: N_7  and  C_9 
REMARK    5  A    between atoms: C_9  and  C_10 
REMARK       I    between atoms: C_10  and  N_11 
REMARK    6  A    between atoms: N_11  and  C_12 
REMARK    7  A    between atoms: C_20  and  C_21 
REMARK       I    between atoms: C_21  and  N_22 
REMARK    8  A    between atoms: N_22  and  C_23 
ROOT
HETATM    1  C   UNL     1      41.288 -15.248   3.718  1.00  0.00     0.093 C 
HETATM    2  S   UNL     1      41.258 -16.257   2.360  1.00  0.00    -0.075 SA
HETATM    3  C   UNL     1      42.471 -17.241   3.017  1.00  0.00    -0.008 C 
HETATM    4  C   UNL     1      43.002 -16.735   4.195  1.00  0.00    -0.026 C 
HETATM    5  C   UNL     1      44.147 -17.447   4.875  1.00  0.00     0.041 C 
HETATM    6  C   UNL     1      44.798 -18.526   3.994  1.00  0.00     0.005 C 
HETATM    7  C   UNL     1      43.751 -19.361   3.252  1.00  0.00     0.005 C 
HETATM    8  C   UNL     1      42.923 -18.483   2.309  1.00  0.00     0.047 C 
HETATM    9  C   UNL     1      42.322 -15.509   4.608  1.00  0.00     0.073 C 
ENDROOT
BRANCH   1  10
HETATM   10  N   UNL     1      40.270 -14.316   3.706  1.00  0.00    -0.319 N 
HETATM   11  C   UNL     1      40.495 -13.079   3.144  1.00  0.00     0.248 C 
HETATM   12  O   UNL     1      41.594 -12.625   2.822  1.00  0.00    -0.271 OA
HETATM   13  H   UNL     1      39.572 -14.421   4.432  1.00  0.00     0.169 HD
BRANCH  11  14
HETATM   14  C   UNL     1      39.247 -12.214   2.960  1.00  0.00     0.337 C 
BRANCH  14  15
HETATM   15  N   UNL     1      39.255 -11.062   3.966  1.00  0.00    -0.062 N 
HETATM   16  C   UNL     1      38.516  -9.836   3.456  1.00  0.00     0.249 C 
HETATM   17  C   UNL     1      38.830  -8.639   4.346  1.00  0.00     0.111 C 
HETATM   18  C   UNL     1      38.595  -8.945   5.831  1.00  0.00     0.018 C 
HETATM   19  C   UNL     1      39.172 -10.286   6.296  1.00  0.00     0.029 C 
HETATM   20  C   UNL     1      38.851 -11.439   5.354  1.00  0.00     0.235 C 
HETATM   21  H   UNL     1      40.261 -10.778   3.992  1.00  0.00     0.280 HD
BRANCH  17  22
HETATM   22  C   UNL     1      40.265  -8.256   4.064  1.00  0.00     0.264 C 
HETATM   23  O   UNL     1      41.032  -9.000   3.465  1.00  0.00    -0.265 OA
BRANCH  22  24
HETATM   24  O   UNL     1      40.516  -6.981   4.441  1.00  0.00    -0.322 OA
BRANCH  24  25
HETATM   25  C   UNL     1      41.731  -6.810   5.186  1.00  0.00     0.174 C 
HETATM   26  C   UNL     1      41.372  -6.587   6.641  1.00  0.00     0.034 C 
ENDBRANCH  24  25
ENDBRANCH  22  24
ENDBRANCH  17  22
ENDBRANCH  14  15
ENDBRANCH  11  14
ENDBRANCH   1  10
BRANCH   9  27
HETATM   27  C   UNL     1      42.647 -14.579   5.717  1.00  0.00     0.259 C 
HETATM   28  N   UNL     1      43.281 -13.411   5.341  1.00  0.00    -0.323 N 
HETATM   29  H   UNL     1      43.564 -13.344   4.375  1.00  0.00     0.169 HD
HETATM   30  O   UNL     1      42.351 -14.865   6.878  1.00  0.00    -0.267 OA
BRANCH  28  31
HETATM   31  C   UNL     1      43.582 -12.288   6.141  1.00  0.00     0.035 A 
HETATM   32  C   UNL     1      44.720 -12.174   6.943  1.00  0.00     0.031 A 
HETATM   33  C   UNL     1      44.933 -11.028   7.719  1.00  0.00     0.026 A 
HETATM   34  C   UNL     1      44.001  -9.995   7.707  1.00  0.00     0.034 A 
HETATM   35 CL   UNL     1      44.265  -8.592   8.663  1.00  0.00    -0.084 Cl
HETATM   36  C   UNL     1      42.859 -10.095   6.920  1.00  0.00     0.026 A 
HETATM   37  C   UNL     1      42.654 -11.235   6.135  1.00  0.00     0.031 A 
ENDBRANCH  28  31
ENDBRANCH   9  27
TORSDOF 8
ENDMDL
MODEL 9
REMARK VINA RESULT:      -7.3      3.994      5.391
REMARK  8 active torsions:
REMARK  status: ('A' for Active; 'I' for Inactive)
REMARK    1  A    between atoms: C_2  and  O_3 
REMARK    2  A    between atoms: O_3  and  C_4 
REMARK    3  A    between atoms: C_4  and  C_5 
REMARK    4  A    between atoms: N_7  and  C_9 
REMARK    5  A    between atoms: C_9  and  C_10 
REMARK       I    between atoms: C_10  and  N_11 
REMARK    6  A    between atoms: N_11  and  C_12 
REMARK    7  A    between atoms: C_20  and  C_21 
REMARK       I    between atoms: C_21  and  N_22 
REMARK    8  A    between atoms: N_22  and  C_23 
ROOT
HETATM    1  C   UNL     1      42.511 -14.123   5.751  1.00  0.00     0.093 C 
HETATM    2  S   UNL     1      42.795 -15.319   6.913  1.00  0.00    -0.075 SA
HETATM    3  C   UNL     1      43.222 -16.437   5.713  1.00  0.00    -0.008 C 
HETATM    4  C   UNL     1      43.018 -15.958   4.426  1.00  0.00    -0.026 C 
HETATM    5  C   UNL     1      43.274 -16.852   3.237  1.00  0.00     0.041 C 
HETATM    6  C   UNL     1      43.462 -18.329   3.619  1.00  0.00     0.005 C 
HETATM    7  C   UNL     1      44.344 -18.487   4.860  1.00  0.00     0.005 C 
HETATM    8  C   UNL     1      43.702 -17.811   6.075  1.00  0.00     0.047 C 
HETATM    9  C   UNL     1      42.549 -14.574   4.438  1.00  0.00     0.073 C 
ENDROOT
BRANCH   1  10
HETATM   10  N   UNL     1      42.276 -12.884   6.314  1.00  0.00    -0.319 N 
HETATM   11  C   UNL     1      43.305 -11.974   6.392  1.00  0.00     0.248 C 
HETATM   12  O   UNL     1      44.497 -12.216   6.195  1.00  0.00    -0.271 OA
HETATM   13  H   UNL     1      41.513 -12.844   6.980  1.00  0.00     0.169 HD
BRANCH  11  14
HETATM   14  C   UNL     1      42.889 -10.559   6.802  1.00  0.00     0.337 C 
BRANCH  14  15
HETATM   15  N   UNL     1      43.691 -10.110   8.024  1.00  0.00    -0.062 N 
HETATM   16  C   UNL     1      43.563 -11.072   9.193  1.00  0.00     0.249 C 
HETATM   17  C   UNL     1      44.107 -10.419  10.458  1.00  0.00     0.111 C 
HETATM   18  C   UNL     1      45.520  -9.856  10.256  1.00  0.00     0.018 C 
HETATM   19  C   UNL     1      45.698  -9.050   8.966  1.00  0.00     0.029 C 
HETATM   20  C   UNL     1      45.109  -9.738   7.740  1.00  0.00     0.235 C 
HETATM   21  H   UNL     1      43.189  -9.245   8.330  1.00  0.00     0.280 HD
BRANCH  17  22
HETATM   22  C   UNL     1      43.117  -9.345  10.850  1.00  0.00     0.264 C 
HETATM   23  O   UNL     1      42.001  -9.275  10.350  1.00  0.00    -0.265 OA
BRANCH  22  24
HETATM   24  O   UNL     1      43.585  -8.597  11.876  1.00  0.00    -0.322 OA
BRANCH  24  25
HETATM   25  C   UNL     1      42.565  -8.054  12.728  1.00  0.00     0.174 C 
HETATM   26  C   UNL     1      42.361  -9.002  13.893  1.00  0.00     0.034 C 
ENDBRANCH  24  25
ENDBRANCH  22  24
ENDBRANCH  17  22
ENDBRANCH  14  15
ENDBRANCH  11  14
ENDBRANCH   1  10
BRANCH   9  27
HETATM   27  C   UNL     1      42.086 -13.726   3.311  1.00  0.00     0.259 C 
HETATM   28  N   UNL     1      40.975 -14.194   2.637  1.00  0.00    -0.323 N 
HETATM   29  H   UNL     1      40.648 -15.113   2.895  1.00  0.00     0.169 HD
HETATM   30  O   UNL     1      42.679 -12.683   3.031  1.00  0.00    -0.267 OA
BRANCH  28  31
HETATM   31  C   UNL     1      40.230 -13.544   1.631  1.00  0.00     0.035 A 
HETATM   32  C   UNL     1      39.392 -12.449   1.854  1.00  0.00     0.031 A 
HETATM   33  C   UNL     1      38.675 -11.874   0.797  1.00  0.00     0.026 A 
HETATM   34  C   UNL     1      38.783 -12.401  -0.486  1.00  0.00     0.034 A 
HETATM   35 CL   UNL     1      37.899 -11.694  -1.780  1.00  0.00    -0.084 Cl
HETATM   36  C   UNL     1      39.607 -13.495  -0.725  1.00  0.00     0.026 A 
HETATM   37  C   UNL     1      40.333 -14.061   0.330  1.00  0.00     0.031 A 
ENDBRANCH  28  31
ENDBRANCH   9  27
TORSDOF 8
ENDMDL
MODEL 10
REMARK VINA RESULT:      -7.1      4.115      7.133
REMARK  8 active torsions:
REMARK  status: ('A' for Active; 'I' for Inactive)
REMARK    1  A    between atoms: C_2  and  O_3 
REMARK    2  A    between atoms: O_3  and  C_4 
REMARK    3  A    between atoms: C_4  and  C_5 
REMARK    4  A    between atoms: N_7  and  C_9 
REMARK    5  A    between atoms: C_9  and  C_10 
REMARK       I    between atoms: C_10  and  N_11 
REMARK    6  A    between atoms: N_11  and  C_12 
REMARK    7  A    between atoms: C_20  and  C_21 
REMARK       I    between atoms: C_21  and  N_22 
REMARK    8  A    between atoms: N_22  and  C_23 
ROOT
HETATM    1  C   UNL     1      41.412 -11.749   4.854  1.00  0.00     0.093 C 
HETATM    2  S   UNL     1      41.311 -10.076   4.622  1.00  0.00    -0.075 SA
HETATM    3  C   UNL     1      40.090 -10.272   3.463  1.00  0.00    -0.008 C 
HETATM    4  C   UNL     1      39.852 -11.601   3.144  1.00  0.00    -0.026 C 
HETATM    5  C   UNL     1      38.848 -11.954   2.073  1.00  0.00     0.041 C 
HETATM    6  C   UNL     1      38.407 -10.743   1.235  1.00  0.00     0.005 C 
HETATM    7  C   UNL     1      38.147  -9.512   2.108  1.00  0.00     0.005 C 
HETATM    8  C   UNL     1      39.424  -9.083   2.838  1.00  0.00     0.047 C 
HETATM    9  C   UNL     1      40.674 -12.502   3.950  1.00  0.00     0.073 C 
ENDROOT
BRANCH   1  10
HETATM   10  N   UNL     1      42.231 -12.087   5.913  1.00  0.00    -0.319 N 
HETATM   11  C   UNL     1      43.578 -12.265   5.692  1.00  0.00     0.248 C 
HETATM   12  O   UNL     1      44.121 -12.356   4.590  1.00  0.00    -0.271 OA
HETATM   13  H   UNL     1      41.777 -12.566   6.681  1.00  0.00     0.169 HD
BRANCH  11  14
HETATM   14  C   UNL     1      44.430 -12.393   6.956  1.00  0.00     0.337 C 
BRANCH  14  15
HETATM   15  N   UNL     1      44.749 -11.007   7.518  1.00  0.00    -0.062 N 
HETATM   16  C   UNL     1      44.014 -10.720   8.817  1.00  0.00     0.249 C 
HETATM   17  C   UNL     1      44.117  -9.236   9.147  1.00  0.00     0.111 C 
HETATM   18  C   UNL     1      45.567  -8.736   9.120  1.00  0.00     0.018 C 
HETATM   19  C   UNL     1      46.369  -9.199   7.900  1.00  0.00     0.029 C 
HETATM   20  C   UNL     1      46.205 -10.684   7.599  1.00  0.00     0.235 C 
HETATM   21  H   UNL     1      44.317 -10.363   6.816  1.00  0.00     0.280 HD
BRANCH  17  22
HETATM   22  C   UNL     1      43.245  -8.509   8.149  1.00  0.00     0.264 C 
HETATM   23  O   UNL     1      42.374  -9.083   7.507  1.00  0.00    -0.265 OA
BRANCH  22  24
HETATM   24  O   UNL     1      43.478  -7.176   8.172  1.00  0.00    -0.322 OA
BRANCH  24  25
HETATM   25  C   UNL     1      42.384  -6.390   8.668  1.00  0.00     0.174 C 
HETATM   26  C   UNL     1      42.756  -5.866  10.040  1.00  0.00     0.034 C 
ENDBRANCH  24  25
ENDBRANCH  22  24
ENDBRANCH  17  22
ENDBRANCH  14  15
ENDBRANCH  11  14
ENDBRANCH   1  10
BRANCH   9  27
HETATM   27  C   UNL     1      40.836 -13.974   3.849  1.00  0.00     0.259 C 
HETATM   28  N   UNL     1      42.077 -14.403   3.423  1.00  0.00    -0.323 N 
HETATM   29  H   UNL     1      42.719 -13.688   3.114  1.00  0.00     0.169 HD
HETATM   30  O   UNL     1      39.903 -14.725   4.139  1.00  0.00    -0.267 OA
BRANCH  28  31
HETATM   31  C   UNL     1      42.569 -15.724   3.367  1.00  0.00     0.035 A 
HETATM   32  C   UNL     1      43.382 -16.304   4.344  1.00  0.00     0.031 A 
HETATM   33  C   UNL     1      43.840 -17.621   4.200  1.00  0.00     0.026 A 
HETATM   34  C   UNL     1      43.497 -18.358   3.072  1.00  0.00     0.034 A 
HETATM   35 CL   UNL     1      44.063 -19.971   2.898  1.00  0.00    -0.084 Cl
HETATM   36  C   UNL     1      42.694 -17.794   2.086  1.00  0.00     0.026 A 
HETATM   37  C   UNL     1      42.227 -16.483   2.237  1.00  0.00     0.031 A 
ENDBRANCH  28  31
ENDBRANCH   9  27
TORSDOF 8
ENDMDL
