MODEL 1
REMARK VINA RESULT:      -8.7      0.000      0.000
REMARK  2 active torsions:
REMARK  status: ('A' for Active; 'I' for Inactive)
REMARK    1  A    between atoms: N_3  and  C_4 
REMARK    2  A    between atoms: C_12  and  C_13 
REMARK       I    between atoms: C_13  and  N_14 
ROOT
HETATM    1  C   UNL     1      41.424 -11.957   4.611  1.00  0.00     0.262 C 
HETATM    2  N   UNL     1      41.850 -10.954   5.505  1.00  0.00    -0.311 N 
HETATM    3  C   UNL     1      43.049 -10.973   6.269  1.00  0.00     0.064 A 
HETATM    4  C   UNL     1      43.150 -10.389   7.547  1.00  0.00     0.061 A 
HETATM    5  C   UNL     1      44.382 -10.466   8.229  1.00  0.00     0.032 A 
HETATM    6  C   UNL     1      45.499 -11.074   7.660  1.00  0.00     0.002 A 
HETATM    7  C   UNL     1      45.411 -11.613   6.388  1.00  0.00     0.002 A 
HETATM    8  C   UNL     1      44.201 -11.557   5.698  1.00  0.00     0.032 A 
HETATM    9  N   UNL     1      42.132  -9.746   8.280  1.00  0.00    -0.325 N 
HETATM   10  C   UNL     1      40.852  -9.382   8.026  1.00  0.00     0.227 C 
HETATM   11  O   UNL     1      40.244  -8.807   8.937  1.00  0.00    -0.273 OA
HETATM   12  C   UNL     1      40.136  -9.684   6.736  1.00  0.00     0.092 C 
HETATM   13  C   UNL     1      39.267 -10.928   6.894  1.00  0.00     0.021 C 
HETATM   14  C   UNL     1      41.080  -9.718   5.552  1.00  0.00     0.146 C 
HETATM   15  O   UNL     1      40.639 -11.704   3.696  1.00  0.00    -0.267 OA
HETATM   16  H   UNL     1      42.387  -9.435   9.212  1.00  0.00     0.169 HD
ENDROOT
BRANCH   1  17
HETATM   17  C   UNL     1      41.827 -13.347   4.845  1.00  0.00     0.075 C 
HETATM   18  C   UNL     1      42.546 -14.154   3.963  1.00  0.00     0.050 C 
HETATM   19  C   UNL     1      43.184 -13.765   2.675  1.00  0.00     0.071 C 
HETATM   20  N   UNL     1      42.613 -15.419   4.541  1.00  0.00    -0.238 N 
HETATM   21  N   UNL     1      42.113 -15.399   5.805  1.00  0.00    -0.179 NA
HETATM   22  C   UNL     1      41.561 -14.197   5.934  1.00  0.00     0.158 C 
BRANCH  20  23
HETATM   23  C   UNL     1      43.099 -16.654   4.022  1.00  0.00     0.061 A 
HETATM   24  C   UNL     1      44.036 -17.379   4.769  1.00  0.00     0.051 A 
HETATM   25  C   UNL     1      44.504 -18.578   4.261  1.00  0.00     0.118 A 
HETATM   26  N   UNL     1      44.094 -19.105   3.088  1.00  0.00    -0.273 NA
HETATM   27  C   UNL     1      43.167 -18.406   2.402  1.00  0.00     0.118 A 
HETATM   28  C   UNL     1      42.643 -17.192   2.819  1.00  0.00     0.051 A 
ENDBRANCH  20  23
ENDBRANCH   1  17
TORSDOF 2
ENDMDL
MODEL 2
REMARK VINA RESULT:      -8.6      3.963      6.273
REMARK  2 active torsions:
REMARK  status: ('A' for Active; 'I' for Inactive)
REMARK    1  A    between atoms: N_3  and  C_4 
REMARK    2  A    between atoms: C_12  and  C_13 
REMARK       I    between atoms: C_13  and  N_14 
ROOT
HETATM    1  C   UNL     1      41.900 -11.977   3.670  1.00  0.00     0.262 C 
HETATM    2  N   UNL     1      42.098 -13.253   4.231  1.00  0.00    -0.311 N 
HETATM    3  C   UNL     1      42.398 -14.444   3.513  1.00  0.00     0.064 A 
HETATM    4  C   UNL     1      41.958 -15.717   3.925  1.00  0.00     0.061 A 
HETATM    5  C   UNL     1      42.302 -16.837   3.140  1.00  0.00     0.032 A 
HETATM    6  C   UNL     1      43.086 -16.717   1.994  1.00  0.00     0.002 A 
HETATM    7  C   UNL     1      43.552 -15.471   1.611  1.00  0.00     0.002 A 
HETATM    8  C   UNL     1      43.217 -14.348   2.367  1.00  0.00     0.032 A 
HETATM    9  N   UNL     1      41.155 -16.028   5.041  1.00  0.00    -0.325 N 
HETATM   10  C   UNL     1      40.654 -15.327   6.085  1.00  0.00     0.227 C 
HETATM   11  O   UNL     1      39.975 -15.957   6.906  1.00  0.00    -0.273 OA
HETATM   12  C   UNL     1      40.835 -13.843   6.262  1.00  0.00     0.092 C 
HETATM   13  C   UNL     1      39.601 -13.097   5.762  1.00  0.00     0.021 C 
HETATM   14  C   UNL     1      42.147 -13.354   5.684  1.00  0.00     0.146 C 
HETATM   15  O   UNL     1      42.067 -10.954   4.336  1.00  0.00    -0.267 OA
HETATM   16  H   UNL     1      40.898 -17.005   5.142  1.00  0.00     0.169 HD
ENDROOT
BRANCH   1  17
HETATM   17  C   UNL     1      41.373 -11.865   2.306  1.00  0.00     0.075 C 
HETATM   18  C   UNL     1      40.277 -12.556   1.789  1.00  0.00     0.050 C 
HETATM   19  C   UNL     1      39.321 -13.437   2.516  1.00  0.00     0.071 C 
HETATM   20  N   UNL     1      40.197 -12.228   0.438  1.00  0.00    -0.238 N 
HETATM   21  N   UNL     1      41.085 -11.249   0.126  1.00  0.00    -0.179 NA
HETATM   22  C   UNL     1      41.841 -11.114   1.212  1.00  0.00     0.158 C 
BRANCH  20  23
HETATM   23  C   UNL     1      39.368 -12.749  -0.598  1.00  0.00     0.061 A 
HETATM   24  C   UNL     1      39.701 -13.981  -1.174  1.00  0.00     0.051 A 
HETATM   25  C   UNL     1      38.892 -14.483  -2.179  1.00  0.00     0.118 A 
HETATM   26  N   UNL     1      37.782 -13.860  -2.627  1.00  0.00    -0.273 NA
HETATM   27  C   UNL     1      37.462 -12.691  -2.034  1.00  0.00     0.118 A 
HETATM   28  C   UNL     1      38.211 -12.100  -1.028  1.00  0.00     0.051 A 
ENDBRANCH  20  23
ENDBRANCH   1  17
TORSDOF 2
ENDMDL
MODEL 3
REMARK VINA RESULT:      -8.3      3.843      5.820
REMARK  2 active torsions:
REMARK  status: ('A' for Active; 'I' for Inactive)
REMARK    1  A    between atoms: N_3  and  C_4 
REMARK    2  A    between atoms: C_12  and  C_13 
REMARK       I    between atoms: C_13  and  N_14 
ROOT
HETATM    1  C   UNL     1      40.859 -13.459   2.975  1.00  0.00     0.262 C 
HETATM    2  N   UNL     1      40.433 -12.637   1.913  1.00  0.00    -0.311 N 
HETATM    3  C   UNL     1      40.296 -13.033   0.554  1.00  0.00     0.064 A 
HETATM    4  C   UNL     1      40.522 -12.156  -0.525  1.00  0.00     0.061 A 
HETATM    5  C   UNL     1      40.367 -12.646  -1.838  1.00  0.00     0.032 A 
HETATM    6  C   UNL     1      39.969 -13.957  -2.090  1.00  0.00     0.002 A 
HETATM    7  C   UNL     1      39.708 -14.809  -1.029  1.00  0.00     0.002 A 
HETATM    8  C   UNL     1      39.864 -14.349   0.278  1.00  0.00     0.032 A 
HETATM    9  N   UNL     1      40.937 -10.810  -0.463  1.00  0.00    -0.325 N 
HETATM   10  C   UNL     1      41.141  -9.914   0.532  1.00  0.00     0.227 C 
HETATM   11  O   UNL     1      41.507  -8.781   0.196  1.00  0.00    -0.273 OA
HETATM   12  C   UNL     1      40.997 -10.241   1.994  1.00  0.00     0.092 C 
HETATM   13  C   UNL     1      42.363 -10.540   2.605  1.00  0.00     0.021 C 
HETATM   14  C   UNL     1      39.947 -11.303   2.243  1.00  0.00     0.146 C 
HETATM   15  O   UNL     1      40.557 -13.203   4.141  1.00  0.00    -0.267 OA
HETATM   16  H   UNL     1      41.097 -10.356  -1.357  1.00  0.00     0.169 HD
ENDROOT
BRANCH   1  17
HETATM   17  C   UNL     1      41.775 -14.571   2.700  1.00  0.00     0.075 C 
HETATM   18  C   UNL     1      41.641 -15.880   3.163  1.00  0.00     0.050 C 
HETATM   19  C   UNL     1      40.495 -16.480   3.901  1.00  0.00     0.071 C 
HETATM   20  N   UNL     1      42.780 -16.568   2.754  1.00  0.00    -0.238 N 
HETATM   21  N   UNL     1      43.538 -15.800   1.928  1.00  0.00    -0.179 NA
HETATM   22  C   UNL     1      42.986 -14.592   1.985  1.00  0.00     0.158 C 
BRANCH  20  23
HETATM   23  C   UNL     1      43.235 -17.883   3.067  1.00  0.00     0.061 A 
HETATM   24  C   UNL     1      43.815 -18.116   4.320  1.00  0.00     0.051 A 
HETATM   25  C   UNL     1      44.255 -19.394   4.619  1.00  0.00     0.118 A 
HETATM   26  N   UNL     1      44.139 -20.441   3.777  1.00  0.00    -0.273 NA
HETATM   27  C   UNL     1      43.548 -20.200   2.588  1.00  0.00     0.118 A 
HETATM   28  C   UNL     1      43.083 -18.956   2.190  1.00  0.00     0.051 A 
ENDBRANCH  20  23
ENDBRANCH   1  17
TORSDOF 2
ENDMDL
MODEL 4
REMARK VINA RESULT:      -8.2      2.226      7.317
REMARK  2 active torsions:
REMARK  status: ('A' for Active; 'I' for Inactive)
REMARK    1  A    between atoms: N_3  and  C_4 
REMARK    2  A    between atoms: C_12  and  C_13 
REMARK       I    between atoms: C_13  and  N_14 
ROOT
HETATM    1  C   UNL     1      40.999 -14.094   4.094  1.00  0.00     0.262 C 
HETATM    2  N   UNL     1      41.460 -15.405   4.324  1.00  0.00    -0.311 N 
HETATM    3  C   UNL     1      42.251 -15.830   5.427  1.00  0.00     0.064 A 
HETATM    4  C   UNL     1      43.207 -16.861   5.330  1.00  0.00     0.061 A 
HETATM    5  C   UNL     1      43.947 -17.206   6.480  1.00  0.00     0.032 A 
HETATM    6  C   UNL     1      43.737 -16.575   7.705  1.00  0.00     0.002 A 
HETATM    7  C   UNL     1      42.770 -15.589   7.810  1.00  0.00     0.002 A 
HETATM    8  C   UNL     1      42.032 -15.225   6.684  1.00  0.00     0.032 A 
HETATM    9  N   UNL     1      43.560 -17.598   4.182  1.00  0.00    -0.325 N 
HETATM   10  C   UNL     1      43.098 -17.673   2.911  1.00  0.00     0.227 C 
HETATM   11  O   UNL     1      43.671 -18.467   2.155  1.00  0.00    -0.273 OA
HETATM   12  C   UNL     1      41.982 -16.817   2.375  1.00  0.00     0.092 C 
HETATM   13  C   UNL     1      42.551 -15.625   1.611  1.00  0.00     0.021 C 
HETATM   14  C   UNL     1      40.971 -16.458   3.444  1.00  0.00     0.146 C 
HETATM   15  O   UNL     1      40.007 -13.879   3.397  1.00  0.00    -0.267 OA
HETATM   16  H   UNL     1      44.313 -18.269   4.302  1.00  0.00     0.169 HD
ENDROOT
BRANCH   1  17
HETATM   17  C   UNL     1      41.782 -12.958   4.594  1.00  0.00     0.075 C 
HETATM   18  C   UNL     1      41.349 -12.002   5.513  1.00  0.00     0.050 C 
HETATM   19  C   UNL     1      40.081 -11.988   6.294  1.00  0.00     0.071 C 
HETATM   20  N   UNL     1      42.366 -11.058   5.619  1.00  0.00    -0.238 N 
HETATM   21  N   UNL     1      43.470 -11.460   4.936  1.00  0.00    -0.179 NA
HETATM   22  C   UNL     1      43.079 -12.533   4.255  1.00  0.00     0.158 C 
BRANCH  20  23
HETATM   23  C   UNL     1      42.405  -9.805   6.297  1.00  0.00     0.061 A 
HETATM   24  C   UNL     1      43.242  -9.665   7.411  1.00  0.00     0.051 A 
HETATM   25  C   UNL     1      43.277  -8.447   8.065  1.00  0.00     0.118 A 
HETATM   26  N   UNL     1      42.563  -7.369   7.679  1.00  0.00    -0.273 NA
HETATM   27  C   UNL     1      41.789  -7.517   6.584  1.00  0.00     0.118 A 
HETATM   28  C   UNL     1      41.676  -8.698   5.866  1.00  0.00     0.051 A 
ENDBRANCH  20  23
ENDBRANCH   1  17
TORSDOF 2
ENDMDL
MODEL 5
REMARK VINA RESULT:      -8.0     17.509     19.327
REMARK  2 active torsions:
REMARK  status: ('A' for Active; 'I' for Inactive)
REMARK    1  A    between atoms: N_3  and  C_4 
REMARK    2  A    between atoms: C_12  and  C_13 
REMARK       I    between atoms: C_13  and  N_14 
ROOT
HETATM    1  C   UNL     1      47.475 -28.930   1.551  1.00  0.00     0.262 C 
HETATM    2  N   UNL     1      48.658 -29.468   2.095  1.00  0.00    -0.311 N 
HETATM    3  C   UNL     1      49.600 -30.280   1.404  1.00  0.00     0.064 A 
HETATM    4  C   UNL     1      50.343 -31.296   2.037  1.00  0.00     0.061 A 
HETATM    5  C   UNL     1      51.248 -32.052   1.264  1.00  0.00     0.032 A 
HETATM    6  C   UNL     1      51.444 -31.799  -0.093  1.00  0.00     0.002 A 
HETATM    7  C   UNL     1      50.743 -30.775  -0.706  1.00  0.00     0.002 A 
HETATM    8  C   UNL     1      49.835 -30.020   0.037  1.00  0.00     0.032 A 
HETATM    9  N   UNL     1      50.272 -31.698   3.386  1.00  0.00    -0.325 N 
HETATM   10  C   UNL     1      49.627 -31.245   4.488  1.00  0.00     0.227 C 
HETATM   11  O   UNL     1      49.817 -31.867   5.540  1.00  0.00    -0.273 OA
HETATM   12  C   UNL     1      48.673 -30.081   4.481  1.00  0.00     0.092 C 
HETATM   13  C   UNL     1      47.232 -30.579   4.404  1.00  0.00     0.021 C 
HETATM   14  C   UNL     1      49.040 -29.047   3.437  1.00  0.00     0.146 C 
HETATM   15  O   UNL     1      46.948 -27.928   2.038  1.00  0.00    -0.267 OA
HETATM   16  H   UNL     1      50.853 -32.489   3.643  1.00  0.00     0.169 HD
ENDROOT
BRANCH   1  17
HETATM   17  C   UNL     1      46.795 -29.640   0.464  1.00  0.00     0.075 C 
HETATM   18  C   UNL     1      46.651 -29.190  -0.849  1.00  0.00     0.050 C 
HETATM   19  C   UNL     1      47.260 -27.986  -1.478  1.00  0.00     0.071 C 
HETATM   20  N   UNL     1      45.855 -30.123  -1.507  1.00  0.00    -0.238 N 
HETATM   21  N   UNL     1      45.629 -31.207  -0.719  1.00  0.00    -0.179 NA
HETATM   22  C   UNL     1      46.105 -30.866   0.474  1.00  0.00     0.158 C 
BRANCH  20  23
HETATM   23  C   UNL     1      45.276 -30.097  -2.810  1.00  0.00     0.061 A 
HETATM   24  C   UNL     1      45.944 -30.741  -3.859  1.00  0.00     0.051 A 
HETATM   25  C   UNL     1      45.378 -30.714  -5.121  1.00  0.00     0.118 A 
HETATM   26  N   UNL     1      44.201 -30.117  -5.401  1.00  0.00    -0.273 NA
HETATM   27  C   UNL     1      43.558 -29.532  -4.368  1.00  0.00     0.118 A 
HETATM   28  C   UNL     1      44.046 -29.495  -3.070  1.00  0.00     0.051 A 
ENDBRANCH  20  23
ENDBRANCH   1  17
TORSDOF 2
ENDMDL
MODEL 6
REMARK VINA RESULT:      -7.7      2.889      7.091
REMARK  2 active torsions:
REMARK  status: ('A' for Active; 'I' for Inactive)
REMARK    1  A    between atoms: N_3  and  C_4 
REMARK    2  A    between atoms: C_12  and  C_13 
REMARK       I    between atoms: C_13  and  N_14 
ROOT
HETATM    1  C   UNL     1      40.430 -11.361   2.916  1.00  0.00     0.262 C 
HETATM    2  N   UNL     1      40.107 -12.515   2.176  1.00  0.00    -0.311 N 
HETATM    3  C   UNL     1      40.533 -13.840   2.469  1.00  0.00     0.064 A 
HETATM    4  C   UNL     1      40.781 -14.802   1.470  1.00  0.00     0.061 A 
HETATM    5  C   UNL     1      41.207 -16.088   1.862  1.00  0.00     0.032 A 
HETATM    6  C   UNL     1      41.357 -16.435   3.204  1.00  0.00     0.002 A 
HETATM    7  C   UNL     1      41.075 -15.501   4.187  1.00  0.00     0.002 A 
HETATM    8  C   UNL     1      40.661 -14.220   3.823  1.00  0.00     0.032 A 
HETATM    9  N   UNL     1      40.693 -14.632   0.074  1.00  0.00    -0.325 N 
HETATM   10  C   UNL     1      40.276 -13.638  -0.746  1.00  0.00     0.227 C 
HETATM   11  O   UNL     1      40.337 -13.855  -1.962  1.00  0.00    -0.273 OA
HETATM   12  C   UNL     1      39.804 -12.294  -0.258  1.00  0.00     0.092 C 
HETATM   13  C   UNL     1      40.934 -11.272  -0.349  1.00  0.00     0.021 C 
HETATM   14  C   UNL     1      39.136 -12.379   1.098  1.00  0.00     0.146 C 
HETATM   15  O   UNL     1      39.717 -10.357   2.875  1.00  0.00    -0.267 OA
HETATM   16  H   UNL     1      40.963 -15.434  -0.487  1.00  0.00     0.169 HD
ENDROOT
BRANCH   1  17
HETATM   17  C   UNL     1      41.696 -11.310   3.654  1.00  0.00     0.075 C 
HETATM   18  C   UNL     1      41.838 -11.193   5.037  1.00  0.00     0.050 C 
HETATM   19  C   UNL     1      40.772 -11.239   6.076  1.00  0.00     0.071 C 
HETATM   20  N   UNL     1      43.202 -11.077   5.291  1.00  0.00    -0.238 N 
HETATM   21  N   UNL     1      43.923 -11.274   4.157  1.00  0.00    -0.179 NA
HETATM   22  C   UNL     1      43.021 -11.311   3.181  1.00  0.00     0.158 C 
BRANCH  20  23
HETATM   23  C   UNL     1      43.901 -10.792   6.500  1.00  0.00     0.061 A 
HETATM   24  C   UNL     1      45.227 -11.224   6.632  1.00  0.00     0.051 A 
HETATM   25  C   UNL     1      45.902 -10.945   7.807  1.00  0.00     0.118 A 
HETATM   26  N   UNL     1      45.362 -10.258   8.835  1.00  0.00    -0.273 NA
HETATM   27  C   UNL     1      44.095  -9.823   8.673  1.00  0.00     0.118 A 
HETATM   28  C   UNL     1      43.331 -10.059   7.540  1.00  0.00     0.051 A 
ENDBRANCH  20  23
ENDBRANCH   1  17
TORSDOF 2
ENDMDL
MODEL 7
REMARK VINA RESULT:      -7.7      5.124      8.304
REMARK  2 active torsions:
REMARK  status: ('A' for Active; 'I' for Inactive)
REMARK    1  A    between atoms: N_3  and  C_4 
REMARK    2  A    between atoms: C_12  and  C_13 
REMARK       I    between atoms: C_13  and  N_14 
ROOT
HETATM    1  C   UNL     1      41.068  -8.456  12.035  1.00  0.00     0.262 C 
HETATM    2  N   UNL     1      40.939  -7.172  12.602  1.00  0.00    -0.311 N 
HETATM    3  C   UNL     1      41.609  -5.996  12.165  1.00  0.00     0.064 A 
HETATM    4  C   UNL     1      41.997  -4.967  13.045  1.00  0.00     0.061 A 
HETATM    5  C   UNL     1      42.664  -3.842  12.516  1.00  0.00     0.032 A 
HETATM    6  C   UNL     1      42.918  -3.714  11.151  1.00  0.00     0.002 A 
HETATM    7  C   UNL     1      42.501  -4.707  10.282  1.00  0.00     0.002 A 
HETATM    8  C   UNL     1      41.848  -5.833  10.784  1.00  0.00     0.032 A 
HETATM    9  N   UNL     1      41.835  -4.927  14.444  1.00  0.00    -0.325 N 
HETATM   10  C   UNL     1      41.217  -5.711  15.360  1.00  0.00     0.227 C 
HETATM   11  O   UNL     1      41.278  -5.344  16.540  1.00  0.00    -0.273 OA
HETATM   12  C   UNL     1      40.523  -7.003  15.024  1.00  0.00     0.092 C 
HETATM   13  C   UNL     1      41.443  -8.186  15.307  1.00  0.00     0.021 C 
HETATM   14  C   UNL     1      39.925  -6.986  13.632  1.00  0.00     0.146 C 
HETATM   15  O   UNL     1      40.183  -9.302  12.165  1.00  0.00    -0.267 OA
HETATM   16  H   UNL     1      42.230  -4.117  14.913  1.00  0.00     0.169 HD
ENDROOT
BRANCH   1  17
HETATM   17  C   UNL     1      42.326  -8.830  11.382  1.00  0.00     0.075 C 
HETATM   18  C   UNL     1      42.479  -9.213  10.049  1.00  0.00     0.050 C 
HETATM   19  C   UNL     1      41.457  -9.192   8.966  1.00  0.00     0.071 C 
HETATM   20  N   UNL     1      43.812  -9.579   9.887  1.00  0.00    -0.238 N 
HETATM   21  N   UNL     1      44.530  -9.294  11.005  1.00  0.00    -0.179 NA
HETATM   22  C   UNL     1      43.623  -8.947  11.913  1.00  0.00     0.158 C 
BRANCH  20  23
HETATM   23  C   UNL     1      44.484 -10.179   8.782  1.00  0.00     0.061 A 
HETATM   24  C   UNL     1      45.759  -9.715   8.434  1.00  0.00     0.051 A 
HETATM   25  C   UNL     1      46.407 -10.301   7.362  1.00  0.00     0.118 A 
HETATM   26  N   UNL     1      45.890 -11.315   6.637  1.00  0.00    -0.273 NA
HETATM   27  C   UNL     1      44.675 -11.767   7.011  1.00  0.00     0.118 A 
HETATM   28  C   UNL     1      43.940 -11.242   8.063  1.00  0.00     0.051 A 
ENDBRANCH  20  23
ENDBRANCH   1  17
TORSDOF 2
ENDMDL
MODEL 8
REMARK VINA RESULT:      -7.5      3.053      5.001
REMARK  2 active torsions:
REMARK  status: ('A' for Active; 'I' for Inactive)
REMARK    1  A    between atoms: N_3  and  C_4 
REMARK    2  A    between atoms: C_12  and  C_13 
REMARK       I    between atoms: C_13  and  N_14 
ROOT
HETATM    1  C   UNL     1      40.518 -13.328   4.545  1.00  0.00     0.262 C 
HETATM    2  N   UNL     1      40.097 -12.628   3.397  1.00  0.00    -0.311 N 
HETATM    3  C   UNL     1      40.134 -13.116   2.062  1.00  0.00     0.064 A 
HETATM    4  C   UNL     1      40.354 -12.280   0.949  1.00  0.00     0.061 A 
HETATM    5  C   UNL     1      40.380 -12.861  -0.337  1.00  0.00     0.032 A 
HETATM    6  C   UNL     1      40.166 -14.224  -0.531  1.00  0.00     0.002 A 
HETATM    7  C   UNL     1      39.911 -15.039   0.559  1.00  0.00     0.002 A 
HETATM    8  C   UNL     1      39.889 -14.488   1.841  1.00  0.00     0.032 A 
HETATM    9  N   UNL     1      40.597 -10.892   0.952  1.00  0.00    -0.325 N 
HETATM   10  C   UNL     1      40.600  -9.922   1.898  1.00  0.00     0.227 C 
HETATM   11  O   UNL     1      40.859  -8.774   1.518  1.00  0.00    -0.273 OA
HETATM   12  C   UNL     1      40.362 -10.179   3.362  1.00  0.00     0.092 C 
HETATM   13  C   UNL     1      41.691 -10.271   4.105  1.00  0.00     0.021 C 
HETATM   14  C   UNL     1      39.427 -11.348   3.592  1.00  0.00     0.146 C 
HETATM   15  O   UNL     1      40.081 -13.045   5.661  1.00  0.00    -0.267 OA
HETATM   16  H   UNL     1      40.785 -10.473   0.046  1.00  0.00     0.169 HD
ENDROOT
BRANCH   1  17
HETATM   17  C   UNL     1      41.581 -14.331   4.426  1.00  0.00     0.075 C 
HETATM   18  C   UNL     1      41.465 -15.691   4.713  1.00  0.00     0.050 C 
HETATM   19  C   UNL     1      40.234 -16.454   5.059  1.00  0.00     0.071 C 
HETATM   20  N   UNL     1      42.734 -16.242   4.564  1.00  0.00    -0.238 N 
HETATM   21  N   UNL     1      43.599 -15.331   4.046  1.00  0.00    -0.179 NA
HETATM   22  C   UNL     1      42.932 -14.180   4.063  1.00  0.00     0.158 C 
BRANCH  20  23
HETATM   23  C   UNL     1      43.223 -17.547   4.865  1.00  0.00     0.061 A 
HETATM   24  C   UNL     1      43.109 -18.025   6.177  1.00  0.00     0.051 A 
HETATM   25  C   UNL     1      43.584 -19.292   6.465  1.00  0.00     0.118 A 
HETATM   26  N   UNL     1      44.138 -20.110   5.546  1.00  0.00    -0.273 NA
HETATM   27  C   UNL     1      44.208 -19.642   4.282  1.00  0.00     0.118 A 
HETATM   28  C   UNL     1      43.770 -18.385   3.894  1.00  0.00     0.051 A 
ENDBRANCH  20  23
ENDBRANCH   1  17
TORSDOF 2
ENDMDL
MODEL 9
REMARK VINA RESULT:      -7.5      3.579      4.931
REMARK  2 active torsions:
REMARK  status: ('A' for Active; 'I' for Inactive)
REMARK    1  A    between atoms: N_3  and  C_4 
REMARK    2  A    between atoms: C_12  and  C_13 
REMARK       I    between atoms: C_13  and  N_14 
ROOT
HETATM    1  C   UNL     1      40.842 -12.652   0.751  1.00  0.00     0.262 C 
HETATM    2  N   UNL     1      40.130 -11.548   1.260  1.00  0.00    -0.311 N 
HETATM    3  C   UNL     1      39.932 -11.246   2.635  1.00  0.00     0.064 A 
HETATM    4  C   UNL     1      38.768 -10.616   3.119  1.00  0.00     0.061 A 
HETATM    5  C   UNL     1      38.662 -10.364   4.503  1.00  0.00     0.032 A 
HETATM    6  C   UNL     1      39.685 -10.695   5.390  1.00  0.00     0.002 A 
HETATM    7  C   UNL     1      40.846 -11.278   4.909  1.00  0.00     0.002 A 
HETATM    8  C   UNL     1      40.969 -11.544   3.545  1.00  0.00     0.032 A 
HETATM    9  N   UNL     1      37.635 -10.221   2.380  1.00  0.00    -0.325 N 
HETATM   10  C   UNL     1      37.311 -10.193   1.065  1.00  0.00     0.227 C 
HETATM   11  O   UNL     1      36.190  -9.757   0.776  1.00  0.00    -0.273 OA
HETATM   12  C   UNL     1      38.210 -10.702  -0.030  1.00  0.00     0.092 C 
HETATM   13  C   UNL     1      37.802 -12.117  -0.431  1.00  0.00     0.021 C 
HETATM   14  C   UNL     1      39.676 -10.539   0.311  1.00  0.00     0.146 C 
HETATM   15  O   UNL     1      41.330 -12.630  -0.380  1.00  0.00    -0.267 OA
HETATM   16  H   UNL     1      36.870  -9.827   2.919  1.00  0.00     0.169 HD
ENDROOT
BRANCH   1  17
HETATM   17  C   UNL     1      40.901 -13.892   1.532  1.00  0.00     0.075 C 
HETATM   18  C   UNL     1      42.051 -14.473   2.067  1.00  0.00     0.050 C 
HETATM   19  C   UNL     1      43.431 -13.915   2.098  1.00  0.00     0.071 C 
HETATM   20  N   UNL     1      41.662 -15.683   2.634  1.00  0.00    -0.238 N 
HETATM   21  N   UNL     1      40.309 -15.810   2.620  1.00  0.00    -0.179 NA
HETATM   22  C   UNL     1      39.879 -14.794   1.878  1.00  0.00     0.158 C 
BRANCH  20  23
HETATM   23  C   UNL     1      42.438 -16.742   3.188  1.00  0.00     0.061 A 
HETATM   24  C   UNL     1      42.911 -17.749   2.337  1.00  0.00     0.051 A 
HETATM   25  C   UNL     1      43.665 -18.775   2.879  1.00  0.00     0.118 A 
HETATM   26  N   UNL     1      43.991 -18.855   4.186  1.00  0.00    -0.273 NA
HETATM   27  C   UNL     1      43.552 -17.857   4.981  1.00  0.00     0.118 A 
HETATM   28  C   UNL     1      42.783 -16.791   4.538  1.00  0.00     0.051 A 
ENDBRANCH  20  23
ENDBRANCH   1  17
TORSDOF 2
ENDMDL
MODEL 10
REMARK VINA RESULT:      -7.4      3.435      5.208
REMARK  2 active torsions:
REMARK  status: ('A' for Active; 'I' for Inactive)
REMARK    1  A    between atoms: N_3  and  C_4 
REMARK    2  A    between atoms: C_12  and  C_13 
REMARK       I    between atoms: C_13  and  N_14 
ROOT
HETATM    1  C   UNL     1      42.553 -13.387   4.567  1.00  0.00     0.262 C 
HETATM    2  N   UNL     1      42.432 -12.597   5.727  1.00  0.00    -0.311 N 
HETATM    3  C   UNL     1      41.364 -11.703   6.020  1.00  0.00     0.064 A 
HETATM    4  C   UNL     1      41.543 -10.514   6.754  1.00  0.00     0.061 A 
HETATM    5  C   UNL     1      40.422  -9.690   6.987  1.00  0.00     0.032 A 
HETATM    6  C   UNL     1      39.149 -10.037   6.538  1.00  0.00     0.002 A 
HETATM    7  C   UNL     1      38.967 -11.226   5.851  1.00  0.00     0.002 A 
HETATM    8  C   UNL     1      40.062 -12.052   5.601  1.00  0.00     0.032 A 
HETATM    9  N   UNL     1      42.747  -9.999   7.275  1.00  0.00    -0.325 N 
HETATM   10  C   UNL     1      44.022 -10.447   7.362  1.00  0.00     0.227 C 
HETATM   11  O   UNL     1      44.840  -9.700   7.913  1.00  0.00    -0.273 OA
HETATM   12  C   UNL     1      44.491 -11.757   6.787  1.00  0.00     0.092 C 
HETATM   13  C   UNL     1      45.148 -11.531   5.428  1.00  0.00     0.021 C 
HETATM   14  C   UNL     1      43.401 -12.808   6.795  1.00  0.00     0.146 C 
HETATM   15  O   UNL     1      43.235 -14.413   4.563  1.00  0.00    -0.267 OA
HETATM   16  H   UNL     1      42.680  -9.095   7.733  1.00  0.00     0.169 HD
ENDROOT
BRANCH   1  17
HETATM   17  C   UNL     1      41.954 -12.920   3.313  1.00  0.00     0.075 C 
HETATM   18  C   UNL     1      40.935 -13.554   2.602  1.00  0.00     0.050 C 
HETATM   19  C   UNL     1      40.134 -14.741   3.008  1.00  0.00     0.071 C 
HETATM   20  N   UNL     1      40.752 -12.827   1.429  1.00  0.00    -0.238 N 
HETATM   21  N   UNL     1      41.492 -11.687   1.447  1.00  0.00    -0.179 NA
HETATM   22  C   UNL     1      42.272 -11.804   2.518  1.00  0.00     0.158 C 
BRANCH  20  23
HETATM   23  C   UNL     1      39.951 -13.098   0.281  1.00  0.00     0.061 A 
HETATM   24  C   UNL     1      38.952 -12.184  -0.076  1.00  0.00     0.051 A 
HETATM   25  C   UNL     1      38.177 -12.452  -1.191  1.00  0.00     0.118 A 
HETATM   26  N   UNL     1      38.341 -13.540  -1.973  1.00  0.00    -0.273 NA
HETATM   27  C   UNL     1      39.331 -14.389  -1.628  1.00  0.00     0.118 A 
HETATM   28  C   UNL     1      40.154 -14.217  -0.526  1.00  0.00     0.051 A 
ENDBRANCH  20  23
ENDBRANCH   1  17
TORSDOF 2
ENDMDL
