MODEL 1
REMARK VINA RESULT:      -7.7      0.000      0.000
REMARK  8 active torsions:
REMARK  status: ('A' for Active; 'I' for Inactive)
REMARK    1  A    between atoms: C_2  and  O_3 
REMARK    2  A    between atoms: O_3  and  C_4 
REMARK       I    between atoms: C_4  and  N_5 
REMARK    3  A    between atoms: C_8  and  N_9 
REMARK       I    between atoms: N_9  and  C_10 
REMARK    4  A    between atoms: C_10  and  C_11 
REMARK    5  A    between atoms: C_12  and  C_13 
REMARK    6  A    between atoms: N_18  and  C_19 
REMARK    7  A    between atoms: C_19  and  C_20 
REMARK    8  A    between atoms: C_20  and  O_21 
ROOT
HETATM    1  C   UNL     1      43.035 -13.923   2.920  1.00  0.00     0.139 C 
HETATM    2  C   UNL     1      42.881 -14.735   4.223  1.00  0.00     0.145 C 
HETATM    3  N   UNL     1      42.913 -16.162   3.875  1.00  0.00    -0.335 N 
HETATM    4  C   UNL     1      42.186 -16.638   2.785  1.00  0.00     0.255 C 
HETATM    5  O   UNL     1      42.174 -17.817   2.447  1.00  0.00    -0.267 OA
HETATM    6  C   UNL     1      41.475 -15.618   1.952  1.00  0.00     0.039 A 
HETATM    7  C   UNL     1      41.894 -14.266   1.978  1.00  0.00    -0.027 A 
HETATM    8  C   UNL     1      40.449 -16.032   1.098  1.00  0.00     0.017 A 
HETATM    9  C   UNL     1      39.824 -15.104   0.268  1.00  0.00     0.001 A 
HETATM   10  C   UNL     1      40.242 -13.773   0.272  1.00  0.00     0.001 A 
HETATM   11  C   UNL     1      41.281 -13.355   1.111  1.00  0.00     0.009 A 
ENDROOT
BRANCH   1  12
HETATM   12  C   UNL     1      43.353 -12.478   3.268  1.00  0.00     0.229 C 
HETATM   13  N   UNL     1      43.945 -12.354   4.513  1.00  0.00    -0.356 N 
HETATM   14  H   UNL     1      44.180 -13.214   5.006  1.00  0.00     0.162 HD
HETATM   15  O   UNL     1      43.093 -11.524   2.548  1.00  0.00    -0.273 OA
BRANCH  13  16
HETATM   16  C   UNL     1      44.254 -11.113   5.220  1.00  0.00     0.087 C 
HETATM   17  C   UNL     1      43.064 -10.468   5.934  1.00  0.00     0.045 C 
HETATM   18  C   UNL     1      42.920 -10.839   7.406  1.00  0.00     0.130 C 
HETATM   19  N   UNL     1      44.194 -10.787   8.113  1.00  0.00    -0.328 N 
HETATM   20  C   UNL     1      44.272 -10.475   9.464  1.00  0.00     0.362 C 
HETATM   21  C   UNL     1      45.276 -11.565   7.530  1.00  0.00     0.130 C 
HETATM   22  O   UNL     1      45.267 -10.660  10.154  1.00  0.00    -0.238 OA
HETATM   23  C   UNL     1      45.521 -11.190   6.076  1.00  0.00     0.045 C 
BRANCH  20  24
HETATM   24  O   UNL     1      43.124  -9.916   9.938  1.00  0.00    -0.304 OA
BRANCH  24  25
HETATM   25  C   UNL     1      42.982  -9.885  11.365  1.00  0.00     0.176 C 
HETATM   26  C   UNL     1      43.525  -8.584  11.925  1.00  0.00     0.034 C 
ENDBRANCH  24  25
ENDBRANCH  20  24
ENDBRANCH  13  16
ENDBRANCH   1  12
BRANCH   2  27
HETATM   27  C   UNL     1      41.642 -14.451   5.074  1.00  0.00     0.006 A 
HETATM   28  S   UNL     1      41.189 -15.586   6.298  1.00  0.00    -0.104 SA
HETATM   29  C   UNL     1      39.842 -14.657   6.777  1.00  0.00     0.050 A 
HETATM   30  C   UNL     1      39.743 -13.488   6.061  1.00  0.00     0.008 A 
HETATM   31  C   UNL     1      40.780 -13.366   5.091  1.00  0.00     0.017 A 
ENDBRANCH   2  27
BRANCH   3  32
HETATM   32  C   UNL     1      43.970 -16.996   4.451  1.00  0.00     0.153 C 
BRANCH  32  33
HETATM   33  C   UNL     1      43.505 -17.704   5.737  1.00  0.00     0.187 C 
BRANCH  33  34
HETATM   34  O   UNL     1      43.714 -19.129   5.684  1.00  0.00    -0.394 OA
HETATM   35  C   UNL     1      44.375 -19.534   4.489  1.00  0.00     0.201 C 
ENDBRANCH  33  34
ENDBRANCH  32  33
ENDBRANCH   3  32
TORSDOF 8
ENDMDL
MODEL 2
REMARK VINA RESULT:      -7.5      3.402      5.566
REMARK  8 active torsions:
REMARK  status: ('A' for Active; 'I' for Inactive)
REMARK    1  A    between atoms: C_2  and  O_3 
REMARK    2  A    between atoms: O_3  and  C_4 
REMARK       I    between atoms: C_4  and  N_5 
REMARK    3  A    between atoms: C_8  and  N_9 
REMARK       I    between atoms: N_9  and  C_10 
REMARK    4  A    between atoms: C_10  and  C_11 
REMARK    5  A    between atoms: C_12  and  C_13 
REMARK    6  A    between atoms: N_18  and  C_19 
REMARK    7  A    between atoms: C_19  and  C_20 
REMARK    8  A    between atoms: C_20  and  O_21 
ROOT
HETATM    1  C   UNL     1      41.171 -14.508   4.860  1.00  0.00     0.139 C 
HETATM    2  C   UNL     1      42.052 -13.466   4.142  1.00  0.00     0.145 C 
HETATM    3  N   UNL     1      42.620 -14.100   2.945  1.00  0.00    -0.335 N 
HETATM    4  C   UNL     1      43.152 -15.387   3.014  1.00  0.00     0.255 C 
HETATM    5  O   UNL     1      43.640 -15.966   2.050  1.00  0.00    -0.267 OA
HETATM    6  C   UNL     1      43.019 -16.101   4.322  1.00  0.00     0.039 A 
HETATM    7  C   UNL     1      42.024 -15.704   5.247  1.00  0.00    -0.027 A 
HETATM    8  C   UNL     1      43.835 -17.205   4.580  1.00  0.00     0.017 A 
HETATM    9  C   UNL     1      43.675 -17.921   5.765  1.00  0.00     0.001 A 
HETATM   10  C   UNL     1      42.685 -17.550   6.674  1.00  0.00     0.001 A 
HETATM   11  C   UNL     1      41.853 -16.456   6.414  1.00  0.00     0.009 A 
ENDROOT
BRANCH   1  12
HETATM   12  C   UNL     1      40.303 -13.803   5.890  1.00  0.00     0.229 C 
HETATM   13  N   UNL     1      40.257 -12.434   5.691  1.00  0.00    -0.356 N 
HETATM   14  H   UNL     1      40.715 -12.068   4.858  1.00  0.00     0.162 HD
HETATM   15  O   UNL     1      39.731 -14.369   6.811  1.00  0.00    -0.273 OA
BRANCH  13  16
HETATM   16  C   UNL     1      39.640 -11.438   6.564  1.00  0.00     0.087 C 
HETATM   17  C   UNL     1      40.585 -10.337   7.050  1.00  0.00     0.045 C 
HETATM   18  C   UNL     1      40.575  -9.065   6.209  1.00  0.00     0.130 C 
HETATM   19  N   UNL     1      39.223  -8.642   5.867  1.00  0.00    -0.328 N 
HETATM   20  C   UNL     1      38.897  -7.305   5.679  1.00  0.00     0.362 C 
HETATM   21  C   UNL     1      38.387  -9.644   5.224  1.00  0.00     0.130 C 
HETATM   22  O   UNL     1      37.859  -6.920   5.154  1.00  0.00    -0.238 OA
HETATM   23  C   UNL     1      38.295 -10.918   6.052  1.00  0.00     0.045 C 
BRANCH  20  24
HETATM   24  O   UNL     1      39.851  -6.462   6.163  1.00  0.00    -0.304 OA
BRANCH  24  25
HETATM   25  C   UNL     1      40.297  -5.436   5.265  1.00  0.00     0.176 C 
HETATM   26  C   UNL     1      41.807  -5.301   5.320  1.00  0.00     0.034 C 
ENDBRANCH  24  25
ENDBRANCH  20  24
ENDBRANCH  13  16
ENDBRANCH   1  12
BRANCH   2  27
HETATM   27  C   UNL     1      43.179 -12.829   4.958  1.00  0.00     0.006 A 
HETATM   28  S   UNL     1      44.003 -11.452   4.315  1.00  0.00    -0.104 SA
HETATM   29  C   UNL     1      45.021 -11.323   5.676  1.00  0.00     0.050 A 
HETATM   30  C   UNL     1      44.731 -12.272   6.627  1.00  0.00     0.008 A 
HETATM   31  C   UNL     1      43.668 -13.130   6.219  1.00  0.00     0.017 A 
ENDBRANCH   2  27
BRANCH   3  32
HETATM   32  C   UNL     1      42.305 -13.524   1.635  1.00  0.00     0.153 C 
BRANCH  32  33
HETATM   33  C   UNL     1      40.819 -13.699   1.274  1.00  0.00     0.187 C 
BRANCH  33  34
HETATM   34  O   UNL     1      40.565 -14.938   0.584  1.00  0.00    -0.394 OA
HETATM   35  C   UNL     1      39.878 -15.881   1.402  1.00  0.00     0.201 C 
ENDBRANCH  33  34
ENDBRANCH  32  33
ENDBRANCH   3  32
TORSDOF 8
ENDMDL
MODEL 3
REMARK VINA RESULT:      -7.4      3.155      9.586
REMARK  8 active torsions:
REMARK  status: ('A' for Active; 'I' for Inactive)
REMARK    1  A    between atoms: C_2  and  O_3 
REMARK    2  A    between atoms: O_3  and  C_4 
REMARK       I    between atoms: C_4  and  N_5 
REMARK    3  A    between atoms: C_8  and  N_9 
REMARK       I    between atoms: N_9  and  C_10 
REMARK    4  A    between atoms: C_10  and  C_11 
REMARK    5  A    between atoms: C_12  and  C_13 
REMARK    6  A    between atoms: N_18  and  C_19 
REMARK    7  A    between atoms: C_19  and  C_20 
REMARK    8  A    between atoms: C_20  and  O_21 
ROOT
HETATM    1  C   UNL     1      43.487  -8.520   9.335  1.00  0.00     0.139 C 
HETATM    2  C   UNL     1      42.258  -8.285   8.433  1.00  0.00     0.145 C 
HETATM    3  N   UNL     1      41.989  -6.841   8.400  1.00  0.00    -0.335 N 
HETATM    4  C   UNL     1      42.020  -6.092   9.575  1.00  0.00     0.255 C 
HETATM    5  O   UNL     1      41.803  -4.885   9.610  1.00  0.00    -0.267 OA
HETATM    6  C   UNL     1      42.434  -6.810  10.821  1.00  0.00     0.039 A 
HETATM    7  C   UNL     1      43.188  -8.003  10.732  1.00  0.00    -0.027 A 
HETATM    8  C   UNL     1      42.132  -6.245  12.063  1.00  0.00     0.017 A 
HETATM    9  C   UNL     1      42.570  -6.867  13.230  1.00  0.00     0.001 A 
HETATM   10  C   UNL     1      43.331  -8.034  13.153  1.00  0.00     0.001 A 
HETATM   11  C   UNL     1      43.652  -8.595  11.913  1.00  0.00     0.009 A 
ENDROOT
BRANCH   1  12
HETATM   12  C   UNL     1      44.001  -9.935   9.120  1.00  0.00     0.229 C 
HETATM   13  N   UNL     1      44.271 -10.199   7.788  1.00  0.00    -0.356 N 
HETATM   14  H   UNL     1      44.188  -9.424   7.132  1.00  0.00     0.162 HD
HETATM   15  O   UNL     1      44.136 -10.761  10.011  1.00  0.00    -0.273 OA
BRANCH  13  16
HETATM   16  C   UNL     1      44.642 -11.487   7.205  1.00  0.00     0.087 C 
HETATM   17  C   UNL     1      43.591 -12.588   7.359  1.00  0.00     0.045 C 
HETATM   18  C   UNL     1      42.644 -12.742   6.174  1.00  0.00     0.130 C 
HETATM   19  N   UNL     1      43.349 -12.704   4.899  1.00  0.00    -0.328 N 
HETATM   20  C   UNL     1      42.889 -13.395   3.785  1.00  0.00     0.362 C 
HETATM   21  C   UNL     1      44.202 -11.548   4.678  1.00  0.00     0.130 C 
HETATM   22  O   UNL     1      43.291 -13.201   2.643  1.00  0.00    -0.238 OA
HETATM   23  C   UNL     1      45.224 -11.379   5.793  1.00  0.00     0.045 C 
BRANCH  20  24
HETATM   24  O   UNL     1      41.952 -14.332   4.101  1.00  0.00    -0.304 OA
BRANCH  24  25
HETATM   25  C   UNL     1      40.976 -14.613   3.088  1.00  0.00     0.176 C 
HETATM   26  C   UNL     1      41.021 -16.078   2.697  1.00  0.00     0.034 C 
ENDBRANCH  24  25
ENDBRANCH  20  24
ENDBRANCH  13  16
ENDBRANCH   1  12
BRANCH   2  27
HETATM   27  C   UNL     1      40.973  -9.029   8.802  1.00  0.00     0.006 A 
HETATM   28  S   UNL     1      40.099  -9.857   7.561  1.00  0.00    -0.104 SA
HETATM   29  C   UNL     1      38.903 -10.397   8.650  1.00  0.00     0.050 A 
HETATM   30  C   UNL     1      39.165 -10.002   9.940  1.00  0.00     0.008 A 
HETATM   31  C   UNL     1      40.357  -9.224  10.028  1.00  0.00     0.017 A 
ENDBRANCH   2  27
BRANCH   3  32
HETATM   32  C   UNL     1      42.041  -6.152   7.108  1.00  0.00     0.153 C 
BRANCH  32  33
HETATM   33  C   UNL     1      40.695  -6.227   6.365  1.00  0.00     0.187 C 
BRANCH  33  34
HETATM   34  O   UNL     1      39.645  -5.526   7.061  1.00  0.00    -0.394 OA
HETATM   35  C   UNL     1      38.558  -6.381   7.401  1.00  0.00     0.201 C 
ENDBRANCH  33  34
ENDBRANCH  32  33
ENDBRANCH   3  32
TORSDOF 8
ENDMDL
MODEL 4
REMARK VINA RESULT:      -7.4      3.304      9.652
REMARK  8 active torsions:
REMARK  status: ('A' for Active; 'I' for Inactive)
REMARK    1  A    between atoms: C_2  and  O_3 
REMARK    2  A    between atoms: O_3  and  C_4 
REMARK       I    between atoms: C_4  and  N_5 
REMARK    3  A    between atoms: C_8  and  N_9 
REMARK       I    between atoms: N_9  and  C_10 
REMARK    4  A    between atoms: C_10  and  C_11 
REMARK    5  A    between atoms: C_12  and  C_13 
REMARK    6  A    between atoms: N_18  and  C_19 
REMARK    7  A    between atoms: C_19  and  C_20 
REMARK    8  A    between atoms: C_20  and  O_21 
ROOT
HETATM    1  C   UNL     1      44.127  -8.216   9.545  1.00  0.00     0.139 C 
HETATM    2  C   UNL     1      42.977  -7.275   9.131  1.00  0.00     0.145 C 
HETATM    3  N   UNL     1      42.641  -6.434  10.288  1.00  0.00    -0.335 N 
HETATM    4  C   UNL     1      42.524  -6.998  11.558  1.00  0.00     0.255 C 
HETATM    5  O   UNL     1      42.245  -6.348  12.560  1.00  0.00    -0.267 OA
HETATM    6  C   UNL     1      42.856  -8.452  11.683  1.00  0.00     0.039 A 
HETATM    7  C   UNL     1      43.674  -9.076  10.712  1.00  0.00    -0.027 A 
HETATM    8  C   UNL     1      42.412  -9.156  12.805  1.00  0.00     0.017 A 
HETATM    9  C   UNL     1      42.771 -10.493  12.968  1.00  0.00     0.001 A 
HETATM   10  C   UNL     1      43.593 -11.113  12.027  1.00  0.00     0.001 A 
HETATM   11  C   UNL     1      44.055 -10.408  10.911  1.00  0.00     0.009 A 
ENDROOT
BRANCH   1  12
HETATM   12  C   UNL     1      44.729  -8.846   8.299  1.00  0.00     0.229 C 
HETATM   13  N   UNL     1      43.916  -9.828   7.760  1.00  0.00    -0.356 N 
HETATM   14  H   UNL     1      42.999  -9.958   8.183  1.00  0.00     0.162 HD
HETATM   15  O   UNL     1      45.820  -8.545   7.835  1.00  0.00    -0.273 OA
BRANCH  13  16
HETATM   16  C   UNL     1      44.239 -10.729   6.656  1.00  0.00     0.087 C 
HETATM   17  C   UNL     1      44.724 -12.117   7.080  1.00  0.00     0.045 C 
HETATM   18  C   UNL     1      43.637 -13.184   7.146  1.00  0.00     0.130 C 
HETATM   19  N   UNL     1      42.754 -13.142   5.988  1.00  0.00    -0.328 N 
HETATM   20  C   UNL     1      42.131 -14.283   5.498  1.00  0.00     0.362 C 
HETATM   21  C   UNL     1      42.140 -11.856   5.703  1.00  0.00     0.130 C 
HETATM   22  O   UNL     1      41.201 -14.267   4.700  1.00  0.00    -0.238 OA
HETATM   23  C   UNL     1      43.179 -10.755   5.551  1.00  0.00     0.045 C 
BRANCH  20  24
HETATM   24  O   UNL     1      42.683 -15.429   5.984  1.00  0.00    -0.304 OA
BRANCH  24  25
HETATM   25  C   UNL     1      43.028 -16.424   5.009  1.00  0.00     0.176 C 
HETATM   26  C   UNL     1      44.394 -17.012   5.308  1.00  0.00     0.034 C 
ENDBRANCH  24  25
ENDBRANCH  20  24
ENDBRANCH  13  16
ENDBRANCH   1  12
BRANCH   2  27
HETATM   27  C   UNL     1      41.703  -7.930   8.596  1.00  0.00     0.006 A 
HETATM   28  S   UNL     1      41.203  -7.589   6.976  1.00  0.00    -0.104 SA
HETATM   29  C   UNL     1      39.834  -8.598   7.098  1.00  0.00     0.050 A 
HETATM   30  C   UNL     1      39.761  -9.220   8.321  1.00  0.00     0.008 A 
HETATM   31  C   UNL     1      40.838  -8.843   9.177  1.00  0.00     0.017 A 
ENDBRANCH   2  27
BRANCH   3  32
HETATM   32  C   UNL     1      42.778  -4.981  10.158  1.00  0.00     0.153 C 
BRANCH  32  33
HETATM   33  C   UNL     1      41.523  -4.342   9.535  1.00  0.00     0.187 C 
BRANCH  33  34
HETATM   34  O   UNL     1      40.305  -4.931  10.030  1.00  0.00    -0.394 OA
HETATM   35  C   UNL     1      39.306  -5.034   9.019  1.00  0.00     0.201 C 
ENDBRANCH  33  34
ENDBRANCH  32  33
ENDBRANCH   3  32
TORSDOF 8
ENDMDL
MODEL 5
REMARK VINA RESULT:      -7.3      3.648      6.172
REMARK  8 active torsions:
REMARK  status: ('A' for Active; 'I' for Inactive)
REMARK    1  A    between atoms: C_2  and  O_3 
REMARK    2  A    between atoms: O_3  and  C_4 
REMARK       I    between atoms: C_4  and  N_5 
REMARK    3  A    between atoms: C_8  and  N_9 
REMARK       I    between atoms: N_9  and  C_10 
REMARK    4  A    between atoms: C_10  and  C_11 
REMARK    5  A    between atoms: C_12  and  C_13 
REMARK    6  A    between atoms: N_18  and  C_19 
REMARK    7  A    between atoms: C_19  and  C_20 
REMARK    8  A    between atoms: C_20  and  O_21 
ROOT
HETATM    1  C   UNL     1      39.753 -12.950   0.881  1.00  0.00     0.139 C 
HETATM    2  C   UNL     1      39.781 -11.425   1.110  1.00  0.00     0.145 C 
HETATM    3  N   UNL     1      38.403 -10.926   1.008  1.00  0.00    -0.335 N 
HETATM    4  C   UNL     1      37.571 -11.361  -0.023  1.00  0.00     0.255 C 
HETATM    5  O   UNL     1      36.413 -10.980  -0.159  1.00  0.00    -0.267 OA
HETATM    6  C   UNL     1      38.118 -12.416  -0.931  1.00  0.00     0.039 A 
HETATM    7  C   UNL     1      39.184 -13.240  -0.497  1.00  0.00    -0.027 A 
HETATM    8  C   UNL     1      37.515 -12.624  -2.174  1.00  0.00     0.017 A 
HETATM    9  C   UNL     1      37.971 -13.647  -3.001  1.00  0.00     0.001 A 
HETATM   10  C   UNL     1      39.008 -14.477  -2.576  1.00  0.00     0.001 A 
HETATM   11  C   UNL     1      39.605 -14.286  -1.325  1.00  0.00     0.009 A 
ENDROOT
BRANCH   1  12
HETATM   12  C   UNL     1      41.083 -13.544   1.317  1.00  0.00     0.229 C 
HETATM   13  N   UNL     1      41.544 -12.992   2.499  1.00  0.00    -0.356 N 
HETATM   14  H   UNL     1      40.928 -12.339   2.981  1.00  0.00     0.162 HD
HETATM   15  O   UNL     1      41.697 -14.393   0.686  1.00  0.00    -0.273 OA
BRANCH  13  16
HETATM   16  C   UNL     1      42.842 -13.222   3.131  1.00  0.00     0.087 C 
HETATM   17  C   UNL     1      43.729 -11.980   3.246  1.00  0.00     0.045 C 
HETATM   18  C   UNL     1      43.627 -11.240   4.575  1.00  0.00     0.130 C 
HETATM   19  N   UNL     1      43.650 -12.149   5.714  1.00  0.00    -0.328 N 
HETATM   20  C   UNL     1      44.172 -11.772   6.945  1.00  0.00     0.362 C 
HETATM   21  C   UNL     1      42.667 -13.221   5.691  1.00  0.00     0.130 C 
HETATM   22  O   UNL     1      43.991 -12.394   7.985  1.00  0.00    -0.238 OA
HETATM   23  C   UNL     1      42.764 -14.048   4.417  1.00  0.00     0.045 C 
BRANCH  20  24
HETATM   24  O   UNL     1      44.929 -10.643   6.867  1.00  0.00    -0.304 OA
BRANCH  24  25
HETATM   25  C   UNL     1      46.003 -10.539   7.812  1.00  0.00     0.176 C 
HETATM   26  C   UNL     1      45.866  -9.274   8.638  1.00  0.00     0.034 C 
ENDBRANCH  24  25
ENDBRANCH  20  24
ENDBRANCH  13  16
ENDBRANCH   1  12
BRANCH   2  27
HETATM   27  C   UNL     1      40.685 -10.602   0.190  1.00  0.00     0.006 A 
HETATM   28  S   UNL     1      41.125  -8.998   0.665  1.00  0.00    -0.104 SA
HETATM   29  C   UNL     1      42.061  -8.752  -0.738  1.00  0.00     0.050 A 
HETATM   30  C   UNL     1      42.084  -9.865  -1.544  1.00  0.00     0.008 A 
HETATM   31  C   UNL     1      41.301 -10.929  -1.007  1.00  0.00     0.017 A 
ENDBRANCH   2  27
BRANCH   3  32
HETATM   32  C   UNL     1      37.814 -10.261   2.173  1.00  0.00     0.153 C 
BRANCH  32  33
HETATM   33  C   UNL     1      38.708 -10.394   3.420  1.00  0.00     0.187 C 
BRANCH  33  34
HETATM   34  O   UNL     1      38.429  -9.379   4.404  1.00  0.00    -0.394 OA
HETATM   35  C   UNL     1      39.610  -8.715   4.845  1.00  0.00     0.201 C 
ENDBRANCH  33  34
ENDBRANCH  32  33
ENDBRANCH   3  32
TORSDOF 8
ENDMDL
MODEL 6
REMARK VINA RESULT:      -7.3      4.282      7.978
REMARK  8 active torsions:
REMARK  status: ('A' for Active; 'I' for Inactive)
REMARK    1  A    between atoms: C_2  and  O_3 
REMARK    2  A    between atoms: O_3  and  C_4 
REMARK       I    between atoms: C_4  and  N_5 
REMARK    3  A    between atoms: C_8  and  N_9 
REMARK       I    between atoms: N_9  and  C_10 
REMARK    4  A    between atoms: C_10  and  C_11 
REMARK    5  A    between atoms: C_12  and  C_13 
REMARK    6  A    between atoms: N_18  and  C_19 
REMARK    7  A    between atoms: C_19  and  C_20 
REMARK    8  A    between atoms: C_20  and  O_21 
ROOT
HETATM    1  C   UNL     1      40.199 -11.743   1.505  1.00  0.00     0.139 C 
HETATM    2  C   UNL     1      40.037 -10.213   1.402  1.00  0.00     0.145 C 
HETATM    3  N   UNL     1      38.602  -9.914   1.310  1.00  0.00    -0.335 N 
HETATM    4  C   UNL     1      37.779 -10.660   0.468  1.00  0.00     0.255 C 
HETATM    5  O   UNL     1      36.575 -10.456   0.349  1.00  0.00    -0.267 OA
HETATM    6  C   UNL     1      38.411 -11.818  -0.239  1.00  0.00     0.039 A 
HETATM    7  C   UNL     1      39.598 -12.395   0.271  1.00  0.00    -0.027 A 
HETATM    8  C   UNL     1      37.773 -12.364  -1.355  1.00  0.00     0.017 A 
HETATM    9  C   UNL     1      38.314 -13.484  -1.981  1.00  0.00     0.001 A 
HETATM   10  C   UNL     1      39.474 -14.072  -1.476  1.00  0.00     0.001 A 
HETATM   11  C   UNL     1      40.108 -13.541  -0.348  1.00  0.00     0.009 A 
ENDROOT
BRANCH   1  12
HETATM   12  C   UNL     1      41.617 -12.066   1.946  1.00  0.00     0.229 C 
HETATM   13  N   UNL     1      41.818 -13.425   2.119  1.00  0.00    -0.356 N 
HETATM   14  H   UNL     1      41.055 -14.047   1.857  1.00  0.00     0.162 HD
HETATM   15  O   UNL     1      42.481 -11.226   2.155  1.00  0.00    -0.273 OA
BRANCH  13  16
HETATM   16  C   UNL     1      43.007 -14.076   2.666  1.00  0.00     0.087 C 
HETATM   17  C   UNL     1      42.815 -14.705   4.048  1.00  0.00     0.045 C 
HETATM   18  C   UNL     1      42.461 -16.188   4.035  1.00  0.00     0.130 C 
HETATM   19  N   UNL     1      43.285 -16.941   3.099  1.00  0.00    -0.328 N 
HETATM   20  C   UNL     1      43.607 -18.276   3.312  1.00  0.00     0.362 C 
HETATM   21  C   UNL     1      43.308 -16.446   1.731  1.00  0.00     0.130 C 
HETATM   22  O   UNL     1      44.074 -19.014   2.453  1.00  0.00    -0.238 OA
HETATM   23  C   UNL     1      43.727 -14.985   1.667  1.00  0.00     0.045 C 
BRANCH  20  24
HETATM   24  O   UNL     1      43.367 -18.672   4.593  1.00  0.00    -0.304 OA
BRANCH  24  25
HETATM   25  C   UNL     1      44.305 -19.603   5.149  1.00  0.00     0.176 C 
HETATM   26  C   UNL     1      43.693 -20.988   5.239  1.00  0.00     0.034 C 
ENDBRANCH  24  25
ENDBRANCH  20  24
ENDBRANCH  13  16
ENDBRANCH   1  12
BRANCH   2  27
HETATM   27  C   UNL     1      40.772  -9.513   0.257  1.00  0.00     0.006 A 
HETATM   28  S   UNL     1      40.895  -7.788   0.272  1.00  0.00    -0.104 SA
HETATM   29  C   UNL     1      41.775  -7.757  -1.188  1.00  0.00     0.050 A 
HETATM   30  C   UNL     1      42.015  -9.020  -1.671  1.00  0.00     0.008 A 
HETATM   31  C   UNL     1      41.447 -10.028  -0.838  1.00  0.00     0.017 A 
ENDBRANCH   2  27
BRANCH   3  32
HETATM   32  C   UNL     1      37.995  -9.082   2.353  1.00  0.00     0.153 C 
BRANCH  32  33
HETATM   33  C   UNL     1      38.887  -8.991   3.604  1.00  0.00     0.187 C 
BRANCH  33  34
HETATM   34  O   UNL     1      38.129  -8.709   4.797  1.00  0.00    -0.394 OA
HETATM   35  C   UNL     1      38.956  -8.623   5.954  1.00  0.00     0.201 C 
ENDBRANCH  33  34
ENDBRANCH  32  33
ENDBRANCH   3  32
TORSDOF 8
ENDMDL
MODEL 7
REMARK VINA RESULT:      -7.2      2.844      7.668
REMARK  8 active torsions:
REMARK  status: ('A' for Active; 'I' for Inactive)
REMARK    1  A    between atoms: C_2  and  O_3 
REMARK    2  A    between atoms: O_3  and  C_4 
REMARK       I    between atoms: C_4  and  N_5 
REMARK    3  A    between atoms: C_8  and  N_9 
REMARK       I    between atoms: N_9  and  C_10 
REMARK    4  A    between atoms: C_10  and  C_11 
REMARK    5  A    between atoms: C_12  and  C_13 
REMARK    6  A    between atoms: N_18  and  C_19 
REMARK    7  A    between atoms: C_19  and  C_20 
REMARK    8  A    between atoms: C_20  and  O_21 
ROOT
HETATM    1  C   UNL     1      40.369 -10.677   6.567  1.00  0.00     0.139 C 
HETATM    2  C   UNL     1      41.909 -10.748   6.509  1.00  0.00     0.145 C 
HETATM    3  N   UNL     1      42.442  -9.472   7.006  1.00  0.00    -0.335 N 
HETATM    4  C   UNL     1      41.883  -8.265   6.588  1.00  0.00     0.255 C 
HETATM    5  O   UNL     1      42.285  -7.170   6.967  1.00  0.00    -0.267 OA
HETATM    6  C   UNL     1      40.675  -8.350   5.708  1.00  0.00     0.039 A 
HETATM    7  C   UNL     1      39.888  -9.526   5.700  1.00  0.00    -0.027 A 
HETATM    8  C   UNL     1      40.297  -7.232   4.961  1.00  0.00     0.017 A 
HETATM    9  C   UNL     1      39.138  -7.275   4.191  1.00  0.00     0.001 A 
HETATM   10  C   UNL     1      38.344  -8.422   4.190  1.00  0.00     0.001 A 
HETATM   11  C   UNL     1      38.707  -9.539   4.950  1.00  0.00     0.009 A 
ENDROOT
BRANCH   1  12
HETATM   12  C   UNL     1      39.798 -12.075   6.397  1.00  0.00     0.229 C 
HETATM   13  N   UNL     1      40.781 -13.049   6.402  1.00  0.00    -0.356 N 
HETATM   14  H   UNL     1      41.734 -12.750   6.601  1.00  0.00     0.162 HD
HETATM   15  O   UNL     1      38.610 -12.319   6.243  1.00  0.00    -0.273 OA
BRANCH  13  16
HETATM   16  C   UNL     1      40.610 -14.474   6.124  1.00  0.00     0.087 C 
HETATM   17  C   UNL     1      40.683 -14.853   4.643  1.00  0.00     0.045 C 
HETATM   18  C   UNL     1      42.059 -15.302   4.162  1.00  0.00     0.130 C 
HETATM   19  N   UNL     1      42.689 -16.231   5.091  1.00  0.00    -0.328 N 
HETATM   20  C   UNL     1      43.571 -17.214   4.662  1.00  0.00     0.362 C 
HETATM   21  C   UNL     1      42.791 -15.780   6.470  1.00  0.00     0.130 C 
HETATM   22  O   UNL     1      44.310 -17.846   5.408  1.00  0.00    -0.238 OA
HETATM   23  C   UNL     1      41.435 -15.384   7.037  1.00  0.00     0.045 C 
BRANCH  20  24
HETATM   24  O   UNL     1      43.512 -17.418   3.317  1.00  0.00    -0.304 OA
BRANCH  24  25
HETATM   25  C   UNL     1      44.136 -18.615   2.834  1.00  0.00     0.176 C 
HETATM   26  C   UNL     1      43.119 -19.509   2.151  1.00  0.00     0.034 C 
ENDBRANCH  24  25
ENDBRANCH  20  24
ENDBRANCH  13  16
ENDBRANCH   1  12
BRANCH   2  27
HETATM   27  C   UNL     1      42.538 -11.062   5.150  1.00  0.00     0.006 A 
HETATM   28  S   UNL     1      44.178 -11.606   5.092  1.00  0.00    -0.104 SA
HETATM   29  C   UNL     1      44.159 -11.741   3.392  1.00  0.00     0.050 A 
HETATM   30  C   UNL     1      42.931 -11.423   2.864  1.00  0.00     0.008 A 
HETATM   31  C   UNL     1      41.999 -11.042   3.873  1.00  0.00     0.017 A 
ENDBRANCH   2  27
BRANCH   3  32
HETATM   32  C   UNL     1      43.307  -9.491   8.188  1.00  0.00     0.153 C 
BRANCH  32  33
HETATM   33  C   UNL     1      43.978 -10.863   8.384  1.00  0.00     0.187 C 
BRANCH  33  34
HETATM   34  O   UNL     1      44.700 -10.946   9.629  1.00  0.00    -0.394 OA
HETATM   35  C   UNL     1      45.238  -9.688  10.026  1.00  0.00     0.201 C 
ENDBRANCH  33  34
ENDBRANCH  32  33
ENDBRANCH   3  32
TORSDOF 8
ENDMDL
MODEL 8
REMARK VINA RESULT:      -7.2     16.517     18.338
REMARK  8 active torsions:
REMARK  status: ('A' for Active; 'I' for Inactive)
REMARK    1  A    between atoms: C_2  and  O_3 
REMARK    2  A    between atoms: O_3  and  C_4 
REMARK       I    between atoms: C_4  and  N_5 
REMARK    3  A    between atoms: C_8  and  N_9 
REMARK       I    between atoms: N_9  and  C_10 
REMARK    4  A    between atoms: C_10  and  C_11 
REMARK    5  A    between atoms: C_12  and  C_13 
REMARK    6  A    between atoms: N_18  and  C_19 
REMARK    7  A    between atoms: C_19  and  C_20 
REMARK    8  A    between atoms: C_20  and  O_21 
ROOT
HETATM    1  C   UNL     1      46.308 -30.162   0.116  1.00  0.00     0.139 C 
HETATM    2  C   UNL     1      45.245 -31.105   0.716  1.00  0.00     0.145 C 
HETATM    3  N   UNL     1      44.906 -32.111  -0.299  1.00  0.00    -0.335 N 
HETATM    4  C   UNL     1      44.688 -31.731  -1.623  1.00  0.00     0.255 C 
HETATM    5  O   UNL     1      44.402 -32.525  -2.513  1.00  0.00    -0.267 OA
HETATM    6  C   UNL     1      44.917 -30.290  -1.956  1.00  0.00     0.039 A 
HETATM    7  C   UNL     1      45.741 -29.494  -1.126  1.00  0.00    -0.027 A 
HETATM    8  C   UNL     1      44.372 -29.769  -3.132  1.00  0.00     0.017 A 
HETATM    9  C   UNL     1      44.633 -28.449  -3.489  1.00  0.00     0.001 A 
HETATM   10  C   UNL     1      45.459 -27.661  -2.688  1.00  0.00     0.001 A 
HETATM   11  C   UNL     1      46.023 -28.181  -1.518  1.00  0.00     0.009 A 
ENDROOT
BRANCH   1  12
HETATM   12  C   UNL     1      46.930 -29.337   1.231  1.00  0.00     0.229 C 
HETATM   13  N   UNL     1      47.540 -30.125   2.191  1.00  0.00    -0.356 N 
HETATM   14  H   UNL     1      47.586 -31.127   2.012  1.00  0.00     0.162 HD
HETATM   15  O   UNL     1      46.877 -28.117   1.296  1.00  0.00    -0.273 OA
BRANCH  13  16
HETATM   16  C   UNL     1      48.110 -29.681   3.461  1.00  0.00     0.087 C 
HETATM   17  C   UNL     1      47.858 -30.622   4.642  1.00  0.00     0.045 C 
HETATM   18  C   UNL     1      48.974 -31.625   4.914  1.00  0.00     0.130 C 
HETATM   19  N   UNL     1      50.293 -31.007   4.860  1.00  0.00    -0.328 N 
HETATM   20  C   UNL     1      51.355 -31.475   5.623  1.00  0.00     0.362 C 
HETATM   21  C   UNL     1      50.601 -30.272   3.643  1.00  0.00     0.130 C 
HETATM   22  O   UNL     1      52.525 -31.163   5.434  1.00  0.00    -0.238 OA
HETATM   23  C   UNL     1      49.560 -29.201   3.352  1.00  0.00     0.045 C 
BRANCH  20  24
HETATM   24  O   UNL     1      50.952 -32.305   6.625  1.00  0.00    -0.304 OA
BRANCH  24  25
HETATM   25  C   UNL     1      51.977 -32.745   7.527  1.00  0.00     0.176 C 
HETATM   26  C   UNL     1      51.363 -33.364   8.769  1.00  0.00     0.034 C 
ENDBRANCH  24  25
ENDBRANCH  20  24
ENDBRANCH  13  16
ENDBRANCH   1  12
BRANCH   2  27
HETATM   27  C   UNL     1      43.959 -30.459   1.236  1.00  0.00     0.006 A 
HETATM   28  S   UNL     1      43.352 -30.930   2.785  1.00  0.00    -0.104 SA
HETATM   29  C   UNL     1      42.022 -29.869   2.678  1.00  0.00     0.050 A 
HETATM   30  C   UNL     1      42.041 -29.136   1.516  1.00  0.00     0.008 A 
HETATM   31  C   UNL     1      43.157 -29.468   0.693  1.00  0.00     0.017 A 
ENDBRANCH   2  27
BRANCH   3  32
HETATM   32  C   UNL     1      45.144 -33.523   0.012  1.00  0.00     0.153 C 
BRANCH  32  33
HETATM   33  C   UNL     1      43.946 -34.159   0.740  1.00  0.00     0.187 C 
BRANCH  33  34
HETATM   34  O   UNL     1      42.762 -34.194  -0.081  1.00  0.00    -0.394 OA
HETATM   35  C   UNL     1      41.705 -33.409   0.463  1.00  0.00     0.201 C 
ENDBRANCH  33  34
ENDBRANCH  32  33
ENDBRANCH   3  32
TORSDOF 8
ENDMDL
MODEL 9
REMARK VINA RESULT:      -7.2      3.055      7.859
REMARK  8 active torsions:
REMARK  status: ('A' for Active; 'I' for Inactive)
REMARK    1  A    between atoms: C_2  and  O_3 
REMARK    2  A    between atoms: O_3  and  C_4 
REMARK       I    between atoms: C_4  and  N_5 
REMARK    3  A    between atoms: C_8  and  N_9 
REMARK       I    between atoms: N_9  and  C_10 
REMARK    4  A    between atoms: C_10  and  C_11 
REMARK    5  A    between atoms: C_12  and  C_13 
REMARK    6  A    between atoms: N_18  and  C_19 
REMARK    7  A    between atoms: C_19  and  C_20 
REMARK    8  A    between atoms: C_20  and  O_21 
ROOT
HETATM    1  C   UNL     1      39.955 -11.011   4.713  1.00  0.00     0.139 C 
HETATM    2  C   UNL     1      41.023 -10.229   5.506  1.00  0.00     0.145 C 
HETATM    3  N   UNL     1      40.957  -8.822   5.089  1.00  0.00    -0.335 N 
HETATM    4  C   UNL     1      40.854  -8.491   3.738  1.00  0.00     0.255 C 
HETATM    5  O   UNL     1      40.796  -7.336   3.330  1.00  0.00    -0.267 OA
HETATM    6  C   UNL     1      40.714  -9.628   2.775  1.00  0.00     0.039 A 
HETATM    7  C   UNL     1      40.242 -10.883   3.227  1.00  0.00    -0.027 A 
HETATM    8  C   UNL     1      40.980  -9.409   1.421  1.00  0.00     0.017 A 
HETATM    9  C   UNL     1      40.788 -10.440   0.504  1.00  0.00     0.001 A 
HETATM   10  C   UNL     1      40.306 -11.676   0.935  1.00  0.00     0.001 A 
HETATM   11  C   UNL     1      40.020 -11.896   2.287  1.00  0.00     0.009 A 
ENDROOT
BRANCH   1  12
HETATM   12  C   UNL     1      39.756 -12.374   5.356  1.00  0.00     0.229 C 
HETATM   13  N   UNL     1      40.592 -13.337   4.817  1.00  0.00    -0.356 N 
HETATM   14  H   UNL     1      41.286 -13.026   4.140  1.00  0.00     0.162 HD
HETATM   15  O   UNL     1      38.933 -12.609   6.230  1.00  0.00    -0.273 OA
BRANCH  13  16
HETATM   16  C   UNL     1      40.574 -14.772   5.094  1.00  0.00     0.087 C 
HETATM   17  C   UNL     1      40.532 -15.665   3.852  1.00  0.00     0.045 C 
HETATM   18  C   UNL     1      41.892 -16.150   3.363  1.00  0.00     0.130 C 
HETATM   19  N   UNL     1      42.735 -16.617   4.457  1.00  0.00    -0.328 N 
HETATM   20  C   UNL     1      43.683 -17.616   4.279  1.00  0.00     0.362 C 
HETATM   21  C   UNL     1      42.930 -15.680   5.553  1.00  0.00     0.130 C 
HETATM   22  O   UNL     1      44.574 -17.866   5.083  1.00  0.00    -0.238 OA
HETATM   23  C   UNL     1      41.605 -15.211   6.137  1.00  0.00     0.045 C 
BRANCH  20  24
HETATM   24  O   UNL     1      43.502 -18.307   3.120  1.00  0.00    -0.304 OA
BRANCH  24  25
HETATM   25  C   UNL     1      43.945 -19.672   3.126  1.00  0.00     0.176 C 
HETATM   26  C   UNL     1      43.425 -20.405   1.904  1.00  0.00     0.034 C 
ENDBRANCH  24  25
ENDBRANCH  20  24
ENDBRANCH  13  16
ENDBRANCH   1  12
BRANCH   2  27
HETATM   27  C   UNL     1      42.467 -10.721   5.395  1.00  0.00     0.006 A 
HETATM   28  S   UNL     1      43.387 -10.948   6.842  1.00  0.00    -0.104 SA
HETATM   29  C   UNL     1      44.765 -11.467   5.982  1.00  0.00     0.050 A 
HETATM   30  C   UNL     1      44.539 -11.512   4.628  1.00  0.00     0.008 A 
HETATM   31  C   UNL     1      43.218 -11.092   4.292  1.00  0.00     0.017 A 
ENDBRANCH   2  27
BRANCH   3  32
HETATM   32  C   UNL     1      40.648  -7.808   6.101  1.00  0.00     0.153 C 
BRANCH  32  33
HETATM   33  C   UNL     1      41.903  -7.377   6.881  1.00  0.00     0.187 C 
BRANCH  33  34
HETATM   34  O   UNL     1      42.265  -6.006   6.621  1.00  0.00    -0.394 OA
HETATM   35  C   UNL     1      41.222  -5.098   6.963  1.00  0.00     0.201 C 
ENDBRANCH  33  34
ENDBRANCH  32  33
ENDBRANCH   3  32
TORSDOF 8
ENDMDL
MODEL 10
REMARK VINA RESULT:      -7.2      3.129      9.374
REMARK  8 active torsions:
REMARK  status: ('A' for Active; 'I' for Inactive)
REMARK    1  A    between atoms: C_2  and  O_3 
REMARK    2  A    between atoms: O_3  and  C_4 
REMARK       I    between atoms: C_4  and  N_5 
REMARK    3  A    between atoms: C_8  and  N_9 
REMARK       I    between atoms: N_9  and  C_10 
REMARK    4  A    between atoms: C_10  and  C_11 
REMARK    5  A    between atoms: C_12  and  C_13 
REMARK    6  A    between atoms: N_18  and  C_19 
REMARK    7  A    between atoms: C_19  and  C_20 
REMARK    8  A    between atoms: C_20  and  O_21 
ROOT
HETATM    1  C   UNL     1      41.774  -9.229   7.745  1.00  0.00     0.139 C 
HETATM    2  C   UNL     1      41.564  -8.377   9.013  1.00  0.00     0.145 C 
HETATM    3  N   UNL     1      42.603  -7.338   9.038  1.00  0.00    -0.335 N 
HETATM    4  C   UNL     1      43.928  -7.660   8.747  1.00  0.00     0.255 C 
HETATM    5  O   UNL     1      44.838  -6.838   8.753  1.00  0.00    -0.267 OA
HETATM    6  C   UNL     1      44.200  -9.068   8.317  1.00  0.00     0.039 A 
HETATM    7  C   UNL     1      43.155  -9.861   7.788  1.00  0.00    -0.027 A 
HETATM    8  C   UNL     1      45.509  -9.555   8.374  1.00  0.00     0.017 A 
HETATM    9  C   UNL     1      45.788 -10.840   7.914  1.00  0.00     0.001 A 
HETATM   10  C   UNL     1      44.768 -11.623   7.374  1.00  0.00     0.001 A 
HETATM   11  C   UNL     1      43.460 -11.135   7.297  1.00  0.00     0.009 A 
ENDROOT
BRANCH   1  12
HETATM   12  C   UNL     1      40.535 -10.077   7.503  1.00  0.00     0.229 C 
HETATM   13  N   UNL     1      40.797 -11.175   6.702  1.00  0.00    -0.356 N 
HETATM   14  H   UNL     1      41.767 -11.344   6.444  1.00  0.00     0.162 HD
HETATM   15  O   UNL     1      39.423  -9.811   7.939  1.00  0.00    -0.273 OA
BRANCH  13  16
HETATM   16  C   UNL     1      39.823 -12.118   6.156  1.00  0.00     0.087 C 
HETATM   17  C   UNL     1      39.279 -11.750   4.774  1.00  0.00     0.045 C 
HETATM   18  C   UNL     1      40.010 -12.398   3.603  1.00  0.00     0.130 C 
HETATM   19  N   UNL     1      40.269 -13.814   3.832  1.00  0.00    -0.328 N 
HETATM   20  C   UNL     1      40.334 -14.727   2.788  1.00  0.00     0.362 C 
HETATM   21  C   UNL     1      40.965 -14.141   5.067  1.00  0.00     0.130 C 
HETATM   22  O   UNL     1      40.790 -15.860   2.895  1.00  0.00    -0.238 OA
HETATM   23  C   UNL     1      40.244 -13.584   6.286  1.00  0.00     0.045 C 
BRANCH  20  24
HETATM   24  O   UNL     1      39.814 -14.234   1.630  1.00  0.00    -0.304 OA
BRANCH  24  25
HETATM   25  C   UNL     1      40.597 -14.447   0.447  1.00  0.00     0.176 C 
HETATM   26  C   UNL     1      39.708 -14.484  -0.781  1.00  0.00     0.034 C 
ENDBRANCH  24  25
ENDBRANCH  20  24
ENDBRANCH  13  16
ENDBRANCH   1  12
BRANCH   2  27
HETATM   27  C   UNL     1      41.557  -9.116  10.352  1.00  0.00     0.006 A 
HETATM   28  S   UNL     1      40.071  -9.247  11.228  1.00  0.00    -0.104 SA
HETATM   29  C   UNL     1      40.799 -10.128  12.493  1.00  0.00     0.050 A 
HETATM   30  C   UNL     1      42.133 -10.362  12.256  1.00  0.00     0.008 A 
HETATM   31  C   UNL     1      42.565  -9.788  11.024  1.00  0.00     0.017 A 
ENDBRANCH   2  27
BRANCH   3  32
HETATM   32  C   UNL     1      42.186  -5.934   9.022  1.00  0.00     0.153 C 
BRANCH  32  33
HETATM   33  C   UNL     1      40.653  -5.792   9.041  1.00  0.00     0.187 C 
BRANCH  33  34
HETATM   34  O   UNL     1      40.197  -4.912  10.087  1.00  0.00    -0.394 OA
HETATM   35  C   UNL     1      40.464  -5.435  11.386  1.00  0.00     0.201 C 
ENDBRANCH  33  34
ENDBRANCH  32  33
ENDBRANCH   3  32
TORSDOF 8
ENDMDL
