MODEL 1
REMARK VINA RESULT:     -10.1      0.000      0.000
REMARK  6 active torsions:
REMARK  status: ('A' for Active; 'I' for Inactive)
REMARK    1  A    between atoms: C_7  and  C_8 
REMARK    2  A    between atoms: C_8  and  O_9 
REMARK    3  A    between atoms: N_12  and  C_13 
REMARK    4  A    between atoms: C_13  and  C_14 
REMARK    5  A    between atoms: C_14  and  C_15 
REMARK    6  A    between atoms: C_15  and  C_16 
ROOT
HETATM    1  C   UNL     1      40.654 -13.374   5.934  1.00  0.00     0.199 A 
HETATM    2  C   UNL     1      40.904 -14.822   6.455  1.00  0.00     0.269 A 
HETATM    3  O   UNL     1      40.050 -15.682   6.631  1.00  0.00    -0.269 OA
HETATM    4  N   UNL     1      42.265 -14.914   6.799  1.00  0.00    -0.314 N 
HETATM    5  C   UNL     1      42.931 -13.708   6.529  1.00  0.00     0.047 A 
HETATM    6  C   UNL     1      42.033 -12.771   6.001  1.00  0.00     0.017 A 
HETATM    7  C   UNL     1      44.262 -13.391   6.737  1.00  0.00     0.030 A 
HETATM    8  C   UNL     1      44.691 -12.101   6.410  1.00  0.00     0.002 A 
HETATM    9  C   UNL     1      43.793 -11.154   5.893  1.00  0.00     0.001 A 
HETATM   10  C   UNL     1      42.453 -11.484   5.691  1.00  0.00     0.013 A 
ENDROOT
BRANCH   1  11
HETATM   11  C   UNL     1      40.171 -13.270   4.506  1.00  0.00     0.025 A 
HETATM   12  C   UNL     1      39.459 -12.206   3.948  1.00  0.00     0.016 A 
HETATM   13  C   UNL     1      38.987 -10.921   4.536  1.00  0.00     0.069 C 
HETATM   14  N   UNL     1      39.214 -12.496   2.632  1.00  0.00    -0.359 N 
HETATM   15  H   UNL     1      38.715 -11.899   1.988  1.00  0.00     0.166 HD
HETATM   16  C   UNL     1      39.764 -13.703   2.289  1.00  0.00     0.043 A 
HETATM   17  C   UNL     1      40.368 -14.221   3.435  1.00  0.00     0.003 A 
HETATM   18  C   UNL     1      39.769 -14.362   1.054  1.00  0.00     0.030 A 
HETATM   19  C   UNL     1      41.015 -15.472   3.322  1.00  0.00     0.014 A 
HETATM   20  C   UNL     1      41.033 -16.145   2.094  1.00  0.00     0.001 A 
HETATM   21  C   UNL     1      40.417 -15.595   0.975  1.00  0.00     0.002 A 
ENDBRANCH   1  11
BRANCH   1  22
HETATM   22  O   UNL     1      39.796 -12.711   6.864  1.00  0.00    -0.371 OA
HETATM   23  H   UNL     1      40.102 -11.786   6.849  1.00  0.00     0.212 HD
ENDBRANCH   1  22
BRANCH   4  24
HETATM   24  C   UNL     1      42.808 -16.015   7.562  1.00  0.00     0.133 C 
BRANCH  24  25
HETATM   25  C   UNL     1      42.994 -17.304   6.765  1.00  0.00     0.025 C 
BRANCH  25  26
HETATM   26  C   UNL     1      43.913 -17.133   5.553  1.00  0.00     0.040 C 
BRANCH  26  27
HETATM   27  C   UNL     1      43.873 -18.339   4.643  1.00  0.00    -0.058 A 
HETATM   28  C   UNL     1      43.664 -18.195   3.264  1.00  0.00     0.007 A 
HETATM   29  C   UNL     1      43.596 -19.317   2.436  1.00  0.00     0.001 A 
HETATM   30  C   UNL     1      43.745 -20.594   2.974  1.00  0.00     0.000 A 
HETATM   31  C   UNL     1      43.967 -20.750   4.341  1.00  0.00     0.001 A 
HETATM   32  C   UNL     1      44.031 -19.629   5.171  1.00  0.00     0.007 A 
ENDBRANCH  26  27
ENDBRANCH  25  26
ENDBRANCH  24  25
ENDBRANCH   4  24
TORSDOF 6
ENDMDL
MODEL 2
REMARK VINA RESULT:      -9.4      0.814      2.201
REMARK  6 active torsions:
REMARK  status: ('A' for Active; 'I' for Inactive)
REMARK    1  A    between atoms: C_7  and  C_8 
REMARK    2  A    between atoms: C_8  and  O_9 
REMARK    3  A    between atoms: N_12  and  C_13 
REMARK    4  A    between atoms: C_13  and  C_14 
REMARK    5  A    between atoms: C_14  and  C_15 
REMARK    6  A    between atoms: C_15  and  C_16 
ROOT
HETATM    1  C   UNL     1      40.719 -13.520   5.856  1.00  0.00     0.199 A 
HETATM    2  C   UNL     1      40.999 -14.943   6.425  1.00  0.00     0.269 A 
HETATM    3  O   UNL     1      40.168 -15.825   6.604  1.00  0.00    -0.269 OA
HETATM    4  N   UNL     1      42.352 -14.982   6.808  1.00  0.00    -0.314 N 
HETATM    5  C   UNL     1      42.988 -13.764   6.521  1.00  0.00     0.047 A 
HETATM    6  C   UNL     1      42.075 -12.871   5.942  1.00  0.00     0.017 A 
HETATM    7  C   UNL     1      44.302 -13.398   6.755  1.00  0.00     0.030 A 
HETATM    8  C   UNL     1      44.700 -12.105   6.403  1.00  0.00     0.002 A 
HETATM    9  C   UNL     1      43.787 -11.202   5.834  1.00  0.00     0.001 A 
HETATM   10  C   UNL     1      42.464 -11.580   5.605  1.00  0.00     0.013 A 
ENDROOT
BRANCH   1  11
HETATM   11  C   UNL     1      40.273 -13.472   4.412  1.00  0.00     0.025 A 
HETATM   12  C   UNL     1      40.431 -14.485   3.463  1.00  0.00     0.016 A 
HETATM   13  C   UNL     1      41.039 -15.842   3.562  1.00  0.00     0.069 C 
HETATM   14  N   UNL     1      39.893 -14.052   2.281  1.00  0.00    -0.359 N 
HETATM   15  H   UNL     1      39.871 -14.585   1.422  1.00  0.00     0.166 HD
HETATM   16  C   UNL     1      39.358 -12.799   2.419  1.00  0.00     0.043 A 
HETATM   17  C   UNL     1      39.579 -12.400   3.737  1.00  0.00     0.003 A 
HETATM   18  C   UNL     1      38.697 -12.003   1.475  1.00  0.00     0.030 A 
HETATM   19  C   UNL     1      39.101 -11.127   4.121  1.00  0.00     0.014 A 
HETATM   20  C   UNL     1      38.436 -10.316   3.192  1.00  0.00     0.001 A 
HETATM   21  C   UNL     1      38.237 -10.751   1.887  1.00  0.00     0.002 A 
ENDBRANCH   1  11
BRANCH   1  22
HETATM   22  O   UNL     1      39.815 -12.859   6.743  1.00  0.00    -0.371 OA
HETATM   23  H   UNL     1      39.982 -13.279   7.606  1.00  0.00     0.212 HD
ENDBRANCH   1  22
BRANCH   4  24
HETATM   24  C   UNL     1      42.909 -16.042   7.618  1.00  0.00     0.133 C 
BRANCH  24  25
HETATM   25  C   UNL     1      43.135 -17.355   6.870  1.00  0.00     0.025 C 
BRANCH  25  26
HETATM   26  C   UNL     1      43.944 -17.180   5.583  1.00  0.00     0.040 C 
BRANCH  26  27
HETATM   27  C   UNL     1      43.909 -18.422   4.723  1.00  0.00    -0.058 A 
HETATM   28  C   UNL     1      43.770 -18.331   3.331  1.00  0.00     0.007 A 
HETATM   29  C   UNL     1      43.705 -19.484   2.547  1.00  0.00     0.001 A 
HETATM   30  C   UNL     1      43.787 -20.741   3.144  1.00  0.00     0.000 A 
HETATM   31  C   UNL     1      43.939 -20.845   4.526  1.00  0.00     0.001 A 
HETATM   32  C   UNL     1      44.000 -19.692   5.311  1.00  0.00     0.007 A 
ENDBRANCH  26  27
ENDBRANCH  25  26
ENDBRANCH  24  25
ENDBRANCH   4  24
TORSDOF 6
ENDMDL
MODEL 3
REMARK VINA RESULT:      -8.9      2.033      4.721
REMARK  6 active torsions:
REMARK  status: ('A' for Active; 'I' for Inactive)
REMARK    1  A    between atoms: C_7  and  C_8 
REMARK    2  A    between atoms: C_8  and  O_9 
REMARK    3  A    between atoms: N_12  and  C_13 
REMARK    4  A    between atoms: C_13  and  C_14 
REMARK    5  A    between atoms: C_14  and  C_15 
REMARK    6  A    between atoms: C_15  and  C_16 
ROOT
HETATM    1  C   UNL     1      40.855 -12.280   4.760  1.00  0.00     0.199 A 
HETATM    2  C   UNL     1      41.675 -12.494   3.452  1.00  0.00     0.269 A 
HETATM    3  O   UNL     1      41.996 -11.624   2.652  1.00  0.00    -0.269 OA
HETATM    4  N   UNL     1      41.869 -13.878   3.300  1.00  0.00    -0.314 N 
HETATM    5  C   UNL     1      41.301 -14.583   4.374  1.00  0.00     0.047 A 
HETATM    6  C   UNL     1      40.705 -13.688   5.273  1.00  0.00     0.017 A 
HETATM    7  C   UNL     1      41.265 -15.949   4.589  1.00  0.00     0.030 A 
HETATM    8  C   UNL     1      40.611 -16.421   5.731  1.00  0.00     0.002 A 
HETATM    9  C   UNL     1      40.002 -15.530   6.629  1.00  0.00     0.001 A 
HETATM   10  C   UNL     1      40.041 -14.155   6.401  1.00  0.00     0.013 A 
ENDROOT
BRANCH   1  11
HETATM   11  C   UNL     1      41.541 -11.466   5.833  1.00  0.00     0.025 A 
HETATM   12  C   UNL     1      40.919 -10.624   6.758  1.00  0.00     0.016 A 
HETATM   13  C   UNL     1      39.483 -10.287   6.973  1.00  0.00     0.069 C 
HETATM   14  N   UNL     1      41.886 -10.074   7.556  1.00  0.00    -0.359 N 
HETATM   15  H   UNL     1      41.717  -9.424   8.312  1.00  0.00     0.166 HD
HETATM   16  C   UNL     1      43.126 -10.544   7.212  1.00  0.00     0.043 A 
HETATM   17  C   UNL     1      42.953 -11.414   6.136  1.00  0.00     0.003 A 
HETATM   18  C   UNL     1      44.375 -10.262   7.779  1.00  0.00     0.030 A 
HETATM   19  C   UNL     1      44.107 -12.035   5.607  1.00  0.00     0.014 A 
HETATM   20  C   UNL     1      45.365 -11.767   6.162  1.00  0.00     0.001 A 
HETATM   21  C   UNL     1      45.495 -10.892   7.234  1.00  0.00     0.002 A 
ENDBRANCH   1  11
BRANCH   1  22
HETATM   22  O   UNL     1      39.573 -11.764   4.399  1.00  0.00    -0.371 OA
HETATM   23  H   UNL     1      39.406 -11.066   5.059  1.00  0.00     0.212 HD
ENDBRANCH   1  22
BRANCH   4  24
HETATM   24  C   UNL     1      42.353 -14.474   2.075  1.00  0.00     0.133 C 
BRANCH  24  25
HETATM   25  C   UNL     1      43.458 -15.509   2.271  1.00  0.00     0.025 C 
BRANCH  25  26
HETATM   26  C   UNL     1      43.144 -16.854   1.612  1.00  0.00     0.040 C 
BRANCH  26  27
HETATM   27  C   UNL     1      43.457 -18.015   2.527  1.00  0.00    -0.058 A 
HETATM   28  C   UNL     1      43.970 -17.801   3.814  1.00  0.00     0.007 A 
HETATM   29  C   UNL     1      44.288 -18.880   4.640  1.00  0.00     0.001 A 
HETATM   30  C   UNL     1      44.090 -20.185   4.194  1.00  0.00     0.000 A 
HETATM   31  C   UNL     1      43.568 -20.412   2.921  1.00  0.00     0.001 A 
HETATM   32  C   UNL     1      43.253 -19.333   2.093  1.00  0.00     0.007 A 
ENDBRANCH  26  27
ENDBRANCH  25  26
ENDBRANCH  24  25
ENDBRANCH   4  24
TORSDOF 6
ENDMDL
MODEL 4
REMARK VINA RESULT:      -8.8      3.119      4.303
REMARK  6 active torsions:
REMARK  status: ('A' for Active; 'I' for Inactive)
REMARK    1  A    between atoms: C_7  and  C_8 
REMARK    2  A    between atoms: C_8  and  O_9 
REMARK    3  A    between atoms: N_12  and  C_13 
REMARK    4  A    between atoms: C_13  and  C_14 
REMARK    5  A    between atoms: C_14  and  C_15 
REMARK    6  A    between atoms: C_15  and  C_16 
ROOT
HETATM    1  C   UNL     1      39.713 -13.083   1.446  1.00  0.00     0.199 A 
HETATM    2  C   UNL     1      40.382 -14.415   0.993  1.00  0.00     0.269 A 
HETATM    3  O   UNL     1      39.825 -15.344   0.423  1.00  0.00    -0.269 OA
HETATM    4  N   UNL     1      41.706 -14.401   1.469  1.00  0.00    -0.314 N 
HETATM    5  C   UNL     1      41.981 -13.202   2.146  1.00  0.00     0.047 A 
HETATM    6  C   UNL     1      40.846 -12.380   2.147  1.00  0.00     0.017 A 
HETATM    7  C   UNL     1      43.154 -12.810   2.766  1.00  0.00     0.030 A 
HETATM    8  C   UNL     1      43.179 -11.567   3.405  1.00  0.00     0.002 A 
HETATM    9  C   UNL     1      42.041 -10.744   3.420  1.00  0.00     0.001 A 
HETATM   10  C   UNL     1      40.863 -11.151   2.794  1.00  0.00     0.013 A 
ENDROOT
BRANCH   1  11
HETATM   11  C   UNL     1      39.230 -12.184   0.330  1.00  0.00     0.025 A 
HETATM   12  C   UNL     1      38.070 -11.405   0.339  1.00  0.00     0.016 A 
HETATM   13  C   UNL     1      37.018 -11.216   1.376  1.00  0.00     0.069 C 
HETATM   14  N   UNL     1      37.994 -10.738  -0.855  1.00  0.00    -0.359 N 
HETATM   15  H   UNL     1      37.254 -10.103  -1.121  1.00  0.00     0.166 HD
HETATM   16  C   UNL     1      39.077 -11.025  -1.644  1.00  0.00     0.043 A 
HETATM   17  C   UNL     1      39.871 -11.930  -0.939  1.00  0.00     0.003 A 
HETATM   18  C   UNL     1      39.402 -10.547  -2.919  1.00  0.00     0.030 A 
HETATM   19  C   UNL     1      41.062 -12.371  -1.558  1.00  0.00     0.014 A 
HETATM   20  C   UNL     1      41.407 -11.902  -2.833  1.00  0.00     0.001 A 
HETATM   21  C   UNL     1      40.586 -11.002  -3.502  1.00  0.00     0.002 A 
ENDBRANCH   1  11
BRANCH   1  22
HETATM   22  O   UNL     1      38.690 -13.400   2.391  1.00  0.00    -0.371 OA
HETATM   23  H   UNL     1      38.712 -12.658   3.022  1.00  0.00     0.212 HD
ENDBRANCH   1  22
BRANCH   4  24
HETATM   24  C   UNL     1      42.550 -15.574   1.474  1.00  0.00     0.133 C 
BRANCH  24  25
HETATM   25  C   UNL     1      42.227 -16.580   2.577  1.00  0.00     0.025 C 
BRANCH  25  26
HETATM   26  C   UNL     1      43.429 -16.897   3.470  1.00  0.00     0.040 C 
BRANCH  26  27
HETATM   27  C   UNL     1      43.660 -18.385   3.595  1.00  0.00    -0.058 A 
HETATM   28  C   UNL     1      43.505 -19.233   2.490  1.00  0.00     0.007 A 
HETATM   29  C   UNL     1      43.689 -20.611   2.621  1.00  0.00     0.001 A 
HETATM   30  C   UNL     1      44.038 -21.155   3.856  1.00  0.00     0.000 A 
HETATM   31  C   UNL     1      44.208 -20.321   4.960  1.00  0.00     0.001 A 
HETATM   32  C   UNL     1      44.021 -18.944   4.830  1.00  0.00     0.007 A 
ENDBRANCH  26  27
ENDBRANCH  25  26
ENDBRANCH  24  25
ENDBRANCH   4  24
TORSDOF 6
ENDMDL
MODEL 5
REMARK VINA RESULT:      -8.6      2.229      4.411
REMARK  6 active torsions:
REMARK  status: ('A' for Active; 'I' for Inactive)
REMARK    1  A    between atoms: C_7  and  C_8 
REMARK    2  A    between atoms: C_8  and  O_9 
REMARK    3  A    between atoms: N_12  and  C_13 
REMARK    4  A    between atoms: C_13  and  C_14 
REMARK    5  A    between atoms: C_14  and  C_15 
REMARK    6  A    between atoms: C_15  and  C_16 
ROOT
HETATM    1  C   UNL     1      40.116 -13.183   3.309  1.00  0.00     0.199 A 
HETATM    2  C   UNL     1      40.670 -14.081   2.162  1.00  0.00     0.269 A 
HETATM    3  O   UNL     1      40.639 -13.822   0.965  1.00  0.00    -0.269 OA
HETATM    4  N   UNL     1      41.094 -15.290   2.743  1.00  0.00    -0.314 N 
HETATM    5  C   UNL     1      40.913 -15.265   4.135  1.00  0.00     0.047 A 
HETATM    6  C   UNL     1      40.356 -14.040   4.525  1.00  0.00     0.017 A 
HETATM    7  C   UNL     1      41.191 -16.256   5.060  1.00  0.00     0.030 A 
HETATM    8  C   UNL     1      40.897 -16.006   6.403  1.00  0.00     0.002 A 
HETATM    9  C   UNL     1      40.327 -14.785   6.799  1.00  0.00     0.001 A 
HETATM   10  C   UNL     1      40.047 -13.795   5.857  1.00  0.00     0.013 A 
ENDROOT
BRANCH   1  11
HETATM   11  C   UNL     1      40.839 -11.872   3.516  1.00  0.00     0.025 A 
HETATM   12  C   UNL     1      42.216 -11.660   3.411  1.00  0.00     0.016 A 
HETATM   13  C   UNL     1      43.333 -12.588   3.079  1.00  0.00     0.069 C 
HETATM   14  N   UNL     1      42.467 -10.339   3.670  1.00  0.00    -0.359 N 
HETATM   15  H   UNL     1      43.382  -9.908   3.664  1.00  0.00     0.166 HD
HETATM   16  C   UNL     1      41.302  -9.660   3.914  1.00  0.00     0.043 A 
HETATM   17  C   UNL     1      40.262 -10.586   3.831  1.00  0.00     0.003 A 
HETATM   18  C   UNL     1      41.104  -8.303   4.196  1.00  0.00     0.030 A 
HETATM   19  C   UNL     1      38.948 -10.109   4.042  1.00  0.00     0.014 A 
HETATM   20  C   UNL     1      38.729  -8.755   4.324  1.00  0.00     0.001 A 
HETATM   21  C   UNL     1      39.794  -7.865   4.399  1.00  0.00     0.002 A 
ENDBRANCH   1  11
BRANCH   1  22
HETATM   22  O   UNL     1      38.712 -13.023   3.107  1.00  0.00    -0.371 OA
HETATM   23  H   UNL     1      38.462 -12.319   3.733  1.00  0.00     0.212 HD
ENDBRANCH   1  22
BRANCH   4  24
HETATM   24  C   UNL     1      41.417 -16.464   1.964  1.00  0.00     0.133 C 
BRANCH  24  25
HETATM   25  C   UNL     1      42.900 -16.611   1.630  1.00  0.00     0.025 C 
BRANCH  25  26
HETATM   26  C   UNL     1      43.774 -16.837   2.866  1.00  0.00     0.040 C 
BRANCH  26  27
HETATM   27  C   UNL     1      43.840 -18.298   3.248  1.00  0.00    -0.058 A 
HETATM   28  C   UNL     1      43.546 -19.301   2.314  1.00  0.00     0.007 A 
HETATM   29  C   UNL     1      43.577 -20.647   2.684  1.00  0.00     0.001 A 
HETATM   30  C   UNL     1      43.912 -21.006   3.989  1.00  0.00     0.000 A 
HETATM   31  C   UNL     1      44.220 -20.019   4.923  1.00  0.00     0.001 A 
HETATM   32  C   UNL     1      44.185 -18.673   4.555  1.00  0.00     0.007 A 
ENDBRANCH  26  27
ENDBRANCH  25  26
ENDBRANCH  24  25
ENDBRANCH   4  24
TORSDOF 6
ENDMDL
MODEL 6
REMARK VINA RESULT:      -8.6      2.325      3.446
REMARK  6 active torsions:
REMARK  status: ('A' for Active; 'I' for Inactive)
REMARK    1  A    between atoms: C_7  and  C_8 
REMARK    2  A    between atoms: C_8  and  O_9 
REMARK    3  A    between atoms: N_12  and  C_13 
REMARK    4  A    between atoms: C_13  and  C_14 
REMARK    5  A    between atoms: C_14  and  C_15 
REMARK    6  A    between atoms: C_15  and  C_16 
ROOT
HETATM    1  C   UNL     1      40.570 -14.312   2.272  1.00  0.00     0.199 A 
HETATM    2  C   UNL     1      41.893 -15.021   2.688  1.00  0.00     0.269 A 
HETATM    3  O   UNL     1      42.495 -15.865   2.035  1.00  0.00    -0.269 OA
HETATM    4  N   UNL     1      42.197 -14.607   3.997  1.00  0.00    -0.314 N 
HETATM    5  C   UNL     1      41.245 -13.685   4.462  1.00  0.00     0.047 A 
HETATM    6  C   UNL     1      40.272 -13.462   3.479  1.00  0.00     0.017 A 
HETATM    7  C   UNL     1      41.181 -13.057   5.694  1.00  0.00     0.030 A 
HETATM    8  C   UNL     1      40.112 -12.191   5.937  1.00  0.00     0.002 A 
HETATM    9  C   UNL     1      39.127 -11.972   4.961  1.00  0.00     0.001 A 
HETATM   10  C   UNL     1      39.200 -12.614   3.724  1.00  0.00     0.013 A 
ENDROOT
BRANCH   1  11
HETATM   11  C   UNL     1      40.671 -13.396   1.073  1.00  0.00     0.025 A 
HETATM   12  C   UNL     1      41.311 -12.156   1.031  1.00  0.00     0.016 A 
HETATM   13  C   UNL     1      42.053 -11.394   2.075  1.00  0.00     0.069 C 
HETATM   14  N   UNL     1      41.179 -11.647  -0.234  1.00  0.00    -0.359 N 
HETATM   15  H   UNL     1      41.547 -10.759  -0.545  1.00  0.00     0.166 HD
HETATM   16  C   UNL     1      40.498 -12.520  -1.041  1.00  0.00     0.043 A 
HETATM   17  C   UNL     1      40.159 -13.625  -0.259  1.00  0.00     0.003 A 
HETATM   18  C   UNL     1      40.166 -12.407  -2.396  1.00  0.00     0.030 A 
HETATM   19  C   UNL     1      39.449 -14.674  -0.886  1.00  0.00     0.014 A 
HETATM   20  C   UNL     1      39.110 -14.580  -2.242  1.00  0.00     0.001 A 
HETATM   21  C   UNL     1      39.465 -13.461  -2.985  1.00  0.00     0.002 A 
ENDBRANCH   1  11
BRANCH   1  22
HETATM   22  O   UNL     1      39.558 -15.310   2.129  1.00  0.00    -0.371 OA
HETATM   23  H   UNL     1      39.959 -16.109   2.517  1.00  0.00     0.212 HD
ENDBRANCH   1  22
BRANCH   4  24
HETATM   24  C   UNL     1      43.201 -15.253   4.812  1.00  0.00     0.133 C 
BRANCH  24  25
HETATM   25  C   UNL     1      42.742 -16.555   5.464  1.00  0.00     0.025 C 
BRANCH  25  26
HETATM   26  C   UNL     1      43.900 -17.493   5.810  1.00  0.00     0.040 C 
BRANCH  26  27
HETATM   27  C   UNL     1      43.938 -18.700   4.902  1.00  0.00    -0.058 A 
HETATM   28  C   UNL     1      43.947 -18.553   3.508  1.00  0.00     0.007 A 
HETATM   29  C   UNL     1      43.948 -19.674   2.676  1.00  0.00     0.001 A 
HETATM   30  C   UNL     1      43.949 -20.954   3.226  1.00  0.00     0.000 A 
HETATM   31  C   UNL     1      43.953 -21.114   4.611  1.00  0.00     0.001 A 
HETATM   32  C   UNL     1      43.948 -19.994   5.444  1.00  0.00     0.007 A 
ENDBRANCH  26  27
ENDBRANCH  25  26
ENDBRANCH  24  25
ENDBRANCH   4  24
TORSDOF 6
ENDMDL
MODEL 7
REMARK VINA RESULT:      -8.5      3.984      7.347
REMARK  6 active torsions:
REMARK  status: ('A' for Active; 'I' for Inactive)
REMARK    1  A    between atoms: C_7  and  C_8 
REMARK    2  A    between atoms: C_8  and  O_9 
REMARK    3  A    between atoms: N_12  and  C_13 
REMARK    4  A    between atoms: C_13  and  C_14 
REMARK    5  A    between atoms: C_14  and  C_15 
REMARK    6  A    between atoms: C_15  and  C_16 
ROOT
HETATM    1  C   UNL     1      42.654 -13.129   5.992  1.00  0.00     0.199 A 
HETATM    2  C   UNL     1      43.747 -12.182   6.573  1.00  0.00     0.269 A 
HETATM    3  O   UNL     1      44.918 -12.474   6.780  1.00  0.00    -0.269 OA
HETATM    4  N   UNL     1      43.113 -10.978   6.928  1.00  0.00    -0.314 N 
HETATM    5  C   UNL     1      41.745 -11.022   6.612  1.00  0.00     0.047 A 
HETATM    6  C   UNL     1      41.424 -12.261   6.042  1.00  0.00     0.017 A 
HETATM    7  C   UNL     1      40.780 -10.051   6.814  1.00  0.00     0.030 A 
HETATM    8  C   UNL     1      39.465 -10.340   6.438  1.00  0.00     0.002 A 
HETATM    9  C   UNL     1      39.135 -11.584   5.877  1.00  0.00     0.001 A 
HETATM   10  C   UNL     1      40.115 -12.556   5.681  1.00  0.00     0.013 A 
ENDROOT
BRANCH   1  11
HETATM   11  C   UNL     1      42.860 -13.559   4.558  1.00  0.00     0.025 A 
HETATM   12  C   UNL     1      43.041 -12.716   3.459  1.00  0.00     0.016 A 
HETATM   13  C   UNL     1      43.090 -11.231   3.354  1.00  0.00     0.069 C 
HETATM   14  N   UNL     1      43.195 -13.494   2.342  1.00  0.00    -0.359 N 
HETATM   15  H   UNL     1      43.341 -13.145   1.405  1.00  0.00     0.166 HD
HETATM   16  C   UNL     1      43.153 -14.825   2.666  1.00  0.00     0.043 A 
HETATM   17  C   UNL     1      42.941 -14.907   4.043  1.00  0.00     0.003 A 
HETATM   18  C   UNL     1      43.290 -15.948   1.841  1.00  0.00     0.030 A 
HETATM   19  C   UNL     1      42.868 -16.197   4.615  1.00  0.00     0.014 A 
HETATM   20  C   UNL     1      43.005 -17.333   3.807  1.00  0.00     0.001 A 
HETATM   21  C   UNL     1      43.214 -17.207   2.438  1.00  0.00     0.002 A 
ENDBRANCH   1  11
BRANCH   1  22
HETATM   22  O   UNL     1      42.500 -14.229   6.890  1.00  0.00    -0.371 OA
HETATM   23  H   UNL     1      42.878 -13.906   7.727  1.00  0.00     0.212 HD
ENDBRANCH   1  22
BRANCH   4  24
HETATM   24  C   UNL     1      43.749  -9.965   7.738  1.00  0.00     0.133 C 
BRANCH  24  25
HETATM   25  C   UNL     1      43.843 -10.311   9.223  1.00  0.00     0.025 C 
BRANCH  25  26
HETATM   26  C   UNL     1      44.220  -9.111  10.095  1.00  0.00     0.040 C 
BRANCH  26  27
HETATM   27  C   UNL     1      43.460  -9.104  11.402  1.00  0.00    -0.058 A 
HETATM   28  C   UNL     1      42.563 -10.134  11.718  1.00  0.00     0.007 A 
HETATM   29  C   UNL     1      41.840 -10.103  12.912  1.00  0.00     0.001 A 
HETATM   30  C   UNL     1      42.012  -9.048  13.807  1.00  0.00     0.000 A 
HETATM   31  C   UNL     1      42.912  -8.025  13.510  1.00  0.00     0.001 A 
HETATM   32  C   UNL     1      43.632  -8.054  12.315  1.00  0.00     0.007 A 
ENDBRANCH  26  27
ENDBRANCH  25  26
ENDBRANCH  24  25
ENDBRANCH   4  24
TORSDOF 6
ENDMDL
MODEL 8
REMARK VINA RESULT:      -8.5      1.714      6.001
REMARK  6 active torsions:
REMARK  status: ('A' for Active; 'I' for Inactive)
REMARK    1  A    between atoms: C_7  and  C_8 
REMARK    2  A    between atoms: C_8  and  O_9 
REMARK    3  A    between atoms: N_12  and  C_13 
REMARK    4  A    between atoms: C_13  and  C_14 
REMARK    5  A    between atoms: C_14  and  C_15 
REMARK    6  A    between atoms: C_15  and  C_16 
ROOT
HETATM    1  C   UNL     1      40.829 -14.927   4.267  1.00  0.00     0.199 A 
HETATM    2  C   UNL     1      40.264 -14.049   5.423  1.00  0.00     0.269 A 
HETATM    3  O   UNL     1      39.811 -14.459   6.485  1.00  0.00    -0.269 OA
HETATM    4  N   UNL     1      40.257 -12.717   4.973  1.00  0.00    -0.314 N 
HETATM    5  C   UNL     1      40.784 -12.626   3.674  1.00  0.00     0.047 A 
HETATM    6  C   UNL     1      41.153 -13.898   3.216  1.00  0.00     0.017 A 
HETATM    7  C   UNL     1      40.936 -11.503   2.880  1.00  0.00     0.030 A 
HETATM    8  C   UNL     1      41.466 -11.669   1.598  1.00  0.00     0.002 A 
HETATM    9  C   UNL     1      41.827 -12.942   1.128  1.00  0.00     0.001 A 
HETATM   10  C   UNL     1      41.666 -14.068   1.936  1.00  0.00     0.013 A 
ENDROOT
BRANCH   1  11
HETATM   11  C   UNL     1      42.100 -15.683   4.584  1.00  0.00     0.025 A 
HETATM   12  C   UNL     1      42.967 -15.433   5.650  1.00  0.00     0.016 A 
HETATM   13  C   UNL     1      42.920 -14.421   6.742  1.00  0.00     0.069 C 
HETATM   14  N   UNL     1      43.995 -16.335   5.586  1.00  0.00    -0.359 N 
HETATM   15  H   UNL     1      44.769 -16.383   6.236  1.00  0.00     0.166 HD
HETATM   16  C   UNL     1      43.825 -17.194   4.532  1.00  0.00     0.043 A 
HETATM   17  C   UNL     1      42.653 -16.816   3.878  1.00  0.00     0.003 A 
HETATM   18  C   UNL     1      44.622 -18.270   4.122  1.00  0.00     0.030 A 
HETATM   19  C   UNL     1      42.264 -17.571   2.749  1.00  0.00     0.014 A 
HETATM   20  C   UNL     1      43.047 -18.653   2.324  1.00  0.00     0.001 A 
HETATM   21  C   UNL     1      44.210 -18.996   3.004  1.00  0.00     0.002 A 
ENDBRANCH   1  11
BRANCH   1  22
HETATM   22  O   UNL     1      39.777 -15.773   3.799  1.00  0.00    -0.371 OA
HETATM   23  H   UNL     1      39.110 -15.733   4.508  1.00  0.00     0.212 HD
ENDBRANCH   1  22
BRANCH   4  24
HETATM   24  C   UNL     1      39.559 -11.657   5.665  1.00  0.00     0.133 C 
BRANCH  24  25
HETATM   25  C   UNL     1      40.378 -10.969   6.755  1.00  0.00     0.025 C 
BRANCH  25  26
HETATM   26  C   UNL     1      41.440 -10.018   6.196  1.00  0.00     0.040 C 
BRANCH  26  27
HETATM   27  C   UNL     1      42.840 -10.532   6.440  1.00  0.00    -0.058 A 
HETATM   28  C   UNL     1      43.412 -10.484   7.719  1.00  0.00     0.007 A 
HETATM   29  C   UNL     1      44.718 -10.930   7.930  1.00  0.00     0.001 A 
HETATM   30  C   UNL     1      45.464 -11.438   6.867  1.00  0.00     0.000 A 
HETATM   31  C   UNL     1      44.901 -11.503   5.593  1.00  0.00     0.001 A 
HETATM   32  C   UNL     1      43.597 -11.053   5.381  1.00  0.00     0.007 A 
ENDBRANCH  26  27
ENDBRANCH  25  26
ENDBRANCH  24  25
ENDBRANCH   4  24
TORSDOF 6
ENDMDL
MODEL 9
REMARK VINA RESULT:      -8.5      2.065      4.992
REMARK  6 active torsions:
REMARK  status: ('A' for Active; 'I' for Inactive)
REMARK    1  A    between atoms: C_7  and  C_8 
REMARK    2  A    between atoms: C_8  and  O_9 
REMARK    3  A    between atoms: N_12  and  C_13 
REMARK    4  A    between atoms: C_13  and  C_14 
REMARK    5  A    between atoms: C_14  and  C_15 
REMARK    6  A    between atoms: C_15  and  C_16 
ROOT
HETATM    1  C   UNL     1      42.706 -12.717   4.301  1.00  0.00     0.199 A 
HETATM    2  C   UNL     1      42.483 -14.244   4.511  1.00  0.00     0.269 A 
HETATM    3  O   UNL     1      43.234 -15.008   5.105  1.00  0.00    -0.269 OA
HETATM    4  N   UNL     1      41.328 -14.602   3.792  1.00  0.00    -0.314 N 
HETATM    5  C   UNL     1      40.760 -13.479   3.170  1.00  0.00     0.047 A 
HETATM    6  C   UNL     1      41.522 -12.337   3.451  1.00  0.00     0.017 A 
HETATM    7  C   UNL     1      39.634 -13.413   2.367  1.00  0.00     0.030 A 
HETATM    8  C   UNL     1      39.276 -12.172   1.834  1.00  0.00     0.002 A 
HETATM    9  C   UNL     1      40.042 -11.026   2.102  1.00  0.00     0.001 A 
HETATM   10  C   UNL     1      41.177 -11.105   2.910  1.00  0.00     0.013 A 
ENDROOT
BRANCH   1  11
HETATM   11  C   UNL     1      42.667 -11.874   5.555  1.00  0.00     0.025 A 
HETATM   12  C   UNL     1      41.522 -11.483   6.254  1.00  0.00     0.016 A 
HETATM   13  C   UNL     1      40.078 -11.758   6.011  1.00  0.00     0.069 C 
HETATM   14  N   UNL     1      41.913 -10.732   7.330  1.00  0.00    -0.359 N 
HETATM   15  H   UNL     1      41.288 -10.318   8.008  1.00  0.00     0.166 HD
HETATM   16  C   UNL     1      43.278 -10.634   7.386  1.00  0.00     0.043 A 
HETATM   17  C   UNL     1      43.786 -11.332   6.290  1.00  0.00     0.003 A 
HETATM   18  C   UNL     1      44.087  -9.985   8.326  1.00  0.00     0.030 A 
HETATM   19  C   UNL     1      45.191 -11.377   6.141  1.00  0.00     0.014 A 
HETATM   20  C   UNL     1      46.017 -10.735   7.072  1.00  0.00     0.001 A 
HETATM   21  C   UNL     1      45.470 -10.049   8.150  1.00  0.00     0.002 A 
ENDBRANCH   1  11
BRANCH   1  22
HETATM   22  O   UNL     1      43.908 -12.545   3.549  1.00  0.00    -0.371 OA
HETATM   23  H   UNL     1      44.438 -13.334   3.766  1.00  0.00     0.212 HD
ENDBRANCH   1  22
BRANCH   4  24
HETATM   24  C   UNL     1      40.958 -15.975   3.533  1.00  0.00     0.133 C 
BRANCH  24  25
HETATM   25  C   UNL     1      41.479 -16.531   2.210  1.00  0.00     0.025 C 
BRANCH  25  26
HETATM   26  C   UNL     1      42.989 -16.778   2.215  1.00  0.00     0.040 C 
BRANCH  26  27
HETATM   27  C   UNL     1      43.337 -18.122   2.813  1.00  0.00    -0.058 A 
HETATM   28  C   UNL     1      43.859 -18.220   4.111  1.00  0.00     0.007 A 
HETATM   29  C   UNL     1      44.208 -19.462   4.643  1.00  0.00     0.001 A 
HETATM   30  C   UNL     1      44.031 -20.621   3.889  1.00  0.00     0.000 A 
HETATM   31  C   UNL     1      43.501 -20.538   2.603  1.00  0.00     0.001 A 
HETATM   32  C   UNL     1      43.155 -19.296   2.068  1.00  0.00     0.007 A 
ENDBRANCH  26  27
ENDBRANCH  25  26
ENDBRANCH  24  25
ENDBRANCH   4  24
TORSDOF 6
ENDMDL
MODEL 10
REMARK VINA RESULT:      -8.4      2.540      6.440
REMARK  6 active torsions:
REMARK  status: ('A' for Active; 'I' for Inactive)
REMARK    1  A    between atoms: C_7  and  C_8 
REMARK    2  A    between atoms: C_8  and  O_9 
REMARK    3  A    between atoms: N_12  and  C_13 
REMARK    4  A    between atoms: C_13  and  C_14 
REMARK    5  A    between atoms: C_14  and  C_15 
REMARK    6  A    between atoms: C_15  and  C_16 
ROOT
HETATM    1  C   UNL     1      41.770 -14.777   2.837  1.00  0.00     0.199 A 
HETATM    2  C   UNL     1      40.234 -14.595   2.647  1.00  0.00     0.269 A 
HETATM    3  O   UNL     1      39.446 -15.459   2.282  1.00  0.00    -0.269 OA
HETATM    4  N   UNL     1      39.945 -13.234   2.850  1.00  0.00    -0.314 N 
HETATM    5  C   UNL     1      41.107 -12.521   3.184  1.00  0.00     0.047 A 
HETATM    6  C   UNL     1      42.211 -13.385   3.208  1.00  0.00     0.017 A 
HETATM    7  C   UNL     1      41.247 -11.169   3.446  1.00  0.00     0.030 A 
HETATM    8  C   UNL     1      42.525 -10.681   3.733  1.00  0.00     0.002 A 
HETATM    9  C   UNL     1      43.636 -11.540   3.747  1.00  0.00     0.001 A 
HETATM   10  C   UNL     1      43.484 -12.900   3.477  1.00  0.00     0.013 A 
ENDROOT
BRANCH   1  11
HETATM   11  C   UNL     1      42.182 -15.707   3.955  1.00  0.00     0.025 A 
HETATM   12  C   UNL     1      41.872 -15.562   5.309  1.00  0.00     0.016 A 
HETATM   13  C   UNL     1      41.087 -14.523   6.034  1.00  0.00     0.069 C 
HETATM   14  N   UNL     1      42.427 -16.611   5.992  1.00  0.00    -0.359 N 
HETATM   15  H   UNL     1      42.360 -16.758   6.990  1.00  0.00     0.166 HD
HETATM   16  C   UNL     1      43.071 -17.464   5.134  1.00  0.00     0.043 A 
HETATM   17  C   UNL     1      42.944 -16.931   3.851  1.00  0.00     0.003 A 
HETATM   18  C   UNL     1      43.746 -18.660   5.406  1.00  0.00     0.030 A 
HETATM   19  C   UNL     1      43.530 -17.651   2.785  1.00  0.00     0.014 A 
HETATM   20  C   UNL     1      44.208 -18.850   3.037  1.00  0.00     0.001 A 
HETATM   21  C   UNL     1      44.313 -19.346   4.331  1.00  0.00     0.002 A 
ENDBRANCH   1  11
BRANCH   1  22
HETATM   22  O   UNL     1      42.334 -15.136   1.575  1.00  0.00    -0.371 OA
HETATM   23  H   UNL     1      43.269 -15.317   1.777  1.00  0.00     0.212 HD
ENDBRANCH   1  22
BRANCH   4  24
HETATM   24  C   UNL     1      38.675 -12.641   2.499  1.00  0.00     0.133 C 
BRANCH  24  25
HETATM   25  C   UNL     1      38.684 -11.858   1.188  1.00  0.00     0.025 C 
BRANCH  25  26
HETATM   26  C   UNL     1      39.721 -12.376   0.188  1.00  0.00     0.040 C 
BRANCH  26  27
HETATM   27  C   UNL     1      39.072 -13.085  -0.979  1.00  0.00    -0.058 A 
HETATM   28  C   UNL     1      39.600 -14.284  -1.477  1.00  0.00     0.007 A 
HETATM   29  C   UNL     1      39.014 -14.915  -2.576  1.00  0.00     0.001 A 
HETATM   30  C   UNL     1      37.889 -14.361  -3.183  1.00  0.00     0.000 A 
HETATM   31  C   UNL     1      37.346 -13.176  -2.688  1.00  0.00     0.001 A 
HETATM   32  C   UNL     1      37.933 -12.542  -1.592  1.00  0.00     0.007 A 
ENDBRANCH  26  27
ENDBRANCH  25  26
ENDBRANCH  24  25
ENDBRANCH   4  24
TORSDOF 6
ENDMDL
