MODEL 1
REMARK VINA RESULT:      -9.7      0.000      0.000
REMARK  5 active torsions:
REMARK  status: ('A' for Active; 'I' for Inactive)
REMARK    1  A    between atoms: C_3  and  O_4 
REMARK    2  A    between atoms: C_6  and  N_7 
REMARK       I    between atoms: N_7  and  C_8 
REMARK    3  A    between atoms: C_8  and  C_9 
REMARK    4  A    between atoms: C_12  and  C_13 
REMARK    5  A    between atoms: C_18  and  C_19 
ROOT
HETATM    1  C   UNL     1      41.596 -12.726   2.501  1.00  0.00     0.096 A 
HETATM    2  C   UNL     1      41.648 -13.627   3.549  1.00  0.00     0.138 A 
HETATM    3  N   UNL     1      42.714 -13.237   4.328  1.00  0.00    -0.240 N 
HETATM    4  C   UNL     1      43.178 -13.959   5.500  1.00  0.00     0.221 C 
HETATM    5  C   UNL     1      42.081 -14.917   6.000  1.00  0.00     0.066 C 
HETATM    6  C   UNL     1      41.432 -15.692   4.847  1.00  0.00     0.118 C 
HETATM    7  N   UNL     1      40.922 -14.741   3.849  1.00  0.00    -0.365 N 
HETATM    8  N   UNL     1      43.433 -12.242   3.788  1.00  0.00    -0.181 NA
HETATM    9  C   UNL     1      42.741 -11.917   2.692  1.00  0.00     0.160 A 
HETATM   10  H   UNL     1      40.426 -15.214   3.090  1.00  0.00     0.161 HD
ENDROOT
BRANCH   1  11
HETATM   11  C   UNL     1      40.646 -12.646   1.404  1.00  0.00     0.261 C 
HETATM   12  N   UNL     1      40.900 -13.561   0.400  1.00  0.00    -0.323 N 
HETATM   13  H   UNL     1      41.605 -14.257   0.619  1.00  0.00     0.169 HD
HETATM   14  O   UNL     1      39.715 -11.849   1.441  1.00  0.00    -0.267 OA
BRANCH  12  15
HETATM   15  C   UNL     1      40.248 -13.685  -0.841  1.00  0.00     0.037 A 
HETATM   16  C   UNL     1      39.473 -14.787  -1.208  1.00  0.00     0.066 A 
HETATM   17  C   UNL     1      38.840 -14.809  -2.450  1.00  0.00     0.067 A 
HETATM   18  C   UNL     1      38.970 -13.752  -3.343  1.00  0.00     0.036 A 
HETATM   19  C   UNL     1      39.743 -12.650  -2.984  1.00  0.00     0.005 A 
HETATM   20  C   UNL     1      40.374 -12.615  -1.738  1.00  0.00     0.029 A 
BRANCH  17  21
HETATM   21  O   UNL     1      38.082 -15.902  -2.755  1.00  0.00    -0.361 OA
HETATM   22  H   UNL     1      38.338 -16.228  -3.633  1.00  0.00     0.217 HD
ENDBRANCH  17  21
ENDBRANCH  12  15
ENDBRANCH   1  11
BRANCH   4  23
HETATM   23  C   UNL     1      43.574 -13.020   6.619  1.00  0.00     0.409 C 
HETATM   24  F   UNL     1      42.770 -11.935   6.688  1.00  0.00    -0.169 F 
HETATM   25  F   UNL     1      43.452 -13.664   7.814  1.00  0.00    -0.169 F 
HETATM   26  F   UNL     1      44.853 -12.600   6.552  1.00  0.00    -0.169 F 
ENDBRANCH   4  23
BRANCH   6  27
HETATM   27  C   UNL     1      42.338 -16.768   4.258  1.00  0.00    -0.035 A 
HETATM   28  C   UNL     1      42.214 -17.078   2.888  1.00  0.00     0.012 A 
HETATM   29  C   UNL     1      43.014 -18.059   2.297  1.00  0.00     0.043 A 
HETATM   30  C   UNL     1      43.949 -18.736   3.067  1.00  0.00     0.116 A 
HETATM   31  F   UNL     1      44.718 -19.675   2.500  1.00  0.00    -0.206 F 
HETATM   32  C   UNL     1      44.098 -18.451   4.416  1.00  0.00     0.043 A 
HETATM   33  C   UNL     1      43.296 -17.472   5.010  1.00  0.00     0.012 A 
ENDBRANCH   6  27
TORSDOF 5
ENDMDL
MODEL 2
REMARK VINA RESULT:      -9.6      4.313      7.223
REMARK  5 active torsions:
REMARK  status: ('A' for Active; 'I' for Inactive)
REMARK    1  A    between atoms: C_3  and  O_4 
REMARK    2  A    between atoms: C_6  and  N_7 
REMARK       I    between atoms: N_7  and  C_8 
REMARK    3  A    between atoms: C_8  and  C_9 
REMARK    4  A    between atoms: C_12  and  C_13 
REMARK    5  A    between atoms: C_18  and  C_19 
ROOT
HETATM    1  C   UNL     1      42.134 -14.268   5.846  1.00  0.00     0.096 A 
HETATM    2  C   UNL     1      42.395 -14.929   4.659  1.00  0.00     0.138 A 
HETATM    3  N   UNL     1      41.168 -15.289   4.150  1.00  0.00    -0.240 N 
HETATM    4  C   UNL     1      40.983 -16.076   2.944  1.00  0.00     0.221 C 
HETATM    5  C   UNL     1      42.268 -16.060   2.097  1.00  0.00     0.066 C 
HETATM    6  C   UNL     1      43.519 -16.282   2.956  1.00  0.00     0.118 C 
HETATM    7  N   UNL     1      43.554 -15.283   4.033  1.00  0.00    -0.365 N 
HETATM    8  N   UNL     1      40.149 -15.033   4.984  1.00  0.00    -0.181 NA
HETATM    9  C   UNL     1      40.733 -14.393   6.002  1.00  0.00     0.160 A 
HETATM   10  H   UNL     1      44.404 -15.356   4.595  1.00  0.00     0.161 HD
ENDROOT
BRANCH   1  11
HETATM   11  C   UNL     1      43.061 -13.645   6.775  1.00  0.00     0.261 C 
HETATM   12  N   UNL     1      43.259 -12.301   6.520  1.00  0.00    -0.323 N 
HETATM   13  H   UNL     1      42.634 -11.895   5.833  1.00  0.00     0.169 HD
HETATM   14  O   UNL     1      43.556 -14.290   7.691  1.00  0.00    -0.267 OA
BRANCH  12  15
HETATM   15  C   UNL     1      44.162 -11.426   7.153  1.00  0.00     0.037 A 
HETATM   16  C   UNL     1      45.540 -11.430   6.928  1.00  0.00     0.066 A 
HETATM   17  C   UNL     1      46.354 -10.505   7.580  1.00  0.00     0.067 A 
HETATM   18  C   UNL     1      45.820  -9.571   8.462  1.00  0.00     0.036 A 
HETATM   19  C   UNL     1      44.446  -9.561   8.690  1.00  0.00     0.005 A 
HETATM   20  C   UNL     1      43.621 -10.480   8.036  1.00  0.00     0.029 A 
BRANCH  17  21
HETATM   21  O   UNL     1      47.692 -10.540   7.316  1.00  0.00    -0.361 OA
HETATM   22  H   UNL     1      48.156 -10.902   8.088  1.00  0.00     0.217 HD
ENDBRANCH  17  21
ENDBRANCH  12  15
ENDBRANCH   1  11
BRANCH   4  23
HETATM   23  C   UNL     1      39.826 -15.567   2.111  1.00  0.00     0.409 C 
HETATM   24  F   UNL     1      39.901 -15.975   0.823  1.00  0.00    -0.169 F 
HETATM   25  F   UNL     1      38.658 -16.066   2.604  1.00  0.00    -0.169 F 
HETATM   26  F   UNL     1      39.693 -14.225   2.126  1.00  0.00    -0.169 F 
ENDBRANCH   4  23
BRANCH   6  27
HETATM   27  C   UNL     1      43.663 -17.718   3.451  1.00  0.00    -0.035 A 
HETATM   28  C   UNL     1      43.520 -18.769   2.523  1.00  0.00     0.012 A 
HETATM   29  C   UNL     1      43.635 -20.102   2.922  1.00  0.00     0.043 A 
HETATM   30  C   UNL     1      43.900 -20.399   4.251  1.00  0.00     0.116 A 
HETATM   31  F   UNL     1      44.013 -21.678   4.633  1.00  0.00    -0.206 F 
HETATM   32  C   UNL     1      44.050 -19.388   5.188  1.00  0.00     0.043 A 
HETATM   33  C   UNL     1      43.931 -18.053   4.791  1.00  0.00     0.012 A 
ENDBRANCH   6  27
TORSDOF 5
ENDMDL
MODEL 3
REMARK VINA RESULT:      -9.0      4.330      7.039
REMARK  5 active torsions:
REMARK  status: ('A' for Active; 'I' for Inactive)
REMARK    1  A    between atoms: C_3  and  O_4 
REMARK    2  A    between atoms: C_6  and  N_7 
REMARK       I    between atoms: N_7  and  C_8 
REMARK    3  A    between atoms: C_8  and  C_9 
REMARK    4  A    between atoms: C_12  and  C_13 
REMARK    5  A    between atoms: C_18  and  C_19 
ROOT
HETATM    1  C   UNL     1      42.810 -14.472   3.792  1.00  0.00     0.096 A 
HETATM    2  C   UNL     1      42.420 -13.361   4.518  1.00  0.00     0.138 A 
HETATM    3  N   UNL     1      42.329 -12.331   3.611  1.00  0.00    -0.240 N 
HETATM    4  C   UNL     1      42.021 -10.956   3.963  1.00  0.00     0.221 C 
HETATM    5  C   UNL     1      41.382 -10.898   5.363  1.00  0.00     0.066 C 
HETATM    6  C   UNL     1      42.130 -11.783   6.368  1.00  0.00     0.118 C 
HETATM    7  N   UNL     1      42.200 -13.156   5.848  1.00  0.00    -0.365 N 
HETATM    8  N   UNL     1      42.764 -12.660   2.385  1.00  0.00    -0.181 NA
HETATM    9  C   UNL     1      43.033 -13.964   2.490  1.00  0.00     0.160 A 
HETATM   10  H   UNL     1      42.638 -13.795   6.515  1.00  0.00     0.161 HD
ENDROOT
BRANCH   1  11
HETATM   11  C   UNL     1      43.022 -15.837   4.242  1.00  0.00     0.261 C 
HETATM   12  N   UNL     1      43.370 -16.696   3.216  1.00  0.00    -0.323 N 
HETATM   13  H   UNL     1      43.578 -16.249   2.330  1.00  0.00     0.169 HD
HETATM   14  O   UNL     1      42.922 -16.127   5.428  1.00  0.00    -0.267 OA
BRANCH  12  15
HETATM   15  C   UNL     1      43.544 -18.092   3.279  1.00  0.00     0.037 A 
HETATM   16  C   UNL     1      44.025 -18.768   4.401  1.00  0.00     0.066 A 
HETATM   17  C   UNL     1      44.136 -20.158   4.381  1.00  0.00     0.067 A 
HETATM   18  C   UNL     1      43.780 -20.892   3.255  1.00  0.00     0.036 A 
HETATM   19  C   UNL     1      43.299 -20.224   2.132  1.00  0.00     0.005 A 
HETATM   20  C   UNL     1      43.177 -18.832   2.146  1.00  0.00     0.029 A 
BRANCH  17  21
HETATM   21  O   UNL     1      44.599 -20.773   5.508  1.00  0.00    -0.361 OA
HETATM   22  H   UNL     1      45.555 -20.915   5.419  1.00  0.00     0.217 HD
ENDBRANCH  17  21
ENDBRANCH  12  15
ENDBRANCH   1  11
BRANCH   4  23
HETATM   23  C   UNL     1      41.089 -10.312   2.959  1.00  0.00     0.409 C 
HETATM   24  F   UNL     1      40.094 -11.143   2.575  1.00  0.00    -0.169 F 
HETATM   25  F   UNL     1      40.488  -9.230   3.528  1.00  0.00    -0.169 F 
HETATM   26  F   UNL     1      41.711  -9.853   1.854  1.00  0.00    -0.169 F 
ENDBRANCH   4  23
BRANCH   6  27
HETATM   27  C   UNL     1      43.485 -11.217   6.778  1.00  0.00    -0.035 A 
HETATM   28  C   UNL     1      43.517 -10.086   7.620  1.00  0.00     0.012 A 
HETATM   29  C   UNL     1      44.729  -9.522   8.022  1.00  0.00     0.043 A 
HETATM   30  C   UNL     1      45.923 -10.084   7.592  1.00  0.00     0.116 A 
HETATM   31  F   UNL     1      47.086  -9.544   7.980  1.00  0.00    -0.206 F 
HETATM   32  C   UNL     1      45.925 -11.198   6.767  1.00  0.00     0.043 A 
HETATM   33  C   UNL     1      44.713 -11.762   6.361  1.00  0.00     0.012 A 
ENDBRANCH   6  27
TORSDOF 5
ENDMDL
MODEL 4
REMARK VINA RESULT:      -8.7      3.952      6.706
REMARK  5 active torsions:
REMARK  status: ('A' for Active; 'I' for Inactive)
REMARK    1  A    between atoms: C_3  and  O_4 
REMARK    2  A    between atoms: C_6  and  N_7 
REMARK       I    between atoms: N_7  and  C_8 
REMARK    3  A    between atoms: C_8  and  C_9 
REMARK    4  A    between atoms: C_12  and  C_13 
REMARK    5  A    between atoms: C_18  and  C_19 
ROOT
HETATM    1  C   UNL     1      42.003 -14.317   3.446  1.00  0.00     0.096 A 
HETATM    2  C   UNL     1      41.713 -13.202   4.211  1.00  0.00     0.138 A 
HETATM    3  N   UNL     1      41.771 -12.129   3.351  1.00  0.00    -0.240 N 
HETATM    4  C   UNL     1      41.605 -10.745   3.758  1.00  0.00     0.221 C 
HETATM    5  C   UNL     1      40.925 -10.676   5.138  1.00  0.00     0.066 C 
HETATM    6  C   UNL     1      41.532 -11.683   6.123  1.00  0.00     0.118 C 
HETATM    7  N   UNL     1      41.467 -13.032   5.541  1.00  0.00    -0.365 N 
HETATM    8  N   UNL     1      42.211 -12.452   2.126  1.00  0.00    -0.181 NA
HETATM    9  C   UNL     1      42.330 -13.782   2.177  1.00  0.00     0.160 A 
HETATM   10  H   UNL     1      41.807 -13.744   6.191  1.00  0.00     0.161 HD
ENDROOT
BRANCH   1  11
HETATM   11  C   UNL     1      42.045 -15.716   3.837  1.00  0.00     0.261 C 
HETATM   12  N   UNL     1      43.073 -16.416   3.234  1.00  0.00    -0.323 N 
HETATM   13  H   UNL     1      43.744 -15.847   2.728  1.00  0.00     0.169 HD
HETATM   14  O   UNL     1      41.244 -16.161   4.650  1.00  0.00    -0.267 OA
BRANCH  12  15
HETATM   15  C   UNL     1      43.338 -17.796   3.305  1.00  0.00     0.037 A 
HETATM   16  C   UNL     1      43.156 -18.681   2.241  1.00  0.00     0.066 A 
HETATM   17  C   UNL     1      43.473 -20.030   2.397  1.00  0.00     0.067 A 
HETATM   18  C   UNL     1      43.966 -20.520   3.602  1.00  0.00     0.036 A 
HETATM   19  C   UNL     1      44.150 -19.642   4.667  1.00  0.00     0.005 A 
HETATM   20  C   UNL     1      43.842 -18.287   4.518  1.00  0.00     0.029 A 
BRANCH  17  21
HETATM   21  O   UNL     1      43.291 -20.852   1.323  1.00  0.00    -0.361 OA
HETATM   22  H   UNL     1      43.649 -20.420   0.531  1.00  0.00     0.217 HD
ENDBRANCH  17  21
ENDBRANCH  12  15
ENDBRANCH   1  11
BRANCH   4  23
HETATM   23  C   UNL     1      40.789  -9.957   2.756  1.00  0.00     0.409 C 
HETATM   24  F   UNL     1      39.669 -10.614   2.375  1.00  0.00    -0.169 F 
HETATM   25  F   UNL     1      40.373  -8.792   3.327  1.00  0.00    -0.169 F 
HETATM   26  F   UNL     1      41.474  -9.606   1.650  1.00  0.00    -0.169 F 
ENDBRANCH   4  23
BRANCH   6  27
HETATM   27  C   UNL     1      42.925 -11.292   6.603  1.00  0.00    -0.035 A 
HETATM   28  C   UNL     1      43.985 -12.201   6.412  1.00  0.00     0.012 A 
HETATM   29  C   UNL     1      45.280 -11.898   6.838  1.00  0.00     0.043 A 
HETATM   30  C   UNL     1      45.531 -10.681   7.454  1.00  0.00     0.116 A 
HETATM   31  F   UNL     1      46.773 -10.388   7.860  1.00  0.00    -0.206 F 
HETATM   32  C   UNL     1      44.511  -9.763   7.654  1.00  0.00     0.043 A 
HETATM   33  C   UNL     1      43.213 -10.066   7.232  1.00  0.00     0.012 A 
ENDBRANCH   6  27
TORSDOF 5
ENDMDL
MODEL 5
REMARK VINA RESULT:      -8.4      3.474      6.472
REMARK  5 active torsions:
REMARK  status: ('A' for Active; 'I' for Inactive)
REMARK    1  A    between atoms: C_3  and  O_4 
REMARK    2  A    between atoms: C_6  and  N_7 
REMARK       I    between atoms: N_7  and  C_8 
REMARK    3  A    between atoms: C_8  and  C_9 
REMARK    4  A    between atoms: C_12  and  C_13 
REMARK    5  A    between atoms: C_18  and  C_19 
ROOT
HETATM    1  C   UNL     1      41.992 -15.181   5.278  1.00  0.00     0.096 A 
HETATM    2  C   UNL     1      42.265 -14.203   4.339  1.00  0.00     0.138 A 
HETATM    3  N   UNL     1      41.624 -13.067   4.779  1.00  0.00    -0.240 N 
HETATM    4  C   UNL     1      41.583 -11.814   4.046  1.00  0.00     0.221 C 
HETATM    5  C   UNL     1      42.695 -11.788   2.981  1.00  0.00     0.066 C 
HETATM    6  C   UNL     1      42.774 -13.110   2.207  1.00  0.00     0.118 C 
HETATM    7  N   UNL     1      42.945 -14.219   3.157  1.00  0.00    -0.365 N 
HETATM    8  N   UNL     1      40.848 -13.277   5.853  1.00  0.00    -0.181 NA
HETATM    9  C   UNL     1      41.090 -14.553   6.169  1.00  0.00     0.160 A 
HETATM   10  H   UNL     1      43.063 -15.115   2.679  1.00  0.00     0.161 HD
ENDROOT
BRANCH   1  11
HETATM   11  C   UNL     1      42.449 -16.559   5.329  1.00  0.00     0.261 C 
HETATM   12  N   UNL     1      42.892 -17.028   4.107  1.00  0.00    -0.323 N 
HETATM   13  H   UNL     1      42.985 -16.324   3.383  1.00  0.00     0.169 HD
HETATM   14  O   UNL     1      42.447 -17.178   6.386  1.00  0.00    -0.267 OA
BRANCH  12  15
HETATM   15  C   UNL     1      43.299 -18.334   3.778  1.00  0.00     0.037 A 
HETATM   16  C   UNL     1      43.855 -19.231   4.692  1.00  0.00     0.066 A 
HETATM   17  C   UNL     1      44.202 -20.518   4.281  1.00  0.00     0.067 A 
HETATM   18  C   UNL     1      44.011 -20.929   2.967  1.00  0.00     0.036 A 
HETATM   19  C   UNL     1      43.457 -20.040   2.050  1.00  0.00     0.005 A 
HETATM   20  C   UNL     1      43.099 -18.751   2.454  1.00  0.00     0.029 A 
BRANCH  17  21
HETATM   21  O   UNL     1      44.728 -21.362   5.215  1.00  0.00    -0.361 OA
HETATM   22  H   UNL     1      45.540 -20.969   5.574  1.00  0.00     0.217 HD
ENDBRANCH  17  21
ENDBRANCH  12  15
ENDBRANCH   1  11
BRANCH   4  23
HETATM   23  C   UNL     1      41.739 -10.620   4.964  1.00  0.00     0.409 C 
HETATM   24  F   UNL     1      42.264  -9.548   4.327  1.00  0.00    -0.169 F 
HETATM   25  F   UNL     1      40.513 -10.234   5.417  1.00  0.00    -0.169 F 
HETATM   26  F   UNL     1      42.480 -10.869   6.062  1.00  0.00    -0.169 F 
ENDBRANCH   4  23
BRANCH   6  27
HETATM   27  C   UNL     1      41.615 -13.311   1.237  1.00  0.00    -0.035 A 
HETATM   28  C   UNL     1      41.050 -12.177   0.616  1.00  0.00     0.012 A 
HETATM   29  C   UNL     1      39.983 -12.302  -0.276  1.00  0.00     0.043 A 
HETATM   30  C   UNL     1      39.473 -13.560  -0.563  1.00  0.00     0.116 A 
HETATM   31  F   UNL     1      38.451 -13.680  -1.421  1.00  0.00    -0.206 F 
HETATM   32  C   UNL     1      40.008 -14.694   0.028  1.00  0.00     0.043 A 
HETATM   33  C   UNL     1      41.074 -14.572   0.924  1.00  0.00     0.012 A 
ENDBRANCH   6  27
TORSDOF 5
ENDMDL
MODEL 6
REMARK VINA RESULT:      -8.3      4.241      7.787
REMARK  5 active torsions:
REMARK  status: ('A' for Active; 'I' for Inactive)
REMARK    1  A    between atoms: C_3  and  O_4 
REMARK    2  A    between atoms: C_6  and  N_7 
REMARK       I    between atoms: N_7  and  C_8 
REMARK    3  A    between atoms: C_8  and  C_9 
REMARK    4  A    between atoms: C_12  and  C_13 
REMARK    5  A    between atoms: C_18  and  C_19 
ROOT
HETATM    1  C   UNL     1      40.553 -14.773   1.549  1.00  0.00     0.096 A 
HETATM    2  C   UNL     1      39.645 -13.745   1.729  1.00  0.00     0.138 A 
HETATM    3  N   UNL     1      39.581 -13.083   0.524  1.00  0.00    -0.240 N 
HETATM    4  C   UNL     1      38.800 -11.881   0.291  1.00  0.00     0.221 C 
HETATM    5  C   UNL     1      37.735 -11.721   1.392  1.00  0.00     0.066 C 
HETATM    6  C   UNL     1      38.314 -11.983   2.788  1.00  0.00     0.118 C 
HETATM    7  N   UNL     1      38.938 -13.314   2.812  1.00  0.00    -0.365 N 
HETATM    8  N   UNL     1      40.479 -13.519  -0.372  1.00  0.00    -0.181 NA
HETATM    9  C   UNL     1      41.052 -14.559   0.242  1.00  0.00     0.160 A 
HETATM   10  H   UNL     1      39.285 -13.556   3.743  1.00  0.00     0.161 HD
ENDROOT
BRANCH   1  11
HETATM   11  C   UNL     1      40.973 -15.803   2.484  1.00  0.00     0.261 C 
HETATM   12  N   UNL     1      42.204 -16.347   2.170  1.00  0.00    -0.323 N 
HETATM   13  H   UNL     1      42.715 -15.866   1.437  1.00  0.00     0.169 HD
HETATM   14  O   UNL     1      40.279 -16.089   3.451  1.00  0.00    -0.267 OA
BRANCH  12  15
HETATM   15  C   UNL     1      42.857 -17.426   2.795  1.00  0.00     0.037 A 
HETATM   16  C   UNL     1      42.998 -18.691   2.220  1.00  0.00     0.066 A 
HETATM   17  C   UNL     1      43.687 -19.692   2.903  1.00  0.00     0.067 A 
HETATM   18  C   UNL     1      44.236 -19.460   4.159  1.00  0.00     0.036 A 
HETATM   19  C   UNL     1      44.098 -18.201   4.739  1.00  0.00     0.005 A 
HETATM   20  C   UNL     1      43.416 -17.189   4.058  1.00  0.00     0.029 A 
BRANCH  17  21
HETATM   21  O   UNL     1      43.811 -20.906   2.292  1.00  0.00    -0.361 OA
HETATM   22  H   UNL     1      44.270 -21.515   2.893  1.00  0.00     0.217 HD
ENDBRANCH  17  21
ENDBRANCH  12  15
ENDBRANCH   1  11
BRANCH   4  23
HETATM   23  C   UNL     1      38.123 -11.903  -1.063  1.00  0.00     0.409 C 
HETATM   24  F   UNL     1      37.693 -13.139  -1.403  1.00  0.00    -0.169 F 
HETATM   25  F   UNL     1      37.016 -11.108  -1.028  1.00  0.00    -0.169 F 
HETATM   26  F   UNL     1      38.891 -11.428  -2.063  1.00  0.00    -0.169 F 
ENDBRANCH   4  23
BRANCH   6  27
HETATM   27  C   UNL     1      39.232 -10.869   3.279  1.00  0.00    -0.035 A 
HETATM   28  C   UNL     1      40.402 -11.221   3.984  1.00  0.00     0.012 A 
HETATM   29  C   UNL     1      41.275 -10.242   4.463  1.00  0.00     0.043 A 
HETATM   30  C   UNL     1      40.993  -8.902   4.237  1.00  0.00     0.116 A 
HETATM   31  F   UNL     1      41.832  -7.963   4.693  1.00  0.00    -0.206 F 
HETATM   32  C   UNL     1      39.853  -8.524   3.543  1.00  0.00     0.043 A 
HETATM   33  C   UNL     1      38.976  -9.502   3.066  1.00  0.00     0.012 A 
ENDBRANCH   6  27
TORSDOF 5
ENDMDL
MODEL 7
REMARK VINA RESULT:      -8.3     15.527     17.508
REMARK  5 active torsions:
REMARK  status: ('A' for Active; 'I' for Inactive)
REMARK    1  A    between atoms: C_3  and  O_4 
REMARK    2  A    between atoms: C_6  and  N_7 
REMARK       I    between atoms: N_7  and  C_8 
REMARK    3  A    between atoms: C_8  and  C_9 
REMARK    4  A    between atoms: C_12  and  C_13 
REMARK    5  A    between atoms: C_18  and  C_19 
ROOT
HETATM    1  C   UNL     1      43.764 -30.292   0.565  1.00  0.00     0.096 A 
HETATM    2  C   UNL     1      44.679 -29.505  -0.110  1.00  0.00     0.138 A 
HETATM    3  N   UNL     1      44.675 -29.954  -1.411  1.00  0.00    -0.240 N 
HETATM    4  C   UNL     1      45.554 -29.451  -2.452  1.00  0.00     0.221 C 
HETATM    5  C   UNL     1      46.141 -28.089  -2.039  1.00  0.00     0.066 C 
HETATM    6  C   UNL     1      46.625 -28.095  -0.583  1.00  0.00     0.118 C 
HETATM    7  N   UNL     1      45.521 -28.511   0.294  1.00  0.00    -0.365 N 
HETATM    8  N   UNL     1      43.933 -31.056  -1.592  1.00  0.00    -0.181 NA
HETATM    9  C   UNL     1      43.362 -31.247  -0.399  1.00  0.00     0.160 A 
HETATM   10  H   UNL     1      45.783 -28.471   1.281  1.00  0.00     0.161 HD
ENDROOT
BRANCH   1  11
HETATM   11  C   UNL     1      43.344 -30.228   1.955  1.00  0.00     0.261 C 
HETATM   12  N   UNL     1      42.676 -31.365   2.370  1.00  0.00    -0.323 N 
HETATM   13  H   UNL     1      42.698 -32.141   1.717  1.00  0.00     0.169 HD
HETATM   14  O   UNL     1      43.615 -29.253   2.645  1.00  0.00    -0.267 OA
BRANCH  12  15
HETATM   15  C   UNL     1      42.048 -31.594   3.608  1.00  0.00     0.037 A 
HETATM   16  C   UNL     1      40.664 -31.591   3.793  1.00  0.00     0.066 A 
HETATM   17  C   UNL     1      40.130 -31.857   5.053  1.00  0.00     0.067 A 
HETATM   18  C   UNL     1      40.953 -32.123   6.143  1.00  0.00     0.036 A 
HETATM   19  C   UNL     1      42.335 -32.128   5.965  1.00  0.00     0.005 A 
HETATM   20  C   UNL     1      42.879 -31.869   4.704  1.00  0.00     0.029 A 
BRANCH  17  21
HETATM   21  O   UNL     1      38.772 -31.856   5.180  1.00  0.00    -0.361 OA
HETATM   22  H   UNL     1      38.456 -30.938   5.184  1.00  0.00     0.217 HD
ENDBRANCH  17  21
ENDBRANCH  12  15
ENDBRANCH   1  11
BRANCH   4  23
HETATM   23  C   UNL     1      44.834 -29.307  -3.776  1.00  0.00     0.409 C 
HETATM   24  F   UNL     1      43.522 -29.017  -3.619  1.00  0.00    -0.169 F 
HETATM   25  F   UNL     1      45.375 -28.269  -4.474  1.00  0.00    -0.169 F 
HETATM   26  F   UNL     1      44.940 -30.387  -4.575  1.00  0.00    -0.169 F 
ENDBRANCH   4  23
BRANCH   6  27
HETATM   27  C   UNL     1      47.904 -28.898  -0.377  1.00  0.00    -0.035 A 
HETATM   28  C   UNL     1      48.231 -29.325   0.927  1.00  0.00     0.012 A 
HETATM   29  C   UNL     1      49.393 -30.057   1.175  1.00  0.00     0.043 A 
HETATM   30  C   UNL     1      50.239 -30.377   0.122  1.00  0.00     0.116 A 
HETATM   31  F   UNL     1      51.353 -31.082   0.359  1.00  0.00    -0.206 F 
HETATM   32  C   UNL     1      49.945 -29.976  -1.172  1.00  0.00     0.043 A 
HETATM   33  C   UNL     1      48.783 -29.239  -1.422  1.00  0.00     0.012 A 
ENDBRANCH   6  27
TORSDOF 5
ENDMDL
MODEL 8
REMARK VINA RESULT:      -8.0      4.298      7.528
REMARK  5 active torsions:
REMARK  status: ('A' for Active; 'I' for Inactive)
REMARK    1  A    between atoms: C_3  and  O_4 
REMARK    2  A    between atoms: C_6  and  N_7 
REMARK       I    between atoms: N_7  and  C_8 
REMARK    3  A    between atoms: C_8  and  C_9 
REMARK    4  A    between atoms: C_12  and  C_13 
REMARK    5  A    between atoms: C_18  and  C_19 
ROOT
HETATM    1  C   UNL     1      40.730 -12.808   5.606  1.00  0.00     0.096 A 
HETATM    2  C   UNL     1      40.491 -13.670   4.551  1.00  0.00     0.138 A 
HETATM    3  N   UNL     1      41.642 -14.408   4.398  1.00  0.00    -0.240 N 
HETATM    4  C   UNL     1      41.852 -15.387   3.346  1.00  0.00     0.221 C 
HETATM    5  C   UNL     1      40.503 -15.804   2.733  1.00  0.00     0.066 C 
HETATM    6  C   UNL     1      39.601 -14.593   2.464  1.00  0.00     0.118 C 
HETATM    7  N   UNL     1      39.430 -13.829   3.709  1.00  0.00    -0.365 N 
HETATM    8  N   UNL     1      42.649 -13.993   5.181  1.00  0.00    -0.181 NA
HETATM    9  C   UNL     1      42.088 -13.038   5.930  1.00  0.00     0.160 A 
HETATM   10  H   UNL     1      38.785 -13.045   3.590  1.00  0.00     0.161 HD
ENDROOT
BRANCH   1  11
HETATM   11  C   UNL     1      39.843 -11.832   6.216  1.00  0.00     0.261 C 
HETATM   12  N   UNL     1      40.519 -10.768   6.783  1.00  0.00    -0.323 N 
HETATM   13  H   UNL     1      41.510 -10.725   6.573  1.00  0.00     0.169 HD
HETATM   14  O   UNL     1      38.628 -11.977   6.168  1.00  0.00    -0.267 OA
BRANCH  12  15
HETATM   15  C   UNL     1      39.984  -9.708   7.539  1.00  0.00     0.037 A 
HETATM   16  C   UNL     1      39.542  -9.837   8.857  1.00  0.00     0.066 A 
HETATM   17  C   UNL     1      39.053  -8.723   9.538  1.00  0.00     0.067 A 
HETATM   18  C   UNL     1      38.989  -7.476   8.926  1.00  0.00     0.036 A 
HETATM   19  C   UNL     1      39.427  -7.341   7.611  1.00  0.00     0.005 A 
HETATM   20  C   UNL     1      39.926  -8.450   6.923  1.00  0.00     0.029 A 
BRANCH  17  21
HETATM   21  O   UNL     1      38.647  -8.897  10.829  1.00  0.00    -0.361 OA
HETATM   22  H   UNL     1      37.790  -9.353  10.832  1.00  0.00     0.217 HD
ENDBRANCH  17  21
ENDBRANCH  12  15
ENDBRANCH   1  11
BRANCH   4  23
HETATM   23  C   UNL     1      42.573 -16.616   3.856  1.00  0.00     0.409 C 
HETATM   24  F   UNL     1      42.474 -17.662   3.003  1.00  0.00    -0.169 F 
HETATM   25  F   UNL     1      43.903 -16.345   3.976  1.00  0.00    -0.169 F 
HETATM   26  F   UNL     1      42.165 -17.021   5.076  1.00  0.00    -0.169 F 
ENDBRANCH   4  23
BRANCH   6  27
HETATM   27  C   UNL     1      40.066 -13.743   1.287  1.00  0.00    -0.035 A 
HETATM   28  C   UNL     1      40.010 -14.297  -0.009  1.00  0.00     0.012 A 
HETATM   29  C   UNL     1      40.429 -13.567  -1.123  1.00  0.00     0.043 A 
HETATM   30  C   UNL     1      40.903 -12.274  -0.956  1.00  0.00     0.116 A 
HETATM   31  F   UNL     1      41.302 -11.572  -2.025  1.00  0.00    -0.206 F 
HETATM   32  C   UNL     1      40.967 -11.699   0.304  1.00  0.00     0.043 A 
HETATM   33  C   UNL     1      40.551 -12.429   1.421  1.00  0.00     0.012 A 
ENDBRANCH   6  27
TORSDOF 5
ENDMDL
MODEL 9
REMARK VINA RESULT:      -8.0      3.861      6.747
REMARK  5 active torsions:
REMARK  status: ('A' for Active; 'I' for Inactive)
REMARK    1  A    between atoms: C_3  and  O_4 
REMARK    2  A    between atoms: C_6  and  N_7 
REMARK       I    between atoms: N_7  and  C_8 
REMARK    3  A    between atoms: C_8  and  C_9 
REMARK    4  A    between atoms: C_12  and  C_13 
REMARK    5  A    between atoms: C_18  and  C_19 
ROOT
HETATM    1  C   UNL     1      40.992 -13.209   4.753  1.00  0.00     0.096 A 
HETATM    2  C   UNL     1      40.655 -14.060   3.716  1.00  0.00     0.138 A 
HETATM    3  N   UNL     1      41.772 -14.827   3.479  1.00  0.00    -0.240 N 
HETATM    4  C   UNL     1      41.881 -15.806   2.412  1.00  0.00     0.221 C 
HETATM    5  C   UNL     1      40.481 -16.186   1.896  1.00  0.00     0.066 C 
HETATM    6  C   UNL     1      39.593 -14.951   1.697  1.00  0.00     0.118 C 
HETATM    7  N   UNL     1      39.533 -14.189   2.952  1.00  0.00    -0.365 N 
HETATM    8  N   UNL     1      42.844 -14.441   4.188  1.00  0.00    -0.181 NA
HETATM    9  C   UNL     1      42.364 -13.476   4.977  1.00  0.00     0.160 A 
HETATM   10  H   UNL     1      38.901 -13.388   2.882  1.00  0.00     0.161 HD
ENDROOT
BRANCH   1  11
HETATM   11  C   UNL     1      40.177 -12.213   5.428  1.00  0.00     0.261 C 
HETATM   12  N   UNL     1      40.158 -10.997   4.773  1.00  0.00    -0.323 N 
HETATM   13  H   UNL     1      40.578 -10.997   3.849  1.00  0.00     0.169 HD
HETATM   14  O   UNL     1      39.566 -12.496   6.451  1.00  0.00    -0.267 OA
BRANCH  12  15
HETATM   15  C   UNL     1      39.562  -9.795   5.199  1.00  0.00     0.037 A 
HETATM   16  C   UNL     1      38.245  -9.433   4.913  1.00  0.00     0.066 A 
HETATM   17  C   UNL     1      37.730  -8.234   5.403  1.00  0.00     0.067 A 
HETATM   18  C   UNL     1      38.510  -7.377   6.173  1.00  0.00     0.036 A 
HETATM   19  C   UNL     1      39.826  -7.732   6.462  1.00  0.00     0.005 A 
HETATM   20  C   UNL     1      40.347  -8.936   5.981  1.00  0.00     0.029 A 
BRANCH  17  21
HETATM   21  O   UNL     1      36.433  -7.932   5.108  1.00  0.00    -0.361 OA
HETATM   22  H   UNL     1      36.390  -7.025   4.765  1.00  0.00     0.217 HD
ENDBRANCH  17  21
ENDBRANCH  12  15
ENDBRANCH   1  11
BRANCH   4  23
HETATM   23  C   UNL     1      42.605 -17.056   2.865  1.00  0.00     0.409 C 
HETATM   24  F   UNL     1      42.415 -17.311   4.180  1.00  0.00    -0.169 F 
HETATM   25  F   UNL     1      42.113 -18.134   2.191  1.00  0.00    -0.169 F 
HETATM   26  F   UNL     1      43.930 -17.038   2.621  1.00  0.00    -0.169 F 
ENDBRANCH   4  23
BRANCH   6  27
HETATM   27  C   UNL     1      39.994 -14.108   0.490  1.00  0.00    -0.035 A 
HETATM   28  C   UNL     1      39.745 -14.617  -0.801  1.00  0.00     0.012 A 
HETATM   29  C   UNL     1      40.097 -13.892  -1.941  1.00  0.00     0.043 A 
HETATM   30  C   UNL     1      40.697 -12.648  -1.803  1.00  0.00     0.116 A 
HETATM   31  F   UNL     1      41.032 -11.950  -2.897  1.00  0.00    -0.206 F 
HETATM   32  C   UNL     1      40.952 -12.118  -0.547  1.00  0.00     0.043 A 
HETATM   33  C   UNL     1      40.603 -12.844   0.595  1.00  0.00     0.012 A 
ENDBRANCH   6  27
TORSDOF 5
ENDMDL
MODEL 10
REMARK VINA RESULT:      -7.9      4.005      6.988
REMARK  5 active torsions:
REMARK  status: ('A' for Active; 'I' for Inactive)
REMARK    1  A    between atoms: C_3  and  O_4 
REMARK    2  A    between atoms: C_6  and  N_7 
REMARK       I    between atoms: N_7  and  C_8 
REMARK    3  A    between atoms: C_8  and  C_9 
REMARK    4  A    between atoms: C_12  and  C_13 
REMARK    5  A    between atoms: C_18  and  C_19 
ROOT
HETATM    1  C   UNL     1      42.516 -12.113   5.887  1.00  0.00     0.096 A 
HETATM    2  C   UNL     1      42.626 -10.931   6.596  1.00  0.00     0.138 A 
HETATM    3  N   UNL     1      43.745 -11.066   7.385  1.00  0.00    -0.240 N 
HETATM    4  C   UNL     1      44.188 -10.079   8.353  1.00  0.00     0.221 C 
HETATM    5  C   UNL     1      43.530  -8.718   8.061  1.00  0.00     0.066 C 
HETATM    6  C   UNL     1      42.032  -8.862   7.763  1.00  0.00     0.118 C 
HETATM    7  N   UNL     1      41.845  -9.815   6.660  1.00  0.00    -0.365 N 
HETATM    8  N   UNL     1      44.283 -12.294   7.340  1.00  0.00    -0.181 NA
HETATM    9  C   UNL     1      43.552 -12.922   6.414  1.00  0.00     0.160 A 
HETATM   10  H   UNL     1      40.863  -9.895   6.388  1.00  0.00     0.161 HD
ENDROOT
BRANCH   1  11
HETATM   11  C   UNL     1      41.538 -12.497   4.884  1.00  0.00     0.261 C 
HETATM   12  N   UNL     1      42.001 -13.475   4.024  1.00  0.00    -0.323 N 
HETATM   13  H   UNL     1      42.884 -13.899   4.288  1.00  0.00     0.169 HD
HETATM   14  O   UNL     1      40.421 -11.994   4.876  1.00  0.00    -0.267 OA
BRANCH  12  15
HETATM   15  C   UNL     1      41.361 -13.997   2.884  1.00  0.00     0.037 A 
HETATM   16  C   UNL     1      41.502 -13.470   1.600  1.00  0.00     0.066 A 
HETATM   17  C   UNL     1      40.851 -14.073   0.525  1.00  0.00     0.067 A 
HETATM   18  C   UNL     1      40.051 -15.196   0.706  1.00  0.00     0.036 A 
HETATM   19  C   UNL     1      39.905 -15.728   1.985  1.00  0.00     0.005 A 
HETATM   20  C   UNL     1      40.561 -15.134   3.067  1.00  0.00     0.029 A 
BRANCH  17  21
HETATM   21  O   UNL     1      41.032 -13.528  -0.713  1.00  0.00    -0.361 OA
HETATM   22  H   UNL     1      40.878 -14.213  -1.384  1.00  0.00     0.217 HD
ENDBRANCH  17  21
ENDBRANCH  12  15
ENDBRANCH   1  11
BRANCH   4  23
HETATM   23  C   UNL     1      45.694  -9.919   8.347  1.00  0.00     0.409 C 
HETATM   24  F   UNL     1      46.224 -10.089   7.115  1.00  0.00    -0.169 F 
HETATM   25  F   UNL     1      46.016  -8.653   8.732  1.00  0.00    -0.169 F 
HETATM   26  F   UNL     1      46.332 -10.742   9.203  1.00  0.00    -0.169 F 
ENDBRANCH   4  23
BRANCH   6  27
HETATM   27  C   UNL     1      41.201  -9.188   8.999  1.00  0.00    -0.035 A 
HETATM   28  C   UNL     1      41.820  -9.127  10.265  1.00  0.00     0.012 A 
HETATM   29  C   UNL     1      41.108  -9.422  11.429  1.00  0.00     0.043 A 
HETATM   30  C   UNL     1      39.769  -9.776  11.343  1.00  0.00     0.116 A 
HETATM   31  F   UNL     1      39.086 -10.057  12.461  1.00  0.00    -0.206 F 
HETATM   32  C   UNL     1      39.130  -9.842  10.114  1.00  0.00     0.043 A 
HETATM   33  C   UNL     1      39.842  -9.550   8.947  1.00  0.00     0.012 A 
ENDBRANCH   6  27
TORSDOF 5
ENDMDL
