MODEL 1
REMARK VINA RESULT:      -9.6      0.000      0.000
REMARK  4 active torsions:
REMARK  status: ('A' for Active; 'I' for Inactive)
REMARK    1  A    between atoms: C_3  and  N_4 
REMARK    2  A    between atoms: C_11  and  C_12 
REMARK       I    between atoms: C_12  and  N_13 
REMARK    3  A    between atoms: N_13  and  C_14 
REMARK    4  A    between atoms: C_19  and  O_20 
ROOT
HETATM    1  C   UNL     1      43.127 -11.525   6.611  1.00  0.00     0.036 A 
HETATM    2  C   UNL     1      43.150 -12.909   6.447  1.00  0.00     0.049 A 
HETATM    3  C   UNL     1      43.203 -13.482   5.160  1.00  0.00     0.063 A 
HETATM    4  C   UNL     1      43.224 -12.667   4.012  1.00  0.00     0.075 A 
HETATM    5  N   UNL     1      43.256 -13.093   2.666  1.00  0.00    -0.226 NA
HETATM    6  C   UNL     1      42.533 -14.095   2.293  1.00  0.00     0.161 C 
HETATM    7  C   UNL     1      41.645 -14.951   3.173  1.00  0.00     0.164 C 
HETATM    8  N   UNL     1      42.563 -15.600   4.099  1.00  0.00    -0.336 N 
HETATM    9  C   UNL     1      43.261 -14.967   5.101  1.00  0.00     0.257 C 
HETATM   10  O   UNL     1      43.914 -15.581   5.939  1.00  0.00    -0.267 OA
HETATM   11  C   UNL     1      40.922 -16.110   2.491  1.00  0.00     0.035 C 
HETATM   12  C   UNL     1      41.921 -17.262   2.577  1.00  0.00     0.022 C 
HETATM   13  C   UNL     1      42.585 -17.038   3.927  1.00  0.00     0.127 C 
HETATM   14  C   UNL     1      43.249 -11.280   4.200  1.00  0.00     0.035 A 
HETATM   15  C   UNL     1      43.207 -10.714   5.477  1.00  0.00     0.032 A 
ENDROOT
BRANCH   1  16
HETATM   16  N   UNL     1      43.009 -10.870   7.854  1.00  0.00    -0.323 N 
HETATM   17  C   UNL     1      43.991 -10.714   8.819  1.00  0.00     0.256 C 
HETATM   18  O   UNL     1      45.165 -11.048   8.713  1.00  0.00    -0.267 OA
HETATM   19  H   UNL     1      42.090 -10.506   8.063  1.00  0.00     0.169 HD
BRANCH  17  20
HETATM   20  C   UNL     1      43.546 -10.092  10.107  1.00  0.00     0.033 A 
HETATM   21  C   UNL     1      43.513 -10.792  11.313  1.00  0.00     0.019 A 
HETATM   22  C   UNL     1      43.116 -10.146  12.489  1.00  0.00     0.031 A 
HETATM   23  C   UNL     1      42.770  -8.781  12.493  1.00  0.00     0.044 A 
HETATM   24  C   UNL     1      42.788  -8.062  11.278  1.00  0.00    -0.034 A 
HETATM   25  C   UNL     1      42.369  -6.626  11.118  1.00  0.00     0.050 C 
HETATM   26  C   UNL     1      43.196  -8.733  10.104  1.00  0.00     0.026 A 
BRANCH  23  27
HETATM   27  N   UNL     1      42.436  -8.192  13.753  1.00  0.00    -0.332 N 
HETATM   28  C   UNL     1      43.098  -7.175  14.410  1.00  0.00     0.096 A 
HETATM   29  C   UNL     1      42.470  -6.919  15.610  1.00  0.00     0.019 A 
HETATM   30  C   UNL     1      41.392  -7.818  15.717  1.00  0.00     0.019 A 
HETATM   31  C   UNL     1      41.402  -8.598  14.581  1.00  0.00     0.096 A 
ENDBRANCH  23  27
ENDBRANCH  17  20
ENDBRANCH   1  16
BRANCH   6  32
HETATM   32  O   UNL     1      42.578 -14.411   0.993  1.00  0.00    -0.346 OA
HETATM   33  H   UNL     1      43.250 -13.840   0.583  1.00  0.00     0.219 HD
ENDBRANCH   6  32
TORSDOF 4
ENDMDL
MODEL 2
REMARK VINA RESULT:      -8.6      3.244     10.375
REMARK  4 active torsions:
REMARK  status: ('A' for Active; 'I' for Inactive)
REMARK    1  A    between atoms: C_3  and  N_4 
REMARK    2  A    between atoms: C_11  and  C_12 
REMARK       I    between atoms: C_12  and  N_13 
REMARK    3  A    between atoms: N_13  and  C_14 
REMARK    4  A    between atoms: C_19  and  O_20 
ROOT
HETATM    1  C   UNL     1      43.445 -11.506   6.602  1.00  0.00     0.036 A 
HETATM    2  C   UNL     1      42.356 -10.636   6.618  1.00  0.00     0.049 A 
HETATM    3  C   UNL     1      42.450  -9.371   7.235  1.00  0.00     0.063 A 
HETATM    4  C   UNL     1      43.646  -8.964   7.856  1.00  0.00     0.075 A 
HETATM    5  N   UNL     1      43.884  -7.745   8.527  1.00  0.00    -0.226 NA
HETATM    6  C   UNL     1      42.976  -7.249   9.299  1.00  0.00     0.161 C 
HETATM    7  C   UNL     1      41.592  -7.814   9.552  1.00  0.00     0.164 C 
HETATM    8  N   UNL     1      40.927  -7.744   8.259  1.00  0.00    -0.336 N 
HETATM    9  C   UNL     1      41.241  -8.509   7.160  1.00  0.00     0.257 C 
HETATM   10  O   UNL     1      40.560  -8.507   6.139  1.00  0.00    -0.267 OA
HETATM   11  C   UNL     1      40.687  -7.010  10.482  1.00  0.00     0.035 C 
HETATM   12  C   UNL     1      39.988  -6.025   9.546  1.00  0.00     0.022 C 
HETATM   13  C   UNL     1      39.795  -6.840   8.276  1.00  0.00     0.127 C 
HETATM   14  C   UNL     1      44.742  -9.832   7.788  1.00  0.00     0.035 A 
HETATM   15  C   UNL     1      44.649 -11.081   7.168  1.00  0.00     0.032 A 
ENDROOT
BRANCH   1  16
HETATM   16  N   UNL     1      43.418 -12.810   6.068  1.00  0.00    -0.323 N 
HETATM   17  C   UNL     1      43.420 -14.005   6.769  1.00  0.00     0.256 C 
HETATM   18  O   UNL     1      43.357 -14.127   7.987  1.00  0.00    -0.267 OA
HETATM   19  H   UNL     1      43.429 -12.862   5.060  1.00  0.00     0.169 HD
BRANCH  17  20
HETATM   20  C   UNL     1      43.525 -15.247   5.939  1.00  0.00     0.033 A 
HETATM   21  C   UNL     1      43.827 -16.497   6.482  1.00  0.00     0.019 A 
HETATM   22  C   UNL     1      43.882 -17.625   5.658  1.00  0.00     0.031 A 
HETATM   23  C   UNL     1      43.611 -17.539   4.279  1.00  0.00     0.044 A 
HETATM   24  C   UNL     1      43.316 -16.280   3.713  1.00  0.00    -0.034 A 
HETATM   25  C   UNL     1      43.085 -16.024   2.248  1.00  0.00     0.050 C 
HETATM   26  C   UNL     1      43.261 -15.155   4.565  1.00  0.00     0.026 A 
BRANCH  23  27
HETATM   27  N   UNL     1      43.632 -18.756   3.528  1.00  0.00    -0.332 N 
HETATM   28  C   UNL     1      43.163 -18.964   2.247  1.00  0.00     0.096 A 
HETATM   29  C   UNL     1      43.347 -20.286   1.900  1.00  0.00     0.019 A 
HETATM   30  C   UNL     1      43.931 -20.930   3.007  1.00  0.00     0.019 A 
HETATM   31  C   UNL     1      44.078 -19.982   3.996  1.00  0.00     0.096 A 
ENDBRANCH  23  27
ENDBRANCH  17  20
ENDBRANCH   1  16
BRANCH   6  32
HETATM   32  O   UNL     1      43.291  -6.116   9.939  1.00  0.00    -0.346 OA
HETATM   33  H   UNL     1      42.601  -5.965  10.607  1.00  0.00     0.219 HD
ENDBRANCH   6  32
TORSDOF 4
ENDMDL
MODEL 3
REMARK VINA RESULT:      -8.5      2.302     10.761
REMARK  4 active torsions:
REMARK  status: ('A' for Active; 'I' for Inactive)
REMARK    1  A    between atoms: C_3  and  N_4 
REMARK    2  A    between atoms: C_11  and  C_12 
REMARK       I    between atoms: C_12  and  N_13 
REMARK    3  A    between atoms: N_13  and  C_14 
REMARK    4  A    between atoms: C_19  and  O_20 
ROOT
HETATM    1  C   UNL     1      43.260  -9.951   9.753  1.00  0.00     0.036 A 
HETATM    2  C   UNL     1      43.032  -8.579   9.656  1.00  0.00     0.049 A 
HETATM    3  C   UNL     1      43.053  -7.760  10.804  1.00  0.00     0.063 A 
HETATM    4  C   UNL     1      43.296  -8.314  12.075  1.00  0.00     0.075 A 
HETATM    5  N   UNL     1      43.328  -7.630  13.309  1.00  0.00    -0.226 NA
HETATM    6  C   UNL     1      42.453  -6.713  13.558  1.00  0.00     0.161 C 
HETATM    7  C   UNL     1      41.369  -6.217  12.623  1.00  0.00     0.164 C 
HETATM    8  N   UNL     1      42.091  -5.617  11.511  1.00  0.00    -0.336 N 
HETATM    9  C   UNL     1      42.834  -6.306  10.581  1.00  0.00     0.257 C 
HETATM   10  O   UNL     1      43.309  -5.768   9.586  1.00  0.00    -0.267 OA
HETATM   11  C   UNL     1      40.482  -5.087  13.145  1.00  0.00     0.035 C 
HETATM   12  C   UNL     1      41.240  -3.821  12.753  1.00  0.00     0.022 C 
HETATM   13  C   UNL     1      41.852  -4.192  11.410  1.00  0.00     0.127 C 
HETATM   14  C   UNL     1      43.570  -9.685  12.146  1.00  0.00     0.035 A 
HETATM   15  C   UNL     1      43.558 -10.493  11.005  1.00  0.00     0.032 A 
ENDROOT
BRANCH   1  16
HETATM   16  N   UNL     1      43.192 -10.850   8.670  1.00  0.00    -0.323 N 
HETATM   17  C   UNL     1      44.200 -11.162   7.772  1.00  0.00     0.256 C 
HETATM   18  O   UNL     1      45.360 -10.767   7.825  1.00  0.00    -0.267 OA
HETATM   19  H   UNL     1      42.292 -11.285   8.527  1.00  0.00     0.169 HD
BRANCH  17  20
HETATM   20  C   UNL     1      43.807 -12.052   6.633  1.00  0.00     0.033 A 
HETATM   21  C   UNL     1      43.658 -13.432   6.769  1.00  0.00     0.019 A 
HETATM   22  C   UNL     1      43.260 -14.206   5.674  1.00  0.00     0.031 A 
HETATM   23  C   UNL     1      42.975 -13.618   4.426  1.00  0.00     0.044 A 
HETATM   24  C   UNL     1      43.133 -12.223   4.271  1.00  0.00    -0.034 A 
HETATM   25  C   UNL     1      42.943 -11.471   2.981  1.00  0.00     0.050 C 
HETATM   26  C   UNL     1      43.532 -11.461   5.391  1.00  0.00     0.026 A 
BRANCH  23  27
HETATM   27  N   UNL     1      42.517 -14.481   3.383  1.00  0.00    -0.332 N 
HETATM   28  C   UNL     1      41.224 -14.901   3.144  1.00  0.00     0.096 A 
HETATM   29  C   UNL     1      41.211 -15.749   2.057  1.00  0.00     0.019 A 
HETATM   30  C   UNL     1      42.540 -15.880   1.613  1.00  0.00     0.019 A 
HETATM   31  C   UNL     1      43.322 -15.112   2.449  1.00  0.00     0.096 A 
ENDBRANCH  23  27
ENDBRANCH  17  20
ENDBRANCH   1  16
BRANCH   6  32
HETATM   32  O   UNL     1      42.515  -6.142  14.767  1.00  0.00    -0.346 OA
HETATM   33  H   UNL     1      42.774  -5.214  14.631  1.00  0.00     0.219 HD
ENDBRANCH   6  32
TORSDOF 4
ENDMDL
MODEL 4
REMARK VINA RESULT:      -8.4      2.295      2.712
REMARK  4 active torsions:
REMARK  status: ('A' for Active; 'I' for Inactive)
REMARK    1  A    between atoms: C_3  and  N_4 
REMARK    2  A    between atoms: C_11  and  C_12 
REMARK       I    between atoms: C_12  and  N_13 
REMARK    3  A    between atoms: N_13  and  C_14 
REMARK    4  A    between atoms: C_19  and  O_20 
ROOT
HETATM    1  C   UNL     1      40.578 -11.416   5.999  1.00  0.00     0.036 A 
HETATM    2  C   UNL     1      41.620 -11.979   5.264  1.00  0.00     0.049 A 
HETATM    3  C   UNL     1      41.361 -12.697   4.078  1.00  0.00     0.063 A 
HETATM    4  C   UNL     1      40.042 -12.867   3.617  1.00  0.00     0.075 A 
HETATM    5  N   UNL     1      39.627 -13.572   2.466  1.00  0.00    -0.226 NA
HETATM    6  C   UNL     1      40.183 -14.699   2.168  1.00  0.00     0.161 C 
HETATM    7  C   UNL     1      41.320 -15.373   2.909  1.00  0.00     0.164 C 
HETATM    8  N   UNL     1      42.445 -14.460   2.762  1.00  0.00    -0.336 N 
HETATM    9  C   UNL     1      42.548 -13.223   3.353  1.00  0.00     0.257 C 
HETATM   10  O   UNL     1      43.575 -12.554   3.307  1.00  0.00    -0.267 OA
HETATM   11  C   UNL     1      41.828 -16.690   2.325  1.00  0.00     0.035 C 
HETATM   12  C   UNL     1      42.894 -16.254   1.322  1.00  0.00     0.022 C 
HETATM   13  C   UNL     1      43.527 -15.047   1.998  1.00  0.00     0.127 C 
HETATM   14  C   UNL     1      39.014 -12.254   4.343  1.00  0.00     0.035 A 
HETATM   15  C   UNL     1      39.274 -11.535   5.513  1.00  0.00     0.032 A 
ENDROOT
BRANCH   1  16
HETATM   16  N   UNL     1      40.741 -10.742   7.227  1.00  0.00    -0.323 N 
HETATM   17  C   UNL     1      41.195  -9.448   7.421  1.00  0.00     0.256 C 
HETATM   18  O   UNL     1      41.452  -8.634   6.541  1.00  0.00    -0.267 OA
HETATM   19  H   UNL     1      40.526 -11.287   8.049  1.00  0.00     0.169 HD
BRANCH  17  20
HETATM   20  C   UNL     1      41.398  -9.035   8.846  1.00  0.00     0.033 A 
HETATM   21  C   UNL     1      40.406  -8.408   9.601  1.00  0.00     0.019 A 
HETATM   22  C   UNL     1      40.647  -8.073  10.937  1.00  0.00     0.031 A 
HETATM   23  C   UNL     1      41.873  -8.380  11.560  1.00  0.00     0.044 A 
HETATM   24  C   UNL     1      42.890  -9.003  10.805  1.00  0.00    -0.034 A 
HETATM   25  C   UNL     1      44.272  -9.316  11.312  1.00  0.00     0.050 C 
HETATM   26  C   UNL     1      42.624  -9.336   9.459  1.00  0.00     0.026 A 
BRANCH  23  27
HETATM   27  N   UNL     1      42.005  -8.053  12.945  1.00  0.00    -0.332 N 
HETATM   28  C   UNL     1      42.719  -7.011  13.501  1.00  0.00     0.096 A 
HETATM   29  C   UNL     1      42.613  -7.063  14.874  1.00  0.00     0.019 A 
HETATM   30  C   UNL     1      41.824  -8.186  15.189  1.00  0.00     0.019 A 
HETATM   31  C   UNL     1      41.480  -8.786  13.998  1.00  0.00     0.096 A 
ENDBRANCH  23  27
ENDBRANCH  17  20
ENDBRANCH   1  16
BRANCH   6  32
HETATM   32  O   UNL     1      39.705 -15.333   1.091  1.00  0.00    -0.346 OA
HETATM   33  H   UNL     1      38.965 -15.888   1.391  1.00  0.00     0.219 HD
ENDBRANCH   6  32
TORSDOF 4
ENDMDL
MODEL 5
REMARK VINA RESULT:      -8.4      3.219     11.105
REMARK  4 active torsions:
REMARK  status: ('A' for Active; 'I' for Inactive)
REMARK    1  A    between atoms: C_3  and  N_4 
REMARK    2  A    between atoms: C_11  and  C_12 
REMARK       I    between atoms: C_12  and  N_13 
REMARK    3  A    between atoms: N_13  and  C_14 
REMARK    4  A    between atoms: C_19  and  O_20 
ROOT
HETATM    1  C   UNL     1      42.645 -11.444   5.587  1.00  0.00     0.036 A 
HETATM    2  C   UNL     1      42.443 -10.204   6.192  1.00  0.00     0.049 A 
HETATM    3  C   UNL     1      43.024  -9.907   7.442  1.00  0.00     0.063 A 
HETATM    4  C   UNL     1      43.814 -10.863   8.110  1.00  0.00     0.075 A 
HETATM    5  N   UNL     1      44.441 -10.720   9.367  1.00  0.00    -0.226 NA
HETATM    6  C   UNL     1      43.814 -10.139  10.335  1.00  0.00     0.161 C 
HETATM    7  C   UNL     1      42.436  -9.512  10.275  1.00  0.00     0.164 C 
HETATM    8  N   UNL     1      42.574  -8.411   9.333  1.00  0.00    -0.336 N 
HETATM    9  C   UNL     1      42.775  -8.544   7.979  1.00  0.00     0.257 C 
HETATM   10  O   UNL     1      42.748  -7.586   7.212  1.00  0.00    -0.267 OA
HETATM   11  C   UNL     1      41.933  -8.847  11.555  1.00  0.00     0.035 C 
HETATM   12  C   UNL     1      42.462  -7.418  11.453  1.00  0.00     0.022 C 
HETATM   13  C   UNL     1      42.364  -7.123   9.963  1.00  0.00     0.127 C 
HETATM   14  C   UNL     1      44.044 -12.083   7.464  1.00  0.00     0.035 A 
HETATM   15  C   UNL     1      43.476 -12.371   6.221  1.00  0.00     0.032 A 
ENDROOT
BRANCH   1  16
HETATM   16  N   UNL     1      42.050 -11.846   4.374  1.00  0.00    -0.323 N 
HETATM   17  C   UNL     1      42.636 -11.872   3.119  1.00  0.00     0.256 C 
HETATM   18  O   UNL     1      43.810 -11.629   2.866  1.00  0.00    -0.267 OA
HETATM   19  H   UNL     1      41.079 -12.114   4.439  1.00  0.00     0.169 HD
BRANCH  17  20
HETATM   20  C   UNL     1      41.725 -12.217   1.981  1.00  0.00     0.033 A 
HETATM   21  C   UNL     1      41.335 -11.288   1.016  1.00  0.00     0.019 A 
HETATM   22  C   UNL     1      40.505 -11.679  -0.039  1.00  0.00     0.031 A 
HETATM   23  C   UNL     1      40.067 -13.011  -0.172  1.00  0.00     0.044 A 
HETATM   24  C   UNL     1      40.444 -13.960   0.803  1.00  0.00    -0.034 A 
HETATM   25  C   UNL     1      39.989 -15.394   0.834  1.00  0.00     0.050 C 
HETATM   26  C   UNL     1      41.287 -13.544   1.857  1.00  0.00     0.026 A 
BRANCH  23  27
HETATM   27  N   UNL     1      39.272 -13.330  -1.317  1.00  0.00    -0.332 N 
HETATM   28  C   UNL     1      37.968 -12.954  -1.568  1.00  0.00     0.096 A 
HETATM   29  C   UNL     1      37.558 -13.490  -2.770  1.00  0.00     0.019 A 
HETATM   30  C   UNL     1      38.634 -14.244  -3.278  1.00  0.00     0.019 A 
HETATM   31  C   UNL     1      39.661 -14.147  -2.366  1.00  0.00     0.096 A 
ENDBRANCH  23  27
ENDBRANCH  17  20
ENDBRANCH   1  16
BRANCH   6  32
HETATM   32  O   UNL     1      44.452 -10.082  11.510  1.00  0.00    -0.346 OA
HETATM   33  H   UNL     1      43.771 -10.072  12.204  1.00  0.00     0.219 HD
ENDBRANCH   6  32
TORSDOF 4
ENDMDL
MODEL 6
REMARK VINA RESULT:      -8.2      8.166     11.125
REMARK  4 active torsions:
REMARK  status: ('A' for Active; 'I' for Inactive)
REMARK    1  A    between atoms: C_3  and  N_4 
REMARK    2  A    between atoms: C_11  and  C_12 
REMARK       I    between atoms: C_12  and  N_13 
REMARK    3  A    between atoms: N_13  and  C_14 
REMARK    4  A    between atoms: C_19  and  O_20 
ROOT
HETATM    1  C   UNL     1      40.872 -12.090  -1.109  1.00  0.00     0.036 A 
HETATM    2  C   UNL     1      41.285 -10.782  -0.864  1.00  0.00     0.049 A 
HETATM    3  C   UNL     1      40.971  -9.744  -1.766  1.00  0.00     0.063 A 
HETATM    4  C   UNL     1      40.240 -10.012  -2.940  1.00  0.00     0.075 A 
HETATM    5  N   UNL     1      39.870  -9.088  -3.941  1.00  0.00    -0.226 NA
HETATM    6  C   UNL     1      40.711  -8.187  -4.325  1.00  0.00     0.161 C 
HETATM    7  C   UNL     1      42.102  -7.950  -3.773  1.00  0.00     0.164 C 
HETATM    8  N   UNL     1      41.885  -7.555  -2.389  1.00  0.00    -0.336 N 
HETATM    9  C   UNL     1      41.428  -8.381  -1.389  1.00  0.00     0.257 C 
HETATM   10  O   UNL     1      41.393  -8.034  -0.212  1.00  0.00    -0.267 OA
HETATM   11  C   UNL     1      42.886  -6.785  -4.375  1.00  0.00     0.035 C 
HETATM   12  C   UNL     1      42.469  -5.589  -3.523  1.00  0.00     0.022 C 
HETATM   13  C   UNL     1      42.315  -6.195  -2.136  1.00  0.00     0.127 C 
HETATM   14  C   UNL     1      39.794 -11.323  -3.144  1.00  0.00     0.035 A 
HETATM   15  C   UNL     1      40.098 -12.347  -2.243  1.00  0.00     0.032 A 
ENDROOT
BRANCH   1  16
HETATM   16  N   UNL     1      41.197 -13.196  -0.296  1.00  0.00    -0.323 N 
HETATM   17  C   UNL     1      41.078 -13.290   1.081  1.00  0.00     0.256 C 
HETATM   18  O   UNL     1      40.581 -12.449   1.821  1.00  0.00    -0.267 OA
HETATM   19  H   UNL     1      41.589 -13.988  -0.785  1.00  0.00     0.169 HD
BRANCH  17  20
HETATM   20  C   UNL     1      41.628 -14.539   1.698  1.00  0.00     0.033 A 
HETATM   21  C   UNL     1      42.673 -15.268   1.129  1.00  0.00     0.019 A 
HETATM   22  C   UNL     1      43.163 -16.410   1.770  1.00  0.00     0.031 A 
HETATM   23  C   UNL     1      42.641 -16.836   3.007  1.00  0.00     0.044 A 
HETATM   24  C   UNL     1      41.576 -16.116   3.590  1.00  0.00    -0.034 A 
HETATM   25  C   UNL     1      40.869 -16.498   4.862  1.00  0.00     0.050 C 
HETATM   26  C   UNL     1      41.100 -14.963   2.927  1.00  0.00     0.026 A 
BRANCH  23  27
HETATM   27  N   UNL     1      43.246 -17.980   3.616  1.00  0.00    -0.332 N 
HETATM   28  C   UNL     1      43.757 -18.083   4.894  1.00  0.00     0.096 A 
HETATM   29  C   UNL     1      44.276 -19.346   5.080  1.00  0.00     0.019 A 
HETATM   30  C   UNL     1      44.103 -20.050   3.874  1.00  0.00     0.019 A 
HETATM   31  C   UNL     1      43.490 -19.191   2.988  1.00  0.00     0.096 A 
ENDBRANCH  23  27
ENDBRANCH  17  20
ENDBRANCH   1  16
BRANCH   6  32
HETATM   32  O   UNL     1      40.307  -7.377  -5.311  1.00  0.00    -0.346 OA
HETATM   33  H   UNL     1      39.355  -7.530  -5.435  1.00  0.00     0.219 HD
ENDBRANCH   6  32
TORSDOF 4
ENDMDL
MODEL 7
REMARK VINA RESULT:      -8.0      3.464     10.962
REMARK  4 active torsions:
REMARK  status: ('A' for Active; 'I' for Inactive)
REMARK    1  A    between atoms: C_3  and  N_4 
REMARK    2  A    between atoms: C_11  and  C_12 
REMARK       I    between atoms: C_12  and  N_13 
REMARK    3  A    between atoms: N_13  and  C_14 
REMARK    4  A    between atoms: C_19  and  O_20 
ROOT
HETATM    1  C   UNL     1      40.051  -9.372   8.785  1.00  0.00     0.036 A 
HETATM    2  C   UNL     1      40.319  -9.638  10.127  1.00  0.00     0.049 A 
HETATM    3  C   UNL     1      39.984  -8.704  11.129  1.00  0.00     0.063 A 
HETATM    4  C   UNL     1      39.379  -7.477  10.793  1.00  0.00     0.075 A 
HETATM    5  N   UNL     1      39.007  -6.442  11.677  1.00  0.00    -0.226 NA
HETATM    6  C   UNL     1      39.789  -6.118  12.652  1.00  0.00     0.161 C 
HETATM    7  C   UNL     1      41.102  -6.779  13.019  1.00  0.00     0.164 C 
HETATM    8  N   UNL     1      40.738  -8.137  13.394  1.00  0.00    -0.336 N 
HETATM    9  C   UNL     1      40.280  -9.105  12.530  1.00  0.00     0.257 C 
HETATM   10  O   UNL     1      40.118 -10.272  12.874  1.00  0.00    -0.267 OA
HETATM   11  C   UNL     1      41.820  -6.231  14.251  1.00  0.00     0.035 C 
HETATM   12  C   UNL     1      41.226  -7.037  15.404  1.00  0.00     0.022 C 
HETATM   13  C   UNL     1      41.017  -8.412  14.789  1.00  0.00     0.127 C 
HETATM   14  C   UNL     1      39.075  -7.250   9.445  1.00  0.00     0.035 A 
HETATM   15  C   UNL     1      39.399  -8.182   8.456  1.00  0.00     0.032 A 
ENDROOT
BRANCH   1  16
HETATM   16  N   UNL     1      40.411 -10.218   7.716  1.00  0.00    -0.323 N 
HETATM   17  C   UNL     1      39.576 -11.038   6.976  1.00  0.00     0.256 C 
HETATM   18  O   UNL     1      38.355 -11.099   7.072  1.00  0.00    -0.267 OA
HETATM   19  H   UNL     1      41.397 -10.240   7.498  1.00  0.00     0.169 HD
BRANCH  17  20
HETATM   20  C   UNL     1      40.253 -11.934   5.985  1.00  0.00     0.033 A 
HETATM   21  C   UNL     1      41.519 -12.478   6.199  1.00  0.00     0.019 A 
HETATM   22  C   UNL     1      42.086 -13.332   5.247  1.00  0.00     0.031 A 
HETATM   23  C   UNL     1      41.392 -13.685   4.073  1.00  0.00     0.044 A 
HETATM   24  C   UNL     1      40.114 -13.133   3.838  1.00  0.00    -0.034 A 
HETATM   25  C   UNL     1      39.293 -13.356   2.597  1.00  0.00     0.050 C 
HETATM   26  C   UNL     1      39.559 -12.277   4.814  1.00  0.00     0.026 A 
BRANCH  23  27
HETATM   27  N   UNL     1      42.026 -14.612   3.189  1.00  0.00    -0.332 N 
HETATM   28  C   UNL     1      41.856 -15.981   3.139  1.00  0.00     0.096 A 
HETATM   29  C   UNL     1      42.673 -16.509   2.162  1.00  0.00     0.019 A 
HETATM   30  C   UNL     1      43.392 -15.439   1.596  1.00  0.00     0.019 A 
HETATM   31  C   UNL     1      42.995 -14.294   2.251  1.00  0.00     0.096 A 
ENDBRANCH  23  27
ENDBRANCH  17  20
ENDBRANCH   1  16
BRANCH   6  32
HETATM   32  O   UNL     1      39.393  -5.096  13.420  1.00  0.00    -0.346 OA
HETATM   33  H   UNL     1      40.105  -4.927  14.060  1.00  0.00     0.219 HD
ENDBRANCH   6  32
TORSDOF 4
ENDMDL
MODEL 8
REMARK VINA RESULT:      -8.0      6.722     10.955
REMARK  4 active torsions:
REMARK  status: ('A' for Active; 'I' for Inactive)
REMARK    1  A    between atoms: C_3  and  N_4 
REMARK    2  A    between atoms: C_11  and  C_12 
REMARK       I    between atoms: C_12  and  N_13 
REMARK    3  A    between atoms: N_13  and  C_14 
REMARK    4  A    between atoms: C_19  and  O_20 
ROOT
HETATM    1  C   UNL     1      41.030 -12.553   1.975  1.00  0.00     0.036 A 
HETATM    2  C   UNL     1      41.723 -13.762   2.016  1.00  0.00     0.049 A 
HETATM    3  C   UNL     1      41.656 -14.595   3.151  1.00  0.00     0.063 A 
HETATM    4  C   UNL     1      40.893 -14.218   4.273  1.00  0.00     0.075 A 
HETATM    5  N   UNL     1      40.746 -14.932   5.481  1.00  0.00    -0.226 NA
HETATM    6  C   UNL     1      41.770 -15.513   6.012  1.00  0.00     0.161 C 
HETATM    7  C   UNL     1      43.175 -15.570   5.447  1.00  0.00     0.164 C 
HETATM    8  N   UNL     1      43.041 -16.322   4.208  1.00  0.00    -0.336 N 
HETATM    9  C   UNL     1      42.403 -15.878   3.073  1.00  0.00     0.257 C 
HETATM   10  O   UNL     1      42.438 -16.496   2.013  1.00  0.00    -0.267 OA
HETATM   11  C   UNL     1      44.204 -16.359   6.254  1.00  0.00     0.035 C 
HETATM   12  C   UNL     1      44.058 -17.786   5.729  1.00  0.00     0.022 C 
HETATM   13  C   UNL     1      43.762 -17.578   4.251  1.00  0.00     0.127 C 
HETATM   14  C   UNL     1      40.166 -13.024   4.194  1.00  0.00     0.035 A 
HETATM   15  C   UNL     1      40.227 -12.205   3.064  1.00  0.00     0.032 A 
ENDROOT
BRANCH   1  16
HETATM   16  N   UNL     1      41.093 -11.631   0.910  1.00  0.00    -0.323 N 
HETATM   17  C   UNL     1      40.712 -11.839  -0.405  1.00  0.00     0.256 C 
HETATM   18  O   UNL     1      40.168 -12.844  -0.848  1.00  0.00    -0.267 OA
HETATM   19  H   UNL     1      41.492 -10.733   1.142  1.00  0.00     0.169 HD
BRANCH  17  20
HETATM   20  C   UNL     1      41.019 -10.724  -1.357  1.00  0.00     0.033 A 
HETATM   21  C   UNL     1      40.526 -10.686  -2.662  1.00  0.00     0.019 A 
HETATM   22  C   UNL     1      40.824  -9.602  -3.493  1.00  0.00     0.031 A 
HETATM   23  C   UNL     1      41.598  -8.518  -3.035  1.00  0.00     0.044 A 
HETATM   24  C   UNL     1      42.114  -8.549  -1.721  1.00  0.00    -0.034 A 
HETATM   25  C   UNL     1      43.019  -7.504  -1.124  1.00  0.00     0.050 C 
HETATM   26  C   UNL     1      41.797  -9.651  -0.897  1.00  0.00     0.026 A 
BRANCH  23  27
HETATM   27  N   UNL     1      41.800  -7.427  -3.937  1.00  0.00    -0.332 N 
HETATM   28  C   UNL     1      42.942  -7.124  -4.650  1.00  0.00     0.096 A 
HETATM   29  C   UNL     1      42.733  -5.976  -5.383  1.00  0.00     0.019 A 
HETATM   30  C   UNL     1      41.426  -5.534  -5.104  1.00  0.00     0.019 A 
HETATM   31  C   UNL     1      40.882  -6.425  -4.205  1.00  0.00     0.096 A 
ENDBRANCH  23  27
ENDBRANCH  17  20
ENDBRANCH   1  16
BRANCH   6  32
HETATM   32  O   UNL     1      41.566 -16.130   7.182  1.00  0.00    -0.346 OA
HETATM   33  H   UNL     1      41.670 -15.461   7.880  1.00  0.00     0.219 HD
ENDBRANCH   6  32
TORSDOF 4
ENDMDL
MODEL 9
REMARK VINA RESULT:      -7.8      6.328     12.251
REMARK  4 active torsions:
REMARK  status: ('A' for Active; 'I' for Inactive)
REMARK    1  A    between atoms: C_3  and  N_4 
REMARK    2  A    between atoms: C_11  and  C_12 
REMARK       I    between atoms: C_12  and  N_13 
REMARK    3  A    between atoms: N_13  and  C_14 
REMARK    4  A    between atoms: C_19  and  O_20 
ROOT
HETATM    1  C   UNL     1      40.144 -13.898   0.742  1.00  0.00     0.036 A 
HETATM    2  C   UNL     1      40.951 -13.055   1.504  1.00  0.00     0.049 A 
HETATM    3  C   UNL     1      41.875 -13.581   2.430  1.00  0.00     0.063 A 
HETATM    4  C   UNL     1      41.995 -14.973   2.611  1.00  0.00     0.075 A 
HETATM    5  N   UNL     1      42.855 -15.643   3.507  1.00  0.00    -0.226 NA
HETATM    6  C   UNL     1      43.021 -15.183   4.702  1.00  0.00     0.161 C 
HETATM    7  C   UNL     1      42.418 -13.918   5.280  1.00  0.00     0.164 C 
HETATM    8  N   UNL     1      42.993 -12.843   4.485  1.00  0.00    -0.336 N 
HETATM    9  C   UNL     1      42.712 -12.594   3.162  1.00  0.00     0.257 C 
HETATM   10  O   UNL     1      43.118 -11.593   2.578  1.00  0.00    -0.267 OA
HETATM   11  C   UNL     1      42.807 -13.571   6.715  1.00  0.00     0.035 C 
HETATM   12  C   UNL     1      44.085 -12.751   6.556  1.00  0.00     0.022 C 
HETATM   13  C   UNL     1      43.831 -11.966   5.278  1.00  0.00     0.127 C 
HETATM   14  C   UNL     1      41.210 -15.804   1.803  1.00  0.00     0.035 A 
HETATM   15  C   UNL     1      40.302 -15.279   0.879  1.00  0.00     0.032 A 
ENDROOT
BRANCH   1  16
HETATM   16  N   UNL     1      39.150 -13.457  -0.155  1.00  0.00    -0.323 N 
HETATM   17  C   UNL     1      39.340 -12.885  -1.403  1.00  0.00     0.256 C 
HETATM   18  O   UNL     1      40.413 -12.747  -1.977  1.00  0.00    -0.267 OA
HETATM   19  H   UNL     1      38.201 -13.546   0.176  1.00  0.00     0.169 HD
BRANCH  17  20
HETATM   20  C   UNL     1      38.104 -12.384  -2.084  1.00  0.00     0.033 A 
HETATM   21  C   UNL     1      37.193 -13.230  -2.719  1.00  0.00     0.019 A 
HETATM   22  C   UNL     1      36.042 -12.704  -3.312  1.00  0.00     0.031 A 
HETATM   23  C   UNL     1      35.757 -11.325  -3.264  1.00  0.00     0.044 A 
HETATM   24  C   UNL     1      36.675 -10.455  -2.636  1.00  0.00    -0.034 A 
HETATM   25  C   UNL     1      36.543  -8.957  -2.577  1.00  0.00     0.050 C 
HETATM   26  C   UNL     1      37.829 -11.009  -2.039  1.00  0.00     0.026 A 
BRANCH  23  27
HETATM   27  N   UNL     1      34.527 -10.888  -3.845  1.00  0.00    -0.332 N 
HETATM   28  C   UNL     1      34.308 -10.476  -5.144  1.00  0.00     0.096 A 
HETATM   29  C   UNL     1      32.987 -10.110  -5.293  1.00  0.00     0.019 A 
HETATM   30  C   UNL     1      32.364 -10.278  -4.042  1.00  0.00     0.019 A 
HETATM   31  C   UNL     1      33.326 -10.736  -3.170  1.00  0.00     0.096 A 
ENDBRANCH  23  27
ENDBRANCH  17  20
ENDBRANCH   1  16
BRANCH   6  32
HETATM   32  O   UNL     1      43.812 -15.898   5.512  1.00  0.00    -0.346 OA
HETATM   33  H   UNL     1      43.947 -15.370   6.318  1.00  0.00     0.219 HD
ENDBRANCH   6  32
TORSDOF 4
ENDMDL
MODEL 10
REMARK VINA RESULT:      -7.7     19.575     22.274
REMARK  4 active torsions:
REMARK  status: ('A' for Active; 'I' for Inactive)
REMARK    1  A    between atoms: C_3  and  N_4 
REMARK    2  A    between atoms: C_11  and  C_12 
REMARK       I    between atoms: C_12  and  N_13 
REMARK    3  A    between atoms: N_13  and  C_14 
REMARK    4  A    between atoms: C_19  and  O_20 
ROOT
HETATM    1  C   UNL     1      42.004 -31.728   5.946  1.00  0.00     0.036 A 
HETATM    2  C   UNL     1      42.965 -32.092   6.888  1.00  0.00     0.049 A 
HETATM    3  C   UNL     1      42.588 -32.503   8.183  1.00  0.00     0.063 A 
HETATM    4  C   UNL     1      41.231 -32.544   8.556  1.00  0.00     0.075 A 
HETATM    5  N   UNL     1      40.704 -32.912   9.813  1.00  0.00    -0.226 NA
HETATM    6  C   UNL     1      41.287 -32.514  10.894  1.00  0.00     0.161 C 
HETATM    7  C   UNL     1      42.561 -31.700  10.991  1.00  0.00     0.164 C 
HETATM    8  N   UNL     1      43.589 -32.559  10.422  1.00  0.00    -0.336 N 
HETATM    9  C   UNL     1      43.692 -32.905   9.095  1.00  0.00     0.257 C 
HETATM   10  O   UNL     1      44.655 -33.520   8.647  1.00  0.00    -0.267 OA
HETATM   11  C   UNL     1      43.069 -31.392  12.399  1.00  0.00     0.035 C 
HETATM   12  C   UNL     1      43.947 -32.594  12.738  1.00  0.00     0.022 C 
HETATM   13  C   UNL     1      44.588 -32.937  11.401  1.00  0.00     0.127 C 
HETATM   14  C   UNL     1      40.279 -32.220   7.582  1.00  0.00     0.035 A 
HETATM   15  C   UNL     1      40.655 -31.823   6.296  1.00  0.00     0.032 A 
ENDROOT
BRANCH   1  16
HETATM   16  N   UNL     1      42.294 -31.243   4.655  1.00  0.00    -0.323 N 
HETATM   17  C   UNL     1      42.026 -31.863   3.445  1.00  0.00     0.256 C 
HETATM   18  O   UNL     1      41.405 -32.909   3.293  1.00  0.00    -0.267 OA
HETATM   19  H   UNL     1      42.780 -30.359   4.627  1.00  0.00     0.169 HD
BRANCH  17  20
HETATM   20  C   UNL     1      42.570 -31.180   2.228  1.00  0.00     0.033 A 
HETATM   21  C   UNL     1      42.274 -29.854   1.909  1.00  0.00     0.019 A 
HETATM   22  C   UNL     1      42.836 -29.264   0.773  1.00  0.00     0.031 A 
HETATM   23  C   UNL     1      43.728 -29.972  -0.056  1.00  0.00     0.044 A 
HETATM   24  C   UNL     1      44.028 -31.317   0.248  1.00  0.00    -0.034 A 
HETATM   25  C   UNL     1      44.897 -32.218  -0.587  1.00  0.00     0.050 C 
HETATM   26  C   UNL     1      43.452 -31.893   1.403  1.00  0.00     0.026 A 
BRANCH  23  27
HETATM   27  N   UNL     1      44.300 -29.266  -1.160  1.00  0.00    -0.332 N 
HETATM   28  C   UNL     1      45.210 -28.230  -1.117  1.00  0.00     0.096 A 
HETATM   29  C   UNL     1      45.487 -27.809  -2.400  1.00  0.00     0.019 A 
HETATM   30  C   UNL     1      44.709 -28.593  -3.273  1.00  0.00     0.019 A 
HETATM   31  C   UNL     1      43.979 -29.462  -2.493  1.00  0.00     0.096 A 
ENDBRANCH  23  27
ENDBRANCH  17  20
ENDBRANCH   1  16
BRANCH   6  32
HETATM   32  O   UNL     1      40.704 -32.861  12.048  1.00  0.00    -0.346 OA
HETATM   33  H   UNL     1      41.210 -33.608  12.410  1.00  0.00     0.219 HD
ENDBRANCH   6  32
TORSDOF 4
ENDMDL
