MODEL 1
REMARK VINA RESULT:      -8.6      0.000      0.000
REMARK  7 active torsions:
REMARK  status: ('A' for Active; 'I' for Inactive)
REMARK    1  A    between atoms: C_8  and  N_9 
REMARK       I    between atoms: N_9  and  C_10 
REMARK    2  A    between atoms: C_10  and  C_11 
REMARK    3  A    between atoms: C_11  and  N_12 
REMARK    4  A    between atoms: N_12  and  C_14 
REMARK    5  A    between atoms: C_14  and  C_15 
REMARK       I    between atoms: C_15  and  N_16 
REMARK    6  A    between atoms: N_16  and  C_17 
REMARK    7  A    between atoms: C_19  and  C_20 
ROOT
HETATM    1  N   UNL     1      42.119 -12.424   6.425  1.00  0.00    -0.058 N 
HETATM    2  H   UNL     1      41.397 -12.663   7.126  1.00  0.00     0.280 HD
HETATM    3  C   UNL     1      42.632 -11.051   6.757  1.00  0.00     0.270 C 
ENDROOT
BRANCH   1   4
HETATM    4  C   UNL     1      41.401 -12.458   5.066  1.00  0.00     0.337 C 
BRANCH   4   5
HETATM    5  C   UNL     1      39.918 -12.779   5.240  1.00  0.00     0.248 C 
HETATM    6  N   UNL     1      39.076 -12.953   4.193  1.00  0.00    -0.322 N 
HETATM    7  H   UNL     1      38.097 -12.859   4.454  1.00  0.00     0.169 HD
HETATM    8  O   UNL     1      39.467 -12.809   6.393  1.00  0.00    -0.271 OA
BRANCH   6   9
HETATM    9  C   UNL     1      39.300 -13.189   2.849  1.00  0.00     0.085 C 
HETATM   10  C   UNL     1      38.933 -12.257   1.895  1.00  0.00     0.052 C 
HETATM   11  C   UNL     1      38.298 -10.919   1.989  1.00  0.00     0.072 C 
HETATM   12  N   UNL     1      39.301 -12.782   0.689  1.00  0.00    -0.280 N 
HETATM   13  H   UNL     1      39.204 -12.371  -0.237  1.00  0.00     0.189 HD
HETATM   14  N   UNL     1      39.830 -14.005   0.785  1.00  0.00    -0.177 NA
HETATM   15  C   UNL     1      39.763 -14.301   2.088  1.00  0.00     0.079 C 
HETATM   16  C   UNL     1      40.048 -15.710   2.460  1.00  0.00     0.075 C 
ENDBRANCH   6   9
ENDBRANCH   4   5
ENDBRANCH   1   4
BRANCH   1  17
HETATM   17  C   UNL     1      43.183 -13.526   6.543  1.00  0.00     0.337 C 
BRANCH  17  18
HETATM   18  C   UNL     1      42.761 -14.894   5.986  1.00  0.00     0.248 C 
HETATM   19  N   UNL     1      43.534 -15.322   4.919  1.00  0.00    -0.326 N 
HETATM   20  H   UNL     1      44.129 -14.648   4.450  1.00  0.00     0.169 HD
HETATM   21  O   UNL     1      41.826 -15.508   6.492  1.00  0.00    -0.271 OA
BRANCH  19  22
HETATM   22  C   UNL     1      43.536 -16.610   4.337  1.00  0.00     0.035 A 
HETATM   23  C   UNL     1      43.727 -17.793   5.056  1.00  0.00     0.047 A 
HETATM   24  C   UNL     1      43.779 -19.048   4.407  1.00  0.00     0.071 A 
HETATM   25  C   UNL     1      43.624 -19.095   3.019  1.00  0.00     0.049 A 
HETATM   26 CL   UNL     1      43.682 -20.574   2.135  1.00  0.00    -0.083 Cl
HETATM   27  C   UNL     1      43.425 -17.918   2.295  1.00  0.00     0.027 A 
HETATM   28  C   UNL     1      43.388 -16.684   2.948  1.00  0.00     0.031 A 
BRANCH  24  29
HETATM   29  C   UNL     1      44.022 -20.299   5.213  1.00  0.00     0.419 C 
HETATM   30  F   UNL     1      43.776 -20.128   6.544  1.00  0.00    -0.166 F 
HETATM   31  F   UNL     1      43.237 -21.342   4.832  1.00  0.00    -0.166 F 
HETATM   32  F   UNL     1      45.310 -20.729   5.140  1.00  0.00    -0.166 F 
ENDBRANCH  24  29
ENDBRANCH  19  22
ENDBRANCH  17  18
ENDBRANCH   1  17
TORSDOF 7
ENDMDL
MODEL 2
REMARK VINA RESULT:      -8.4      3.154      4.199
REMARK  7 active torsions:
REMARK  status: ('A' for Active; 'I' for Inactive)
REMARK    1  A    between atoms: C_8  and  N_9 
REMARK       I    between atoms: N_9  and  C_10 
REMARK    2  A    between atoms: C_10  and  C_11 
REMARK    3  A    between atoms: C_11  and  N_12 
REMARK    4  A    between atoms: N_12  and  C_14 
REMARK    5  A    between atoms: C_14  and  C_15 
REMARK       I    between atoms: C_15  and  N_16 
REMARK    6  A    between atoms: N_16  and  C_17 
REMARK    7  A    between atoms: C_19  and  C_20 
ROOT
HETATM    1  N   UNL     1      39.977 -12.889   1.730  1.00  0.00    -0.058 N 
HETATM    2  H   UNL     1      39.219 -13.512   1.402  1.00  0.00     0.280 HD
HETATM    3  C   UNL     1      39.850 -12.774   3.222  1.00  0.00     0.270 C 
ENDROOT
BRANCH   1   4
HETATM    4  C   UNL     1      39.736 -11.543   1.025  1.00  0.00     0.337 C 
BRANCH   4   5
HETATM    5  C   UNL     1      38.497 -11.606   0.134  1.00  0.00     0.248 C 
HETATM    6  N   UNL     1      38.556 -11.901  -1.186  1.00  0.00    -0.322 N 
HETATM    7  H   UNL     1      37.721 -11.614  -1.693  1.00  0.00     0.169 HD
HETATM    8  O   UNL     1      37.408 -11.303   0.641  1.00  0.00    -0.271 OA
BRANCH   6   9
HETATM    9  C   UNL     1      39.543 -12.473  -1.968  1.00  0.00     0.085 C 
HETATM   10  C   UNL     1      40.589 -11.711  -2.458  1.00  0.00     0.052 C 
HETATM   11  C   UNL     1      40.941 -10.276  -2.315  1.00  0.00     0.072 C 
HETATM   12  N   UNL     1      41.384 -12.567  -3.167  1.00  0.00    -0.280 N 
HETATM   13  H   UNL     1      42.253 -12.366  -3.656  1.00  0.00     0.189 HD
HETATM   14  N   UNL     1      40.903 -13.813  -3.218  1.00  0.00    -0.177 NA
HETATM   15  C   UNL     1      39.740 -13.754  -2.559  1.00  0.00     0.079 C 
HETATM   16  C   UNL     1      38.857 -14.942  -2.675  1.00  0.00     0.075 C 
ENDBRANCH   6   9
ENDBRANCH   4   5
ENDBRANCH   1   4
BRANCH   1  17
HETATM   17  C   UNL     1      41.282 -13.555   1.270  1.00  0.00     0.337 C 
BRANCH  17  18
HETATM   18  C   UNL     1      41.455 -15.015   1.717  1.00  0.00     0.248 C 
HETATM   19  N   UNL     1      42.731 -15.310   2.168  1.00  0.00    -0.326 N 
HETATM   20  H   UNL     1      43.481 -14.658   1.963  1.00  0.00     0.169 HD
HETATM   21  O   UNL     1      40.509 -15.795   1.667  1.00  0.00    -0.271 OA
BRANCH  19  22
HETATM   22  C   UNL     1      43.143 -16.485   2.837  1.00  0.00     0.035 A 
HETATM   23  C   UNL     1      43.141 -17.756   2.258  1.00  0.00     0.047 A 
HETATM   24  C   UNL     1      43.506 -18.904   2.998  1.00  0.00     0.071 A 
HETATM   25  C   UNL     1      43.886 -18.749   4.334  1.00  0.00     0.049 A 
HETATM   26 CL   UNL     1      44.338 -20.086   5.324  1.00  0.00    -0.083 Cl
HETATM   27  C   UNL     1      43.898 -17.481   4.918  1.00  0.00     0.027 A 
HETATM   28  C   UNL     1      43.523 -16.358   4.177  1.00  0.00     0.031 A 
BRANCH  24  29
HETATM   29  C   UNL     1      43.457 -20.263   2.349  1.00  0.00     0.419 C 
HETATM   30  F   UNL     1      43.634 -21.282   3.239  1.00  0.00    -0.166 F 
HETATM   31  F   UNL     1      42.270 -20.522   1.738  1.00  0.00    -0.166 F 
HETATM   32  F   UNL     1      44.427 -20.434   1.411  1.00  0.00    -0.166 F 
ENDBRANCH  24  29
ENDBRANCH  19  22
ENDBRANCH  17  18
ENDBRANCH   1  17
TORSDOF 7
ENDMDL
MODEL 3
REMARK VINA RESULT:      -8.3      3.236      4.433
REMARK  7 active torsions:
REMARK  status: ('A' for Active; 'I' for Inactive)
REMARK    1  A    between atoms: C_8  and  N_9 
REMARK       I    between atoms: N_9  and  C_10 
REMARK    2  A    between atoms: C_10  and  C_11 
REMARK    3  A    between atoms: C_11  and  N_12 
REMARK    4  A    between atoms: N_12  and  C_14 
REMARK    5  A    between atoms: C_14  and  C_15 
REMARK       I    between atoms: C_15  and  N_16 
REMARK    6  A    between atoms: N_16  and  C_17 
REMARK    7  A    between atoms: C_19  and  C_20 
ROOT
HETATM    1  N   UNL     1      39.446 -13.131   1.453  1.00  0.00    -0.058 N 
HETATM    2  H   UNL     1      38.653 -13.651   1.041  1.00  0.00     0.280 HD
HETATM    3  C   UNL     1      39.296 -13.193   2.947  1.00  0.00     0.270 C 
ENDROOT
BRANCH   1   4
HETATM    4  C   UNL     1      39.319 -11.695   0.919  1.00  0.00     0.337 C 
BRANCH   4   5
HETATM    5  C   UNL     1      38.211 -11.597  -0.127  1.00  0.00     0.248 C 
HETATM    6  N   UNL     1      38.425 -11.810  -1.447  1.00  0.00    -0.322 N 
HETATM    7  H   UNL     1      37.690 -11.422  -2.034  1.00  0.00     0.169 HD
HETATM    8  O   UNL     1      37.089 -11.237   0.256  1.00  0.00    -0.271 OA
BRANCH   6   9
HETATM    9  C   UNL     1      39.464 -12.411  -2.135  1.00  0.00     0.085 C 
HETATM   10  C   UNL     1      40.549 -11.671  -2.568  1.00  0.00     0.052 C 
HETATM   11  C   UNL     1      40.900 -10.234  -2.443  1.00  0.00     0.072 C 
HETATM   12  N   UNL     1      41.388 -12.553  -3.189  1.00  0.00    -0.280 N 
HETATM   13  H   UNL     1      42.293 -12.372  -3.617  1.00  0.00     0.189 HD
HETATM   14  N   UNL     1      40.903 -13.797  -3.237  1.00  0.00    -0.177 NA
HETATM   15  C   UNL     1      39.695 -13.712  -2.670  1.00  0.00     0.079 C 
HETATM   16  C   UNL     1      38.813 -14.898  -2.815  1.00  0.00     0.075 C 
ENDBRANCH   6   9
ENDBRANCH   4   5
ENDBRANCH   1   4
BRANCH   1  17
HETATM   17  C   UNL     1      40.710 -13.831   0.930  1.00  0.00     0.337 C 
BRANCH  17  18
HETATM   18  C   UNL     1      40.968 -15.226   1.520  1.00  0.00     0.248 C 
HETATM   19  N   UNL     1      42.247 -15.386   2.028  1.00  0.00    -0.326 N 
HETATM   20  H   UNL     1      42.957 -14.706   1.778  1.00  0.00     0.169 HD
HETATM   21  O   UNL     1      40.079 -16.072   1.523  1.00  0.00    -0.271 OA
BRANCH  19  22
HETATM   22  C   UNL     1      42.717 -16.461   2.817  1.00  0.00     0.035 A 
HETATM   23  C   UNL     1      42.750 -16.450   4.213  1.00  0.00     0.047 A 
HETATM   24  C   UNL     1      43.289 -17.533   4.945  1.00  0.00     0.071 A 
HETATM   25  C   UNL     1      43.785 -18.637   4.246  1.00  0.00     0.049 A 
HETATM   26 CL   UNL     1      44.471 -20.002   5.046  1.00  0.00    -0.083 Cl
HETATM   27  C   UNL     1      43.748 -18.659   2.851  1.00  0.00     0.027 A 
HETATM   28  C   UNL     1      43.224 -17.576   2.140  1.00  0.00     0.031 A 
BRANCH  24  29
HETATM   29  C   UNL     1      43.340 -17.470   6.450  1.00  0.00     0.419 C 
HETATM   30  F   UNL     1      43.197 -18.694   7.037  1.00  0.00    -0.166 F 
HETATM   31  F   UNL     1      44.516 -16.978   6.925  1.00  0.00    -0.166 F 
HETATM   32  F   UNL     1      42.351 -16.701   6.979  1.00  0.00    -0.166 F 
ENDBRANCH  24  29
ENDBRANCH  19  22
ENDBRANCH  17  18
ENDBRANCH   1  17
TORSDOF 7
ENDMDL
MODEL 4
REMARK VINA RESULT:      -8.2      4.967      7.911
REMARK  7 active torsions:
REMARK  status: ('A' for Active; 'I' for Inactive)
REMARK    1  A    between atoms: C_8  and  N_9 
REMARK       I    between atoms: N_9  and  C_10 
REMARK    2  A    between atoms: C_10  and  C_11 
REMARK    3  A    between atoms: C_11  and  N_12 
REMARK    4  A    between atoms: N_12  and  C_14 
REMARK    5  A    between atoms: C_14  and  C_15 
REMARK       I    between atoms: C_15  and  N_16 
REMARK    6  A    between atoms: N_16  and  C_17 
REMARK    7  A    between atoms: C_19  and  C_20 
ROOT
HETATM    1  N   UNL     1      41.782 -16.029   4.429  1.00  0.00    -0.058 N 
HETATM    2  H   UNL     1      42.651 -16.387   4.860  1.00  0.00     0.280 HD
HETATM    3  C   UNL     1      40.648 -16.367   5.355  1.00  0.00     0.270 C 
ENDROOT
BRANCH   1   4
HETATM    4  C   UNL     1      41.662 -16.758   3.080  1.00  0.00     0.337 C 
BRANCH   4   5
HETATM    5  C   UNL     1      43.021 -16.855   2.389  1.00  0.00     0.248 C 
HETATM    6  N   UNL     1      43.988 -17.714   2.788  1.00  0.00    -0.322 N 
HETATM    7  H   UNL     1      44.911 -17.459   2.442  1.00  0.00     0.169 HD
HETATM    8  O   UNL     1      43.257 -16.059   1.470  1.00  0.00    -0.271 OA
BRANCH   6   9
HETATM    9  C   UNL     1      43.961 -18.832   3.602  1.00  0.00     0.085 C 
HETATM   10  C   UNL     1      43.797 -20.096   3.065  1.00  0.00     0.052 C 
HETATM   11  C   UNL     1      43.638 -20.584   1.672  1.00  0.00     0.072 C 
HETATM   12  N   UNL     1      43.829 -20.965   4.119  1.00  0.00    -0.280 N 
HETATM   13  H   UNL     1      43.756 -21.980   4.106  1.00  0.00     0.189 HD
HETATM   14  N   UNL     1      43.947 -20.355   5.302  1.00  0.00    -0.177 NA
HETATM   15  C   UNL     1      43.948 -19.049   5.011  1.00  0.00     0.079 C 
HETATM   16  C   UNL     1      43.811 -18.118   6.158  1.00  0.00     0.075 C 
ENDBRANCH   6   9
ENDBRANCH   4   5
ENDBRANCH   1   4
BRANCH   1  17
HETATM   17  C   UNL     1      42.006 -14.520   4.251  1.00  0.00     0.337 C 
BRANCH  17  18
HETATM   18  C   UNL     1      41.061 -13.839   3.248  1.00  0.00     0.248 C 
HETATM   19  N   UNL     1      41.664 -13.532   2.039  1.00  0.00    -0.326 N 
HETATM   20  H   UNL     1      42.676 -13.552   1.983  1.00  0.00     0.169 HD
HETATM   21  O   UNL     1      39.890 -13.626   3.546  1.00  0.00    -0.271 OA
BRANCH  19  22
HETATM   22  C   UNL     1      41.018 -13.106   0.856  1.00  0.00     0.035 A 
HETATM   23  C   UNL     1      40.286 -13.950   0.017  1.00  0.00     0.047 A 
HETATM   24  C   UNL     1      39.715 -13.476  -1.186  1.00  0.00     0.071 A 
HETATM   25  C   UNL     1      39.883 -12.131  -1.527  1.00  0.00     0.049 A 
HETATM   26 CL   UNL     1      39.233 -11.460  -2.976  1.00  0.00    -0.083 Cl
HETATM   27  C   UNL     1      40.606 -11.280  -0.690  1.00  0.00     0.027 A 
HETATM   28  C   UNL     1      41.175 -11.765   0.490  1.00  0.00     0.031 A 
BRANCH  24  29
HETATM   29  C   UNL     1      38.962 -14.425  -2.084  1.00  0.00     0.419 C 
HETATM   30  F   UNL     1      37.673 -14.034  -2.306  1.00  0.00    -0.166 F 
HETATM   31  F   UNL     1      39.519 -14.548  -3.318  1.00  0.00    -0.166 F 
HETATM   32  F   UNL     1      38.871 -15.679  -1.566  1.00  0.00    -0.166 F 
ENDBRANCH  24  29
ENDBRANCH  19  22
ENDBRANCH  17  18
ENDBRANCH   1  17
TORSDOF 7
ENDMDL
MODEL 5
REMARK VINA RESULT:      -8.2      2.313      3.238
REMARK  7 active torsions:
REMARK  status: ('A' for Active; 'I' for Inactive)
REMARK    1  A    between atoms: C_8  and  N_9 
REMARK       I    between atoms: N_9  and  C_10 
REMARK    2  A    between atoms: C_10  and  C_11 
REMARK    3  A    between atoms: C_11  and  N_12 
REMARK    4  A    between atoms: N_12  and  C_14 
REMARK    5  A    between atoms: C_14  and  C_15 
REMARK       I    between atoms: C_15  and  N_16 
REMARK    6  A    between atoms: N_16  and  C_17 
REMARK    7  A    between atoms: C_19  and  C_20 
ROOT
HETATM    1  N   UNL     1      41.803 -11.822   3.309  1.00  0.00    -0.058 N 
HETATM    2  H   UNL     1      41.250 -12.288   4.049  1.00  0.00     0.280 HD
HETATM    3  C   UNL     1      42.681 -10.804   3.980  1.00  0.00     0.270 C 
ENDROOT
BRANCH   1   4
HETATM    4  C   UNL     1      40.773 -11.170   2.374  1.00  0.00     0.337 C 
BRANCH   4   5
HETATM    5  C   UNL     1      39.460 -11.951   2.376  1.00  0.00     0.248 C 
HETATM    6  N   UNL     1      38.958 -12.547   1.268  1.00  0.00    -0.322 N 
HETATM    7  H   UNL     1      37.966 -12.757   1.348  1.00  0.00     0.169 HD
HETATM    8  O   UNL     1      38.804 -11.971   3.426  1.00  0.00    -0.271 OA
BRANCH   6   9
HETATM    9  C   UNL     1      39.528 -12.877   0.052  1.00  0.00     0.085 C 
HETATM   10  C   UNL     1      39.998 -14.156  -0.186  1.00  0.00     0.052 C 
HETATM   11  C   UNL     1      40.027 -15.387   0.642  1.00  0.00     0.072 C 
HETATM   12  N   UNL     1      40.477 -14.154  -1.466  1.00  0.00    -0.280 N 
HETATM   13  H   UNL     1      40.885 -14.924  -1.991  1.00  0.00     0.189 HD
HETATM   14  N   UNL     1      40.401 -12.957  -2.056  1.00  0.00    -0.177 NA
HETATM   15  C   UNL     1      39.898 -12.148  -1.116  1.00  0.00     0.079 C 
HETATM   16  C   UNL     1      39.941 -10.693  -1.406  1.00  0.00     0.075 C 
ENDBRANCH   6   9
ENDBRANCH   4   5
ENDBRANCH   1   4
BRANCH   1  17
HETATM   17  C   UNL     1      42.583 -12.948   2.613  1.00  0.00     0.337 C 
BRANCH  17  18
HETATM   18  C   UNL     1      42.387 -14.344   3.222  1.00  0.00     0.248 C 
HETATM   19  N   UNL     1      43.350 -15.261   2.832  1.00  0.00    -0.326 N 
HETATM   20  H   UNL     1      43.939 -15.037   2.037  1.00  0.00     0.169 HD
HETATM   21  O   UNL     1      41.451 -14.561   3.986  1.00  0.00    -0.271 OA
BRANCH  19  22
HETATM   22  C   UNL     1      43.566 -16.547   3.378  1.00  0.00     0.035 A 
HETATM   23  C   UNL     1      43.484 -17.732   2.644  1.00  0.00     0.047 A 
HETATM   24  C   UNL     1      43.650 -18.993   3.261  1.00  0.00     0.071 A 
HETATM   25  C   UNL     1      43.913 -19.041   4.633  1.00  0.00     0.049 A 
HETATM   26 CL   UNL     1      44.122 -20.529   5.479  1.00  0.00    -0.083 Cl
HETATM   27  C   UNL     1      44.004 -17.860   5.372  1.00  0.00     0.027 A 
HETATM   28  C   UNL     1      43.826 -16.622   4.750  1.00  0.00     0.031 A 
BRANCH  24  29
HETATM   29  C   UNL     1      43.519 -20.252   2.443  1.00  0.00     0.419 C 
HETATM   30  F   UNL     1      42.276 -20.403   1.898  1.00  0.00    -0.166 F 
HETATM   31  F   UNL     1      44.380 -20.300   1.392  1.00  0.00    -0.166 F 
HETATM   32  F   UNL     1      43.728 -21.380   3.174  1.00  0.00    -0.166 F 
ENDBRANCH  24  29
ENDBRANCH  19  22
ENDBRANCH  17  18
ENDBRANCH   1  17
TORSDOF 7
ENDMDL
MODEL 6
REMARK VINA RESULT:      -8.1      5.321      7.878
REMARK  7 active torsions:
REMARK  status: ('A' for Active; 'I' for Inactive)
REMARK    1  A    between atoms: C_8  and  N_9 
REMARK       I    between atoms: N_9  and  C_10 
REMARK    2  A    between atoms: C_10  and  C_11 
REMARK    3  A    between atoms: C_11  and  N_12 
REMARK    4  A    between atoms: N_12  and  C_14 
REMARK    5  A    between atoms: C_14  and  C_15 
REMARK       I    between atoms: C_15  and  N_16 
REMARK    6  A    between atoms: N_16  and  C_17 
REMARK    7  A    between atoms: C_19  and  C_20 
ROOT
HETATM    1  N   UNL     1      41.328 -15.469   6.004  1.00  0.00    -0.058 N 
HETATM    2  H   UNL     1      42.051 -15.152   6.673  1.00  0.00     0.280 HD
HETATM    3  C   UNL     1      40.106 -15.831   6.801  1.00  0.00     0.270 C 
ENDROOT
BRANCH   1   4
HETATM    4  C   UNL     1      41.934 -16.689   5.291  1.00  0.00     0.337 C 
BRANCH   4   5
HETATM    5  C   UNL     1      43.459 -16.676   5.386  1.00  0.00     0.248 C 
HETATM    6  N   UNL     1      44.234 -17.669   4.889  1.00  0.00    -0.322 N 
HETATM    7  H   UNL     1      45.172 -17.672   5.284  1.00  0.00     0.169 HD
HETATM    8  O   UNL     1      43.988 -15.745   6.009  1.00  0.00    -0.271 OA
BRANCH   6   9
HETATM    9  C   UNL     1      43.977 -18.688   3.991  1.00  0.00     0.085 C 
HETATM   10  C   UNL     1      43.565 -18.407   2.700  1.00  0.00     0.052 C 
HETATM   11  C   UNL     1      43.320 -17.134   1.977  1.00  0.00     0.072 C 
HETATM   12  N   UNL     1      43.414 -19.614   2.078  1.00  0.00    -0.280 N 
HETATM   13  H   UNL     1      43.138 -19.801   1.117  1.00  0.00     0.189 HD
HETATM   14  N   UNL     1      43.646 -20.655   2.883  1.00  0.00    -0.177 NA
HETATM   15  C   UNL     1      43.912 -20.109   4.075  1.00  0.00     0.079 C 
HETATM   16  C   UNL     1      43.958 -21.039   5.231  1.00  0.00     0.075 C 
ENDBRANCH   6   9
ENDBRANCH   4   5
ENDBRANCH   1   4
BRANCH   1  17
HETATM   17  C   UNL     1      41.113 -14.288   5.045  1.00  0.00     0.337 C 
BRANCH  17  18
HETATM   18  C   UNL     1      41.914 -13.023   5.387  1.00  0.00     0.248 C 
HETATM   19  N   UNL     1      42.711 -13.157   6.512  1.00  0.00    -0.326 N 
HETATM   20  H   UNL     1      42.545 -13.941   7.133  1.00  0.00     0.169 HD
HETATM   21  O   UNL     1      41.822 -12.022   4.683  1.00  0.00    -0.271 OA
BRANCH  19  22
HETATM   22  C   UNL     1      43.712 -12.261   6.952  1.00  0.00     0.035 A 
HETATM   23  C   UNL     1      43.635 -11.522   8.135  1.00  0.00     0.047 A 
HETATM   24  C   UNL     1      44.641 -10.596   8.491  1.00  0.00     0.071 A 
HETATM   25  C   UNL     1      45.738 -10.433   7.639  1.00  0.00     0.049 A 
HETATM   26 CL   UNL     1      47.011  -9.322   7.980  1.00  0.00    -0.083 Cl
HETATM   27  C   UNL     1      45.826 -11.174   6.460  1.00  0.00     0.027 A 
HETATM   28  C   UNL     1      44.818 -12.077   6.115  1.00  0.00     0.031 A 
BRANCH  24  29
HETATM   29  C   UNL     1      44.505  -9.789   9.757  1.00  0.00     0.419 C 
HETATM   30  F   UNL     1      45.554  -9.966  10.613  1.00  0.00    -0.166 F 
HETATM   31  F   UNL     1      44.443  -8.449   9.535  1.00  0.00    -0.166 F 
HETATM   32  F   UNL     1      43.398 -10.120  10.475  1.00  0.00    -0.166 F 
ENDBRANCH  24  29
ENDBRANCH  19  22
ENDBRANCH  17  18
ENDBRANCH   1  17
TORSDOF 7
ENDMDL
MODEL 7
REMARK VINA RESULT:      -8.0      2.894      4.588
REMARK  7 active torsions:
REMARK  status: ('A' for Active; 'I' for Inactive)
REMARK    1  A    between atoms: C_8  and  N_9 
REMARK       I    between atoms: N_9  and  C_10 
REMARK    2  A    between atoms: C_10  and  C_11 
REMARK    3  A    between atoms: C_11  and  N_12 
REMARK    4  A    between atoms: N_12  and  C_14 
REMARK    5  A    between atoms: C_14  and  C_15 
REMARK       I    between atoms: C_15  and  N_16 
REMARK    6  A    between atoms: N_16  and  C_17 
REMARK    7  A    between atoms: C_19  and  C_20 
ROOT
HETATM    1  N   UNL     1      41.675 -11.288   1.094  1.00  0.00    -0.058 N 
HETATM    2  H   UNL     1      42.697 -11.437   1.141  1.00  0.00     0.280 HD
HETATM    3  C   UNL     1      41.443  -9.975   0.401  1.00  0.00     0.270 C 
ENDROOT
BRANCH   1   4
HETATM    4  C   UNL     1      41.195 -11.264   2.554  1.00  0.00     0.337 C 
BRANCH   4   5
HETATM    5  C   UNL     1      42.369 -11.414   3.518  1.00  0.00     0.248 C 
HETATM    6  N   UNL     1      42.226 -11.365   4.864  1.00  0.00    -0.322 N 
HETATM    7  H   UNL     1      43.102 -11.179   5.348  1.00  0.00     0.169 HD
HETATM    8  O   UNL     1      43.504 -11.514   3.032  1.00  0.00    -0.271 OA
BRANCH   6   9
HETATM    9  C   UNL     1      41.119 -11.478   5.686  1.00  0.00     0.085 C 
HETATM   10  C   UNL     1      40.716 -10.420   6.480  1.00  0.00     0.052 C 
HETATM   11  C   UNL     1      41.243  -9.045   6.668  1.00  0.00     0.072 C 
HETATM   12  N   UNL     1      39.602 -10.846   7.146  1.00  0.00    -0.280 N 
HETATM   13  H   UNL     1      39.023 -10.333   7.806  1.00  0.00     0.189 HD
HETATM   14  N   UNL     1      39.285 -12.117   6.883  1.00  0.00    -0.177 NA
HETATM   15  C   UNL     1      40.247 -12.542   6.056  1.00  0.00     0.079 C 
HETATM   16  C   UNL     1      40.296 -14.003   5.796  1.00  0.00     0.075 C 
ENDBRANCH   6   9
ENDBRANCH   4   5
ENDBRANCH   1   4
BRANCH   1  17
HETATM   17  C   UNL     1      41.121 -12.498   0.325  1.00  0.00     0.337 C 
BRANCH  17  18
HETATM   18  C   UNL     1      41.171 -13.829   1.090  1.00  0.00     0.248 C 
HETATM   19  N   UNL     1      42.455 -14.231   1.421  1.00  0.00    -0.326 N 
HETATM   20  H   UNL     1      43.238 -13.781   0.960  1.00  0.00     0.169 HD
HETATM   21  O   UNL     1      40.135 -14.426   1.363  1.00  0.00    -0.271 OA
BRANCH  19  22
HETATM   22  C   UNL     1      42.814 -15.282   2.296  1.00  0.00     0.035 A 
HETATM   23  C   UNL     1      43.056 -15.114   3.662  1.00  0.00     0.047 A 
HETATM   24  C   UNL     1      43.472 -16.194   4.473  1.00  0.00     0.071 A 
HETATM   25  C   UNL     1      43.631 -17.453   3.888  1.00  0.00     0.049 A 
HETATM   26 CL   UNL     1      44.143 -18.830   4.791  1.00  0.00    -0.083 Cl
HETATM   27  C   UNL     1      43.383 -17.631   2.526  1.00  0.00     0.027 A 
HETATM   28  C   UNL     1      42.984 -16.552   1.734  1.00  0.00     0.031 A 
BRANCH  24  29
HETATM   29  C   UNL     1      43.758 -15.966   5.936  1.00  0.00     0.419 C 
HETATM   30  F   UNL     1      42.942 -16.692   6.754  1.00  0.00    -0.166 F 
HETATM   31  F   UNL     1      45.024 -16.310   6.293  1.00  0.00    -0.166 F 
HETATM   32  F   UNL     1      43.581 -14.671   6.312  1.00  0.00    -0.166 F 
ENDBRANCH  24  29
ENDBRANCH  19  22
ENDBRANCH  17  18
ENDBRANCH   1  17
TORSDOF 7
ENDMDL
MODEL 8
REMARK VINA RESULT:      -7.9      2.746      5.135
REMARK  7 active torsions:
REMARK  status: ('A' for Active; 'I' for Inactive)
REMARK    1  A    between atoms: C_8  and  N_9 
REMARK       I    between atoms: N_9  and  C_10 
REMARK    2  A    between atoms: C_10  and  C_11 
REMARK    3  A    between atoms: C_11  and  N_12 
REMARK    4  A    between atoms: N_12  and  C_14 
REMARK    5  A    between atoms: C_14  and  C_15 
REMARK       I    between atoms: C_15  and  N_16 
REMARK    6  A    between atoms: N_16  and  C_17 
REMARK    7  A    between atoms: C_19  and  C_20 
ROOT
HETATM    1  N   UNL     1      43.257 -12.730   5.679  1.00  0.00    -0.058 N 
HETATM    2  H   UNL     1      43.822 -13.335   5.059  1.00  0.00     0.280 HD
HETATM    3  C   UNL     1      43.033 -11.431   4.957  1.00  0.00     0.270 C 
ENDROOT
BRANCH   1   4
HETATM    4  C   UNL     1      44.099 -12.544   6.952  1.00  0.00     0.337 C 
BRANCH   4   5
HETATM    5  C   UNL     1      44.845 -11.212   6.925  1.00  0.00     0.248 C 
HETATM    6  N   UNL     1      44.408 -10.111   7.582  1.00  0.00    -0.322 N 
HETATM    7  H   UNL     1      44.826  -9.251   7.234  1.00  0.00     0.169 HD
HETATM    8  O   UNL     1      45.853 -11.132   6.210  1.00  0.00    -0.271 OA
BRANCH   6   9
HETATM    9  C   UNL     1      43.481  -9.940   8.594  1.00  0.00     0.085 C 
HETATM   10  C   UNL     1      42.225  -9.427   8.325  1.00  0.00     0.052 C 
HETATM   11  C   UNL     1      41.568  -8.982   7.071  1.00  0.00     0.072 C 
HETATM   12  N   UNL     1      41.560  -9.401   9.519  1.00  0.00    -0.280 N 
HETATM   13  H   UNL     1      40.607  -9.101   9.707  1.00  0.00     0.189 HD
HETATM   14  N   UNL     1      42.309  -9.808  10.548  1.00  0.00    -0.177 NA
HETATM   15  C   UNL     1      43.508 -10.064  10.014  1.00  0.00     0.079 C 
HETATM   16  C   UNL     1      44.621 -10.292  10.969  1.00  0.00     0.075 C 
ENDBRANCH   6   9
ENDBRANCH   4   5
ENDBRANCH   1   4
BRANCH   1  17
HETATM   17  C   UNL     1      41.966 -13.516   5.951  1.00  0.00     0.337 C 
BRANCH  17  18
HETATM   18  C   UNL     1      41.808 -14.805   5.130  1.00  0.00     0.248 C 
HETATM   19  N   UNL     1      43.014 -15.379   4.761  1.00  0.00    -0.326 N 
HETATM   20  H   UNL     1      43.859 -14.825   4.840  1.00  0.00     0.169 HD
HETATM   21  O   UNL     1      40.691 -15.241   4.869  1.00  0.00    -0.271 OA
BRANCH  19  22
HETATM   22  C   UNL     1      43.204 -16.662   4.197  1.00  0.00     0.035 A 
HETATM   23  C   UNL     1      43.462 -17.814   4.943  1.00  0.00     0.047 A 
HETATM   24  C   UNL     1      43.703 -19.058   4.316  1.00  0.00     0.071 A 
HETATM   25  C   UNL     1      43.670 -19.125   2.920  1.00  0.00     0.049 A 
HETATM   26 CL   UNL     1      43.961 -20.592   2.062  1.00  0.00    -0.083 Cl
HETATM   27  C   UNL     1      43.405 -17.980   2.168  1.00  0.00     0.027 A 
HETATM   28  C   UNL     1      43.179 -16.755   2.801  1.00  0.00     0.031 A 
BRANCH  24  29
HETATM   29  C   UNL     1      44.014 -20.272   5.153  1.00  0.00     0.419 C 
HETATM   30  F   UNL     1      43.776 -20.074   6.482  1.00  0.00    -0.166 F 
HETATM   31  F   UNL     1      43.274 -21.361   4.812  1.00  0.00    -0.166 F 
HETATM   32  F   UNL     1      45.320 -20.645   5.076  1.00  0.00    -0.166 F 
ENDBRANCH  24  29
ENDBRANCH  19  22
ENDBRANCH  17  18
ENDBRANCH   1  17
TORSDOF 7
ENDMDL
MODEL 9
REMARK VINA RESULT:      -7.9      1.670      2.521
REMARK  7 active torsions:
REMARK  status: ('A' for Active; 'I' for Inactive)
REMARK    1  A    between atoms: C_8  and  N_9 
REMARK       I    between atoms: N_9  and  C_10 
REMARK    2  A    between atoms: C_10  and  C_11 
REMARK    3  A    between atoms: C_11  and  N_12 
REMARK    4  A    between atoms: N_12  and  C_14 
REMARK    5  A    between atoms: C_14  and  C_15 
REMARK       I    between atoms: C_15  and  N_16 
REMARK    6  A    between atoms: N_16  and  C_17 
REMARK    7  A    between atoms: C_19  and  C_20 
ROOT
HETATM    1  N   UNL     1      41.116 -12.306   5.099  1.00  0.00    -0.058 N 
HETATM    2  H   UNL     1      40.608 -12.717   4.297  1.00  0.00     0.280 HD
HETATM    3  C   UNL     1      40.088 -11.821   6.082  1.00  0.00     0.270 C 
ENDROOT
BRANCH   1   4
HETATM    4  C   UNL     1      41.944 -11.151   4.513  1.00  0.00     0.337 C 
BRANCH   4   5
HETATM    5  C   UNL     1      42.690 -11.595   3.257  1.00  0.00     0.248 C 
HETATM    6  N   UNL     1      42.062 -12.103   2.170  1.00  0.00    -0.322 N 
HETATM    7  H   UNL     1      42.689 -12.620   1.557  1.00  0.00     0.169 HD
HETATM    8  O   UNL     1      43.928 -11.548   3.276  1.00  0.00    -0.271 OA
BRANCH   6   9
HETATM    9  C   UNL     1      40.739 -12.084   1.768  1.00  0.00     0.085 C 
HETATM   10  C   UNL     1      40.119 -13.236   1.318  1.00  0.00     0.052 C 
HETATM   11  C   UNL     1      40.588 -14.635   1.160  1.00  0.00     0.072 C 
HETATM   12  N   UNL     1      38.833 -12.884   1.019  1.00  0.00    -0.280 N 
HETATM   13  H   UNL     1      38.078 -13.473   0.676  1.00  0.00     0.189 HD
HETATM   14  N   UNL     1      38.589 -11.581   1.190  1.00  0.00    -0.177 NA
HETATM   15  C   UNL     1      39.763 -11.065   1.570  1.00  0.00     0.079 C 
HETATM   16  C   UNL     1      39.857  -9.583   1.587  1.00  0.00     0.075 C 
ENDBRANCH   6   9
ENDBRANCH   4   5
ENDBRANCH   1   4
BRANCH   1  17
HETATM   17  C   UNL     1      42.005 -13.435   5.642  1.00  0.00     0.337 C 
BRANCH  17  18
HETATM   18  C   UNL     1      41.836 -14.788   4.935  1.00  0.00     0.248 C 
HETATM   19  N   UNL     1      43.028 -15.334   4.489  1.00  0.00    -0.326 N 
HETATM   20  H   UNL     1      43.847 -14.739   4.443  1.00  0.00     0.169 HD
HETATM   21  O   UNL     1      40.722 -15.292   4.819  1.00  0.00    -0.271 OA
BRANCH  19  22
HETATM   22  C   UNL     1      43.228 -16.646   4.001  1.00  0.00     0.035 A 
HETATM   23  C   UNL     1      43.461 -17.757   4.815  1.00  0.00     0.047 A 
HETATM   24  C   UNL     1      43.715 -19.033   4.264  1.00  0.00     0.071 A 
HETATM   25  C   UNL     1      43.720 -19.177   2.874  1.00  0.00     0.049 A 
HETATM   26 CL   UNL     1      44.029 -20.689   2.106  1.00  0.00    -0.083 Cl
HETATM   27  C   UNL     1      43.480 -18.074   2.053  1.00  0.00     0.027 A 
HETATM   28  C   UNL     1      43.242 -16.816   2.612  1.00  0.00     0.031 A 
BRANCH  24  29
HETATM   29  C   UNL     1      43.997 -20.201   5.175  1.00  0.00     0.419 C 
HETATM   30  F   UNL     1      43.233 -21.294   4.887  1.00  0.00    -0.166 F 
HETATM   31  F   UNL     1      45.285 -20.634   5.107  1.00  0.00    -0.166 F 
HETATM   32  F   UNL     1      43.745 -19.922   6.482  1.00  0.00    -0.166 F 
ENDBRANCH  24  29
ENDBRANCH  19  22
ENDBRANCH  17  18
ENDBRANCH   1  17
TORSDOF 7
ENDMDL
MODEL 10
REMARK VINA RESULT:      -7.9      2.434      3.248
REMARK  7 active torsions:
REMARK  status: ('A' for Active; 'I' for Inactive)
REMARK    1  A    between atoms: C_8  and  N_9 
REMARK       I    between atoms: N_9  and  C_10 
REMARK    2  A    between atoms: C_10  and  C_11 
REMARK    3  A    between atoms: C_11  and  N_12 
REMARK    4  A    between atoms: N_12  and  C_14 
REMARK    5  A    between atoms: C_14  and  C_15 
REMARK       I    between atoms: C_15  and  N_16 
REMARK    6  A    between atoms: N_16  and  C_17 
REMARK    7  A    between atoms: C_19  and  C_20 
ROOT
HETATM    1  N   UNL     1      41.318 -11.827   5.187  1.00  0.00    -0.058 N 
HETATM    2  H   UNL     1      41.292 -12.762   4.746  1.00  0.00     0.280 HD
HETATM    3  C   UNL     1      39.956 -11.562   5.763  1.00  0.00     0.270 C 
ENDROOT
BRANCH   1   4
HETATM    4  C   UNL     1      41.666 -10.848   4.054  1.00  0.00     0.337 C 
BRANCH   4   5
HETATM    5  C   UNL     1      42.675 -11.466   3.088  1.00  0.00     0.248 C 
HETATM    6  N   UNL     1      42.308 -12.229   2.031  1.00  0.00    -0.322 N 
HETATM    7  H   UNL     1      43.070 -12.802   1.674  1.00  0.00     0.169 HD
HETATM    8  O   UNL     1      43.879 -11.311   3.336  1.00  0.00    -0.271 OA
BRANCH   6   9
HETATM    9  C   UNL     1      41.098 -12.403   1.386  1.00  0.00     0.085 C 
HETATM   10  C   UNL     1      40.209 -13.380   1.797  1.00  0.00     0.052 C 
HETATM   11  C   UNL     1      40.252 -14.382   2.891  1.00  0.00     0.072 C 
HETATM   12  N   UNL     1      39.123 -13.278   0.974  1.00  0.00    -0.280 N 
HETATM   13  H   UNL     1      38.264 -13.823   0.988  1.00  0.00     0.189 HD
HETATM   14  N   UNL     1      39.264 -12.345   0.028  1.00  0.00    -0.177 NA
HETATM   15  C   UNL     1      40.496 -11.857   0.215  1.00  0.00     0.079 C 
HETATM   16  C   UNL     1      41.026 -10.977  -0.857  1.00  0.00     0.075 C 
ENDBRANCH   6   9
ENDBRANCH   4   5
ENDBRANCH   1   4
BRANCH   1  17
HETATM   17  C   UNL     1      42.431 -11.905   6.244  1.00  0.00     0.337 C 
BRANCH  17  18
HETATM   18  C   UNL     1      43.138 -13.265   6.340  1.00  0.00     0.248 C 
HETATM   19  N   UNL     1      42.368 -14.324   5.885  1.00  0.00    -0.326 N 
HETATM   20  H   UNL     1      41.373 -14.180   5.755  1.00  0.00     0.169 HD
HETATM   21  O   UNL     1      44.282 -13.339   6.776  1.00  0.00    -0.271 OA
BRANCH  19  22
HETATM   22  C   UNL     1      42.805 -15.647   5.647  1.00  0.00     0.035 A 
HETATM   23  C   UNL     1      43.024 -16.181   4.374  1.00  0.00     0.047 A 
HETATM   24  C   UNL     1      43.403 -17.531   4.198  1.00  0.00     0.071 A 
HETATM   25  C   UNL     1      43.569 -18.337   5.328  1.00  0.00     0.049 A 
HETATM   26 CL   UNL     1      44.019 -19.997   5.218  1.00  0.00    -0.083 Cl
HETATM   27  C   UNL     1      43.361 -17.808   6.603  1.00  0.00     0.027 A 
HETATM   28  C   UNL     1      42.975 -16.475   6.762  1.00  0.00     0.031 A 
BRANCH  24  29
HETATM   29  C   UNL     1      43.594 -18.081   2.807  1.00  0.00     0.419 C 
HETATM   30  F   UNL     1      44.796 -18.708   2.647  1.00  0.00    -0.166 F 
HETATM   31  F   UNL     1      42.658 -19.005   2.464  1.00  0.00    -0.166 F 
HETATM   32  F   UNL     1      43.564 -17.115   1.850  1.00  0.00    -0.166 F 
ENDBRANCH  24  29
ENDBRANCH  19  22
ENDBRANCH  17  18
ENDBRANCH   1  17
TORSDOF 7
ENDMDL
