MODEL 1
REMARK VINA RESULT:      -8.3      0.000      0.000
REMARK  3 active torsions:
REMARK  status: ('A' for Active; 'I' for Inactive)
REMARK    1  A    between atoms: C_7  and  C_8 
REMARK    2  A    between atoms: C_17  and  C_18 
REMARK       I    between atoms: C_18  and  N_19 
REMARK    3  A    between atoms: N_19  and  C_20 
ROOT
HETATM    1  C   UNL     1      40.894 -13.040   2.308  1.00  0.00     0.206 C 
HETATM    2  N   UNL     1      40.171 -11.856   2.777  1.00  0.00    -0.084 N 
HETATM    3  C   UNL     1      40.779 -10.740   3.286  1.00  0.00     0.725 A 
HETATM    4  N   UNL     1      39.869  -9.863   3.624  1.00  0.00    -0.054 NA
HETATM    5  C   UNL     1      38.698 -10.517   3.338  1.00  0.00     0.275 A 
HETATM    6  N   UNL     1      38.825 -11.753   2.843  1.00  0.00    -0.149 NA
HETATM    7  N   UNL     1      42.121 -10.717   3.416  1.00  0.00    -0.192 N 
HETATM    8  C   UNL     1      42.913 -11.848   3.235  1.00  0.00     0.037 C 
HETATM    9  C   UNL     1      44.326 -11.738   3.752  1.00  0.00     0.070 C 
HETATM   10  C   UNL     1      42.369 -12.968   2.693  1.00  0.00     0.063 C 
HETATM   11  H   UNL     1      42.531  -9.933   3.916  1.00  0.00     0.184 HD
ENDROOT
BRANCH  10  12
HETATM   12  C   UNL     1      43.090 -14.260   2.542  1.00  0.00     0.256 C 
HETATM   13  N   UNL     1      42.694 -15.222   3.445  1.00  0.00    -0.323 N 
HETATM   14  H   UNL     1      42.003 -14.953   4.133  1.00  0.00     0.169 HD
HETATM   15  O   UNL     1      43.959 -14.347   1.685  1.00  0.00    -0.267 OA
BRANCH  13  16
HETATM   16  C   UNL     1      43.110 -16.569   3.494  1.00  0.00     0.035 A 
HETATM   17  C   UNL     1      43.848 -17.122   4.542  1.00  0.00     0.029 A 
HETATM   18  C   UNL     1      44.247 -18.462   4.501  1.00  0.00     0.002 A 
HETATM   19  C   UNL     1      43.916 -19.260   3.410  1.00  0.00     0.000 A 
HETATM   20  C   UNL     1      43.178 -18.721   2.360  1.00  0.00     0.002 A 
HETATM   21  C   UNL     1      42.773 -17.384   2.404  1.00  0.00     0.029 A 
ENDBRANCH  13  16
ENDBRANCH  10  12
BRANCH   1  22
HETATM   22  C   UNL     1      40.698 -13.171   0.819  1.00  0.00     0.015 A 
HETATM   23  C   UNL     1      40.250 -14.324   0.112  1.00  0.00     0.061 A 
HETATM   24  C   UNL     1      39.869 -15.649   0.667  1.00  0.00     0.073 C 
HETATM   25  N   UNL     1      40.170 -14.103  -1.205  1.00  0.00    -0.178 NA
HETATM   26  N   UNL     1      40.519 -12.817  -1.345  1.00  0.00    -0.284 N 
HETATM   27  C   UNL     1      40.500 -12.205  -2.651  1.00  0.00     0.179 C 
HETATM   28  C   UNL     1      40.862 -12.216  -0.171  1.00  0.00     0.123 A 
ENDBRANCH   1  22
TORSDOF 3
ENDMDL
MODEL 2
REMARK VINA RESULT:      -8.1      2.311      2.977
REMARK  3 active torsions:
REMARK  status: ('A' for Active; 'I' for Inactive)
REMARK    1  A    between atoms: C_7  and  C_8 
REMARK    2  A    between atoms: C_17  and  C_18 
REMARK       I    between atoms: C_18  and  N_19 
REMARK    3  A    between atoms: N_19  and  C_20 
ROOT
HETATM    1  C   UNL     1      40.444 -13.577   4.626  1.00  0.00     0.206 C 
HETATM    2  N   UNL     1      40.236 -12.244   5.199  1.00  0.00    -0.084 N 
HETATM    3  C   UNL     1      41.122 -11.626   6.038  1.00  0.00     0.725 A 
HETATM    4  N   UNL     1      40.651 -10.455   6.385  1.00  0.00    -0.054 NA
HETATM    5  C   UNL     1      39.433 -10.422   5.757  1.00  0.00     0.275 A 
HETATM    6  N   UNL     1      39.116 -11.506   5.039  1.00  0.00    -0.149 NA
HETATM    7  N   UNL     1      42.244 -12.274   6.412  1.00  0.00    -0.192 N 
HETATM    8  C   UNL     1      42.459 -13.623   6.140  1.00  0.00     0.037 C 
HETATM    9  C   UNL     1      43.578 -14.269   6.917  1.00  0.00     0.070 C 
HETATM   10  C   UNL     1      41.633 -14.273   5.280  1.00  0.00     0.063 C 
HETATM   11  H   UNL     1      42.815 -11.845   7.135  1.00  0.00     0.184 HD
ENDROOT
BRANCH  10  12
HETATM   12  C   UNL     1      41.708 -15.729   4.989  1.00  0.00     0.256 C 
HETATM   13  N   UNL     1      42.696 -16.063   4.090  1.00  0.00    -0.323 N 
HETATM   14  H   UNL     1      43.233 -15.304   3.692  1.00  0.00     0.169 HD
HETATM   15  O   UNL     1      40.899 -16.475   5.526  1.00  0.00    -0.267 OA
BRANCH  13  16
HETATM   16  C   UNL     1      43.085 -17.360   3.691  1.00  0.00     0.035 A 
HETATM   17  C   UNL     1      42.754 -17.930   2.460  1.00  0.00     0.029 A 
HETATM   18  C   UNL     1      43.154 -19.234   2.151  1.00  0.00     0.002 A 
HETATM   19  C   UNL     1      43.885 -19.981   3.071  1.00  0.00     0.000 A 
HETATM   20  C   UNL     1      44.223 -19.422   4.300  1.00  0.00     0.002 A 
HETATM   21  C   UNL     1      43.829 -18.117   4.606  1.00  0.00     0.029 A 
ENDBRANCH  13  16
ENDBRANCH  10  12
BRANCH   1  22
HETATM   22  C   UNL     1      40.609 -13.444   3.134  1.00  0.00     0.015 A 
HETATM   23  C   UNL     1      41.676 -12.799   2.444  1.00  0.00     0.061 A 
HETATM   24  C   UNL     1      42.864 -12.120   3.023  1.00  0.00     0.073 C 
HETATM   25  N   UNL     1      41.528 -12.871   1.116  1.00  0.00    -0.178 NA
HETATM   26  N   UNL     1      40.408 -13.587   0.947  1.00  0.00    -0.284 N 
HETATM   27  C   UNL     1      39.957 -13.913  -0.384  1.00  0.00     0.179 C 
HETATM   28  C   UNL     1      39.808 -13.940   2.118  1.00  0.00     0.123 A 
ENDBRANCH   1  22
TORSDOF 3
ENDMDL
MODEL 3
REMARK VINA RESULT:      -7.9      1.928      4.294
REMARK  3 active torsions:
REMARK  status: ('A' for Active; 'I' for Inactive)
REMARK    1  A    between atoms: C_7  and  C_8 
REMARK    2  A    between atoms: C_17  and  C_18 
REMARK       I    between atoms: C_18  and  N_19 
REMARK    3  A    between atoms: N_19  and  C_20 
ROOT
HETATM    1  C   UNL     1      41.524 -12.975   2.471  1.00  0.00     0.206 C 
HETATM    2  N   UNL     1      41.441 -11.839   1.550  1.00  0.00    -0.084 N 
HETATM    3  C   UNL     1      40.685 -11.835   0.408  1.00  0.00     0.725 A 
HETATM    4  N   UNL     1      40.826 -10.686  -0.203  1.00  0.00    -0.054 NA
HETATM    5  C   UNL     1      41.726 -10.028   0.594  1.00  0.00     0.275 A 
HETATM    6  N   UNL     1      42.158 -10.701   1.667  1.00  0.00    -0.149 NA
HETATM    7  N   UNL     1      40.000 -12.942   0.063  1.00  0.00    -0.192 N 
HETATM    8  C   UNL     1      40.169 -14.164   0.709  1.00  0.00     0.037 C 
HETATM    9  C   UNL     1      39.602 -15.362  -0.012  1.00  0.00     0.070 C 
HETATM   10  C   UNL     1      40.874 -14.216   1.868  1.00  0.00     0.063 C 
HETATM   11  H   UNL     1      39.556 -12.953  -0.852  1.00  0.00     0.184 HD
ENDROOT
BRANCH  10  12
HETATM   12  C   UNL     1      41.200 -15.474   2.593  1.00  0.00     0.256 C 
HETATM   13  N   UNL     1      42.460 -15.958   2.319  1.00  0.00    -0.323 N 
HETATM   14  H   UNL     1      43.011 -15.451   1.638  1.00  0.00     0.169 HD
HETATM   15  O   UNL     1      40.347 -15.969   3.318  1.00  0.00    -0.267 OA
BRANCH  13  16
HETATM   16  C   UNL     1      43.099 -17.063   2.920  1.00  0.00     0.035 A 
HETATM   17  C   UNL     1      43.184 -18.329   2.336  1.00  0.00     0.029 A 
HETATM   18  C   UNL     1      43.811 -19.382   3.010  1.00  0.00     0.002 A 
HETATM   19  C   UNL     1      44.355 -19.180   4.276  1.00  0.00     0.000 A 
HETATM   20  C   UNL     1      44.278 -17.922   4.868  1.00  0.00     0.002 A 
HETATM   21  C   UNL     1      43.658 -16.868   4.191  1.00  0.00     0.029 A 
ENDBRANCH  13  16
ENDBRANCH  10  12
BRANCH   1  22
HETATM   22  C   UNL     1      40.897 -12.582   3.784  1.00  0.00     0.015 A 
HETATM   23  C   UNL     1      41.418 -12.824   5.089  1.00  0.00     0.061 A 
HETATM   24  C   UNL     1      42.685 -13.505   5.458  1.00  0.00     0.073 C 
HETATM   25  N   UNL     1      40.620 -12.332   6.044  1.00  0.00    -0.178 NA
HETATM   26  N   UNL     1      39.622 -11.744   5.370  1.00  0.00    -0.284 N 
HETATM   27  C   UNL     1      38.580 -11.051   6.088  1.00  0.00     0.179 C 
HETATM   28  C   UNL     1      39.728 -11.878   4.018  1.00  0.00     0.123 A 
ENDBRANCH   1  22
TORSDOF 3
ENDMDL
MODEL 4
REMARK VINA RESULT:      -7.7      2.033      2.621
REMARK  3 active torsions:
REMARK  status: ('A' for Active; 'I' for Inactive)
REMARK    1  A    between atoms: C_7  and  C_8 
REMARK    2  A    between atoms: C_17  and  C_18 
REMARK       I    between atoms: C_18  and  N_19 
REMARK    3  A    between atoms: N_19  and  C_20 
ROOT
HETATM    1  C   UNL     1      40.759 -12.675   4.679  1.00  0.00     0.206 C 
HETATM    2  N   UNL     1      40.222 -11.760   5.690  1.00  0.00    -0.084 N 
HETATM    3  C   UNL     1      40.975 -10.832   6.358  1.00  0.00     0.725 A 
HETATM    4  N   UNL     1      40.214 -10.177   7.198  1.00  0.00    -0.054 NA
HETATM    5  C   UNL     1      38.994 -10.781   7.036  1.00  0.00     0.275 A 
HETATM    6  N   UNL     1      38.950 -11.777   6.143  1.00  0.00    -0.149 NA
HETATM    7  N   UNL     1      42.300 -10.761   6.124  1.00  0.00    -0.192 N 
HETATM    8  C   UNL     1      42.984 -11.714   5.374  1.00  0.00     0.037 C 
HETATM    9  C   UNL     1      44.487 -11.681   5.501  1.00  0.00     0.070 C 
HETATM   10  C   UNL     1      42.284 -12.630   4.658  1.00  0.00     0.063 C 
HETATM   11  H   UNL     1      42.851 -10.155   6.728  1.00  0.00     0.184 HD
ENDROOT
BRANCH  10  12
HETATM   12  C   UNL     1      42.903 -13.750   3.900  1.00  0.00     0.256 C 
HETATM   13  N   UNL     1      42.774 -14.974   4.519  1.00  0.00    -0.323 N 
HETATM   14  H   UNL     1      42.322 -14.988   5.424  1.00  0.00     0.169 HD
HETATM   15  O   UNL     1      43.478 -13.497   2.850  1.00  0.00    -0.267 OA
BRANCH  13  16
HETATM   16  C   UNL     1      43.160 -16.233   4.010  1.00  0.00     0.035 A 
HETATM   17  C   UNL     1      42.763 -16.728   2.767  1.00  0.00     0.029 A 
HETATM   18  C   UNL     1      43.166 -18.000   2.347  1.00  0.00     0.002 A 
HETATM   19  C   UNL     1      43.967 -18.789   3.168  1.00  0.00     0.000 A 
HETATM   20  C   UNL     1      44.371 -18.305   4.409  1.00  0.00     0.002 A 
HETATM   21  C   UNL     1      43.974 -17.032   4.825  1.00  0.00     0.029 A 
ENDBRANCH  13  16
ENDBRANCH  10  12
BRANCH   1  22
HETATM   22  C   UNL     1      40.158 -12.327   3.342  1.00  0.00     0.015 A 
HETATM   23  C   UNL     1      39.697 -13.238   2.347  1.00  0.00     0.061 A 
HETATM   24  C   UNL     1      39.693 -14.723   2.394  1.00  0.00     0.073 C 
HETATM   25  N   UNL     1      39.205 -12.601   1.277  1.00  0.00    -0.178 NA
HETATM   26  N   UNL     1      39.305 -11.302   1.591  1.00  0.00    -0.284 N 
HETATM   27  C   UNL     1      38.816 -10.302   0.675  1.00  0.00     0.179 C 
HETATM   28  C   UNL     1      39.884 -11.080   2.805  1.00  0.00     0.123 A 
ENDBRANCH   1  22
TORSDOF 3
ENDMDL
MODEL 5
REMARK VINA RESULT:      -7.6      1.761      4.124
REMARK  3 active torsions:
REMARK  status: ('A' for Active; 'I' for Inactive)
REMARK    1  A    between atoms: C_7  and  C_8 
REMARK    2  A    between atoms: C_17  and  C_18 
REMARK       I    between atoms: C_18  and  N_19 
REMARK    3  A    between atoms: N_19  and  C_20 
ROOT
HETATM    1  C   UNL     1      42.193 -12.710   1.953  1.00  0.00     0.206 C 
HETATM    2  N   UNL     1      41.265 -11.741   1.364  1.00  0.00    -0.084 N 
HETATM    3  C   UNL     1      39.996 -12.049   0.957  1.00  0.00     0.725 A 
HETATM    4  N   UNL     1      39.423 -10.978   0.468  1.00  0.00    -0.054 NA
HETATM    5  C   UNL     1      40.415 -10.037   0.558  1.00  0.00     0.275 A 
HETATM    6  N   UNL     1      41.576 -10.458   1.074  1.00  0.00    -0.149 NA
HETATM    7  N   UNL     1      39.558 -13.320   1.052  1.00  0.00    -0.192 N 
HETATM    8  C   UNL     1      40.400 -14.383   1.368  1.00  0.00     0.037 C 
HETATM    9  C   UNL     1      39.841 -15.756   1.092  1.00  0.00     0.070 C 
HETATM   10  C   UNL     1      41.657 -14.132   1.817  1.00  0.00     0.063 C 
HETATM   11  H   UNL     1      38.664 -13.542   0.623  1.00  0.00     0.184 HD
ENDROOT
BRANCH  10  12
HETATM   12  C   UNL     1      42.672 -15.182   2.093  1.00  0.00     0.256 C 
HETATM   13  N   UNL     1      42.279 -16.095   3.047  1.00  0.00    -0.323 N 
HETATM   14  H   UNL     1      41.381 -15.942   3.488  1.00  0.00     0.169 HD
HETATM   15  O   UNL     1      43.740 -15.134   1.497  1.00  0.00    -0.267 OA
BRANCH  13  16
HETATM   16  C   UNL     1      42.968 -17.257   3.452  1.00  0.00     0.035 A 
HETATM   17  C   UNL     1      43.241 -18.337   2.610  1.00  0.00     0.029 A 
HETATM   18  C   UNL     1      43.905 -19.467   3.097  1.00  0.00     0.002 A 
HETATM   19  C   UNL     1      44.299 -19.531   4.431  1.00  0.00     0.000 A 
HETATM   20  C   UNL     1      44.034 -18.460   5.280  1.00  0.00     0.002 A 
HETATM   21  C   UNL     1      43.377 -17.327   4.791  1.00  0.00     0.029 A 
ENDBRANCH  13  16
ENDBRANCH  10  12
BRANCH   1  22
HETATM   22  C   UNL     1      42.447 -12.329   3.389  1.00  0.00     0.015 A 
HETATM   23  C   UNL     1      41.534 -12.436   4.478  1.00  0.00     0.061 A 
HETATM   24  C   UNL     1      40.139 -12.948   4.458  1.00  0.00     0.073 C 
HETATM   25  N   UNL     1      42.079 -12.024   5.628  1.00  0.00    -0.178 NA
HETATM   26  N   UNL     1      43.336 -11.695   5.300  1.00  0.00    -0.284 N 
HETATM   27  C   UNL     1      44.251 -11.247   6.320  1.00  0.00     0.179 C 
HETATM   28  C   UNL     1      43.605 -11.841   3.972  1.00  0.00     0.123 A 
ENDBRANCH   1  22
TORSDOF 3
ENDMDL
MODEL 6
REMARK VINA RESULT:      -7.3      2.423      6.250
REMARK  3 active torsions:
REMARK  status: ('A' for Active; 'I' for Inactive)
REMARK    1  A    between atoms: C_7  and  C_8 
REMARK    2  A    between atoms: C_17  and  C_18 
REMARK       I    between atoms: C_18  and  N_19 
REMARK    3  A    between atoms: N_19  and  C_20 
ROOT
HETATM    1  C   UNL     1      40.971 -14.891   4.683  1.00  0.00     0.206 C 
HETATM    2  N   UNL     1      41.937 -15.354   5.682  1.00  0.00    -0.084 N 
HETATM    3  C   UNL     1      43.184 -15.829   5.378  1.00  0.00     0.725 A 
HETATM    4  N   UNL     1      43.803 -16.170   6.480  1.00  0.00    -0.054 NA
HETATM    5  C   UNL     1      42.860 -15.923   7.444  1.00  0.00     0.275 A 
HETATM    6  N   UNL     1      41.687 -15.449   7.007  1.00  0.00    -0.149 NA
HETATM    7  N   UNL     1      43.559 -15.928   4.087  1.00  0.00    -0.192 N 
HETATM    8  C   UNL     1      42.670 -15.750   3.030  1.00  0.00     0.037 C 
HETATM    9  C   UNL     1      43.156 -16.234   1.686  1.00  0.00     0.070 C 
HETATM   10  C   UNL     1      41.434 -15.242   3.272  1.00  0.00     0.063 C 
HETATM   11  H   UNL     1      44.435 -16.403   3.887  1.00  0.00     0.184 HD
ENDROOT
BRANCH  10  12
HETATM   12  C   UNL     1      40.371 -15.099   2.242  1.00  0.00     0.256 C 
HETATM   13  N   UNL     1      40.593 -14.065   1.360  1.00  0.00    -0.323 N 
HETATM   14  H   UNL     1      41.411 -13.491   1.518  1.00  0.00     0.169 HD
HETATM   15  O   UNL     1      39.414 -15.861   2.280  1.00  0.00    -0.267 OA
BRANCH  13  16
HETATM   16  C   UNL     1      39.830 -13.738   0.218  1.00  0.00     0.035 A 
HETATM   17  C   UNL     1      39.742 -14.543  -0.919  1.00  0.00     0.029 A 
HETATM   18  C   UNL     1      38.986 -14.134  -2.022  1.00  0.00     0.002 A 
HETATM   19  C   UNL     1      38.314 -12.915  -2.000  1.00  0.00     0.000 A 
HETATM   20  C   UNL     1      38.393 -12.104  -0.871  1.00  0.00     0.002 A 
HETATM   21  C   UNL     1      39.143 -12.517   0.234  1.00  0.00     0.029 A 
ENDBRANCH  13  16
ENDBRANCH  10  12
BRANCH   1  22
HETATM   22  C   UNL     1      40.758 -13.410   4.863  1.00  0.00     0.015 A 
HETATM   23  C   UNL     1      41.691 -12.370   4.584  1.00  0.00     0.061 A 
HETATM   24  C   UNL     1      43.072 -12.496   4.053  1.00  0.00     0.073 C 
HETATM   25  N   UNL     1      41.181 -11.160   4.841  1.00  0.00    -0.178 NA
HETATM   26  N   UNL     1      39.925 -11.408   5.238  1.00  0.00    -0.284 N 
HETATM   27  C   UNL     1      39.043 -10.313   5.557  1.00  0.00     0.179 C 
HETATM   28  C   UNL     1      39.624 -12.736   5.287  1.00  0.00     0.123 A 
ENDBRANCH   1  22
TORSDOF 3
ENDMDL
MODEL 7
REMARK VINA RESULT:      -7.2      2.362      5.997
REMARK  3 active torsions:
REMARK  status: ('A' for Active; 'I' for Inactive)
REMARK    1  A    between atoms: C_7  and  C_8 
REMARK    2  A    between atoms: C_17  and  C_18 
REMARK       I    between atoms: C_18  and  N_19 
REMARK    3  A    between atoms: N_19  and  C_20 
ROOT
HETATM    1  C   UNL     1      42.513 -13.099   4.227  1.00  0.00     0.206 C 
HETATM    2  N   UNL     1      43.224 -12.307   5.233  1.00  0.00    -0.084 N 
HETATM    3  C   UNL     1      42.609 -11.661   6.272  1.00  0.00     0.725 A 
HETATM    4  N   UNL     1      43.508 -11.035   6.989  1.00  0.00    -0.054 NA
HETATM    5  C   UNL     1      44.671 -11.296   6.311  1.00  0.00     0.275 A 
HETATM    6  N   UNL     1      44.550 -12.048   5.211  1.00  0.00    -0.149 NA
HETATM    7  N   UNL     1      41.266 -11.704   6.377  1.00  0.00    -0.192 N 
HETATM    8  C   UNL     1      40.449 -12.215   5.373  1.00  0.00     0.037 C 
HETATM    9  C   UNL     1      38.985 -11.872   5.493  1.00  0.00     0.070 C 
HETATM   10  C   UNL     1      41.004 -12.901   4.342  1.00  0.00     0.063 C 
HETATM   11  H   UNL     1      40.832 -11.109   7.079  1.00  0.00     0.184 HD
ENDROOT
BRANCH  10  12
HETATM   12  C   UNL     1      40.244 -13.407   3.168  1.00  0.00     0.256 C 
HETATM   13  N   UNL     1      40.269 -12.556   2.085  1.00  0.00    -0.323 N 
HETATM   14  H   UNL     1      40.751 -11.674   2.202  1.00  0.00     0.169 HD
HETATM   15  O   UNL     1      39.660 -14.478   3.267  1.00  0.00    -0.267 OA
BRANCH  13  16
HETATM   16  C   UNL     1      39.737 -12.794   0.800  1.00  0.00     0.035 A 
HETATM   17  C   UNL     1      38.737 -12.016   0.213  1.00  0.00     0.029 A 
HETATM   18  C   UNL     1      38.242 -12.335  -1.056  1.00  0.00     0.002 A 
HETATM   19  C   UNL     1      38.738 -13.437  -1.747  1.00  0.00     0.000 A 
HETATM   20  C   UNL     1      39.736 -14.219  -1.172  1.00  0.00     0.002 A 
HETATM   21  C   UNL     1      40.236 -13.896   0.092  1.00  0.00     0.029 A 
ENDBRANCH  13  16
ENDBRANCH  10  12
BRANCH   1  22
HETATM   22  C   UNL     1      42.912 -14.545   4.377  1.00  0.00     0.015 A 
HETATM   23  C   UNL     1      43.265 -15.449   3.333  1.00  0.00     0.061 A 
HETATM   24  C   UNL     1      43.327 -15.184   1.873  1.00  0.00     0.073 C 
HETATM   25  N   UNL     1      43.583 -16.659   3.807  1.00  0.00    -0.178 NA
HETATM   26  N   UNL     1      43.481 -16.531   5.137  1.00  0.00    -0.284 N 
HETATM   27  C   UNL     1      43.805 -17.644   5.994  1.00  0.00     0.179 C 
HETATM   28  C   UNL     1      43.067 -15.294   5.532  1.00  0.00     0.123 A 
ENDBRANCH   1  22
TORSDOF 3
ENDMDL
MODEL 8
REMARK VINA RESULT:      -7.1      2.230      6.143
REMARK  3 active torsions:
REMARK  status: ('A' for Active; 'I' for Inactive)
REMARK    1  A    between atoms: C_7  and  C_8 
REMARK    2  A    between atoms: C_17  and  C_18 
REMARK       I    between atoms: C_18  and  N_19 
REMARK    3  A    between atoms: N_19  and  C_20 
ROOT
HETATM    1  C   UNL     1      40.850 -14.014   3.934  1.00  0.00     0.206 C 
HETATM    2  N   UNL     1      41.137 -14.961   5.015  1.00  0.00    -0.084 N 
HETATM    3  C   UNL     1      42.191 -15.834   5.006  1.00  0.00     0.725 A 
HETATM    4  N   UNL     1      42.174 -16.550   6.101  1.00  0.00    -0.054 NA
HETATM    5  C   UNL     1      41.046 -16.101   6.738  1.00  0.00     0.275 A 
HETATM    6  N   UNL     1      40.356 -15.147   6.101  1.00  0.00    -0.149 NA
HETATM    7  N   UNL     1      43.007 -15.878   3.934  1.00  0.00    -0.192 N 
HETATM    8  C   UNL     1      42.723 -15.212   2.745  1.00  0.00     0.037 C 
HETATM    9  C   UNL     1      43.539 -15.641   1.551  1.00  0.00     0.070 C 
HETATM   10  C   UNL     1      41.714 -14.304   2.711  1.00  0.00     0.063 C 
HETATM   11  H   UNL     1      43.698 -16.623   3.900  1.00  0.00     0.184 HD
ENDROOT
BRANCH  10  12
HETATM   12  C   UNL     1      41.259 -13.605   1.479  1.00  0.00     0.256 C 
HETATM   13  N   UNL     1      40.211 -14.233   0.843  1.00  0.00    -0.323 N 
HETATM   14  H   UNL     1      39.889 -15.107   1.238  1.00  0.00     0.169 HD
HETATM   15  O   UNL     1      41.848 -12.589   1.132  1.00  0.00    -0.267 OA
BRANCH  13  16
HETATM   16  C   UNL     1      39.494 -13.770  -0.281  1.00  0.00     0.035 A 
HETATM   17  C   UNL     1      38.875 -12.520  -0.352  1.00  0.00     0.029 A 
HETATM   18  C   UNL     1      38.157 -12.147  -1.493  1.00  0.00     0.002 A 
HETATM   19  C   UNL     1      38.048 -13.021  -2.571  1.00  0.00     0.000 A 
HETATM   20  C   UNL     1      38.663 -14.268  -2.513  1.00  0.00     0.002 A 
HETATM   21  C   UNL     1      39.386 -14.639  -1.375  1.00  0.00     0.029 A 
ENDBRANCH  13  16
ENDBRANCH  10  12
BRANCH   1  22
HETATM   22  C   UNL     1      41.044 -12.613   4.453  1.00  0.00     0.015 A 
HETATM   23  C   UNL     1      40.232 -11.475   4.174  1.00  0.00     0.061 A 
HETATM   24  C   UNL     1      39.017 -11.404   3.322  1.00  0.00     0.073 C 
HETATM   25  N   UNL     1      40.672 -10.380   4.805  1.00  0.00    -0.178 NA
HETATM   26  N   UNL     1      41.724 -10.809   5.516  1.00  0.00    -0.284 N 
HETATM   27  C   UNL     1      42.432  -9.893   6.376  1.00  0.00     0.179 C 
HETATM   28  C   UNL     1      42.002 -12.130   5.330  1.00  0.00     0.123 A 
ENDBRANCH   1  22
TORSDOF 3
ENDMDL
MODEL 9
REMARK VINA RESULT:      -7.0      4.583      7.236
REMARK  3 active torsions:
REMARK  status: ('A' for Active; 'I' for Inactive)
REMARK    1  A    between atoms: C_7  and  C_8 
REMARK    2  A    between atoms: C_17  and  C_18 
REMARK       I    between atoms: C_18  and  N_19 
REMARK    3  A    between atoms: N_19  and  C_20 
ROOT
HETATM    1  C   UNL     1      43.039  -9.550   7.098  1.00  0.00     0.206 C 
HETATM    2  N   UNL     1      42.280  -8.310   7.287  1.00  0.00    -0.084 N 
HETATM    3  C   UNL     1      40.934  -8.197   7.067  1.00  0.00     0.725 A 
HETATM    4  N   UNL     1      40.553  -6.970   7.314  1.00  0.00    -0.054 NA
HETATM    5  C   UNL     1      41.731  -6.349   7.644  1.00  0.00     0.275 A 
HETATM    6  N   UNL     1      42.825  -7.119   7.615  1.00  0.00    -0.149 NA
HETATM    7  N   UNL     1      40.245  -9.261   6.608  1.00  0.00    -0.192 N 
HETATM    8  C   UNL     1      40.868 -10.424   6.162  1.00  0.00     0.037 C 
HETATM    9  C   UNL     1      39.993 -11.362   5.368  1.00  0.00     0.070 C 
HETATM   10  C   UNL     1      42.193 -10.605   6.392  1.00  0.00     0.063 C 
HETATM   11  H   UNL     1      39.279  -9.111   6.332  1.00  0.00     0.184 HD
ENDROOT
BRANCH  10  12
HETATM   12  C   UNL     1      42.982 -11.758   5.880  1.00  0.00     0.256 C 
HETATM   13  N   UNL     1      42.568 -12.974   6.378  1.00  0.00    -0.323 N 
HETATM   14  H   UNL     1      41.819 -12.964   7.057  1.00  0.00     0.169 HD
HETATM   15  O   UNL     1      43.911 -11.536   5.116  1.00  0.00    -0.267 OA
BRANCH  13  16
HETATM   16  C   UNL     1      43.041 -14.252   6.010  1.00  0.00     0.035 A 
HETATM   17  C   UNL     1      43.930 -15.007   6.778  1.00  0.00     0.029 A 
HETATM   18  C   UNL     1      44.374 -16.255   6.329  1.00  0.00     0.002 A 
HETATM   19  C   UNL     1      43.937 -16.758   5.106  1.00  0.00     0.000 A 
HETATM   20  C   UNL     1      43.049 -16.015   4.333  1.00  0.00     0.002 A 
HETATM   21  C   UNL     1      42.599 -14.771   4.785  1.00  0.00     0.029 A 
ENDBRANCH  13  16
ENDBRANCH  10  12
BRANCH   1  22
HETATM   22  C   UNL     1      43.541 -10.021   8.438  1.00  0.00     0.015 A 
HETATM   23  C   UNL     1      44.863 -10.449   8.757  1.00  0.00     0.061 A 
HETATM   24  C   UNL     1      46.043 -10.526   7.857  1.00  0.00     0.073 C 
HETATM   25  N   UNL     1      44.980 -10.791  10.045  1.00  0.00    -0.178 NA
HETATM   26  N   UNL     1      43.769 -10.547  10.563  1.00  0.00    -0.284 N 
HETATM   27  C   UNL     1      43.534 -10.757  11.971  1.00  0.00     0.179 C 
HETATM   28  C   UNL     1      42.865 -10.103   9.645  1.00  0.00     0.123 A 
ENDBRANCH   1  22
TORSDOF 3
ENDMDL
MODEL 10
REMARK VINA RESULT:      -6.9      2.172      4.883
REMARK  3 active torsions:
REMARK  status: ('A' for Active; 'I' for Inactive)
REMARK    1  A    between atoms: C_7  and  C_8 
REMARK    2  A    between atoms: C_17  and  C_18 
REMARK       I    between atoms: C_18  and  N_19 
REMARK    3  A    between atoms: N_19  and  C_20 
ROOT
HETATM    1  C   UNL     1      41.282 -12.827   0.349  1.00  0.00     0.206 C 
HETATM    2  N   UNL     1      40.393 -13.296  -0.716  1.00  0.00    -0.084 N 
HETATM    3  C   UNL     1      39.642 -14.437  -0.638  1.00  0.00     0.725 A 
HETATM    4  N   UNL     1      38.962 -14.589  -1.747  1.00  0.00    -0.054 NA
HETATM    5  C   UNL     1      39.372 -13.521  -2.501  1.00  0.00     0.275 A 
HETATM    6  N   UNL     1      40.271 -12.711  -1.928  1.00  0.00    -0.149 NA
HETATM    7  N   UNL     1      39.737 -15.220   0.455  1.00  0.00    -0.192 N 
HETATM    8  C   UNL     1      40.707 -15.028   1.435  1.00  0.00     0.037 C 
HETATM    9  C   UNL     1      40.897 -16.179   2.392  1.00  0.00     0.070 C 
HETATM   10  C   UNL     1      41.450 -13.892   1.428  1.00  0.00     0.063 C 
HETATM   11  H   UNL     1      39.270 -16.123   0.428  1.00  0.00     0.184 HD
ENDROOT
BRANCH  10  12
HETATM   12  C   UNL     1      42.575 -13.623   2.363  1.00  0.00     0.256 C 
HETATM   13  N   UNL     1      42.192 -12.973   3.516  1.00  0.00    -0.323 N 
HETATM   14  H   UNL     1      41.218 -12.710   3.595  1.00  0.00     0.169 HD
HETATM   15  O   UNL     1      43.704 -13.960   2.031  1.00  0.00    -0.267 OA
BRANCH  13  16
HETATM   16  C   UNL     1      42.998 -12.671   4.634  1.00  0.00     0.035 A 
HETATM   17  C   UNL     1      43.929 -11.631   4.668  1.00  0.00     0.029 A 
HETATM   18  C   UNL     1      44.711 -11.414   5.806  1.00  0.00     0.002 A 
HETATM   19  C   UNL     1      44.574 -12.238   6.920  1.00  0.00     0.000 A 
HETATM   20  C   UNL     1      43.648 -13.278   6.899  1.00  0.00     0.002 A 
HETATM   21  C   UNL     1      42.861 -13.489   5.764  1.00  0.00     0.029 A 
ENDBRANCH  13  16
ENDBRANCH  10  12
BRANCH   1  22
HETATM   22  C   UNL     1      40.738 -11.534   0.902  1.00  0.00     0.015 A 
HETATM   23  C   UNL     1      39.592 -11.373   1.733  1.00  0.00     0.061 A 
HETATM   24  C   UNL     1      38.678 -12.425   2.249  1.00  0.00     0.073 C 
HETATM   25  N   UNL     1      39.389 -10.091   2.061  1.00  0.00    -0.178 NA
HETATM   26  N   UNL     1      40.410  -9.439   1.489  1.00  0.00    -0.284 N 
HETATM   27  C   UNL     1      40.548  -8.015   1.675  1.00  0.00     0.179 C 
HETATM   28  C   UNL     1      41.237 -10.249   0.770  1.00  0.00     0.123 A 
ENDBRANCH   1  22
TORSDOF 3
ENDMDL
