MODEL 1
REMARK VINA RESULT:      -8.0      0.000      0.000
REMARK  4 active torsions:
REMARK  status: ('A' for Active; 'I' for Inactive)
REMARK    1  A    between atoms: C_2  and  O_3 
REMARK    2  A    between atoms: O_3  and  C_4 
REMARK    3  A    between atoms: C_9  and  C_10 
REMARK       I    between atoms: C_10  and  N_11 
REMARK    4  A    between atoms: N_11  and  C_12 
ROOT
HETATM    1  C   UNL     1      43.229 -11.948   3.134  1.00  0.00     0.276 C 
HETATM    2  N   UNL     1      43.550 -13.284   2.929  1.00  0.00    -0.350 N 
HETATM    3  O   UNL     1      42.788 -11.236   2.239  1.00  0.00    -0.265 OA
HETATM    4  H   UNL     1      43.750 -13.743   3.818  1.00  0.00     0.163 HD
ENDROOT
BRANCH   1   5
HETATM    5  C   UNL     1      43.475 -11.488   4.486  1.00  0.00     0.150 A 
HETATM    6  O   UNL     1      44.771 -11.460   4.934  1.00  0.00    -0.304 OA
HETATM    7  C   UNL     1      44.740 -11.077   6.237  1.00  0.00     0.087 A 
HETATM    8  C   UNL     1      43.434 -10.828   6.637  1.00  0.00     0.009 A 
HETATM    9  C   UNL     1      45.849 -10.960   7.069  1.00  0.00     0.041 A 
HETATM   10  C   UNL     1      43.205 -10.430   7.972  1.00  0.00     0.051 A 
HETATM   11  C   UNL     1      42.614 -11.075   5.493  1.00  0.00    -0.009 A 
HETATM   12  C   UNL     1      44.295 -10.317   8.846  1.00  0.00     0.069 A 
HETATM   13  C   UNL     1      45.593 -10.574   8.389  1.00  0.00     0.039 A 
HETATM   14  C   UNL     1      41.136 -10.949   5.404  1.00  0.00     0.052 C 
BRANCH  12  15
HETATM   15  O   UNL     1      44.222  -9.964  10.167  1.00  0.00    -0.351 OA
BRANCH  15  16
HETATM   16  C   UNL     1      43.600  -8.718  10.478  1.00  0.00     0.171 C 
HETATM   17  C   UNL     1      43.586  -8.563  11.988  1.00  0.00     0.034 C 
ENDBRANCH  15  16
ENDBRANCH  12  15
ENDBRANCH   1   5
BRANCH   2  18
HETATM   18  C   UNL     1      42.967 -14.123   1.889  1.00  0.00     0.089 C 
HETATM   19  C   UNL     1      41.434 -14.104   1.967  1.00  0.00     0.063 C 
HETATM   20  C   UNL     1      40.824 -15.007   3.055  1.00  0.00     0.121 C 
HETATM   21  C   UNL     1      40.930 -14.427   4.469  1.00  0.00     0.046 C 
HETATM   22  C   UNL     1      39.325 -15.216   2.752  1.00  0.00     0.046 C 
HETATM   23  N   UNL     1      41.451 -16.384   3.005  1.00  0.00    -0.059 N 
HETATM   24  H   UNL     1      41.018 -16.889   2.219  1.00  0.00     0.279 HD
HETATM   25  H   UNL     1      41.155 -16.915   3.837  1.00  0.00     0.279 HD
HETATM   26  C   UNL     1      42.953 -16.535   2.851  1.00  0.00     0.121 C 
HETATM   27  C   UNL     1      43.186 -17.986   2.379  1.00  0.00     0.046 C 
HETATM   28  C   UNL     1      43.638 -16.382   4.212  1.00  0.00     0.046 C 
HETATM   29  C   UNL     1      43.445 -15.576   1.764  1.00  0.00     0.063 C 
ENDBRANCH   2  18
TORSDOF 4
ENDMDL
MODEL 2
REMARK VINA RESULT:      -7.8      4.103      7.234
REMARK  4 active torsions:
REMARK  status: ('A' for Active; 'I' for Inactive)
REMARK    1  A    between atoms: C_2  and  O_3 
REMARK    2  A    between atoms: O_3  and  C_4 
REMARK    3  A    between atoms: C_9  and  C_10 
REMARK       I    between atoms: C_10  and  N_11 
REMARK    4  A    between atoms: N_11  and  C_12 
ROOT
HETATM    1  C   UNL     1      41.527 -12.214   1.344  1.00  0.00     0.276 C 
HETATM    2  N   UNL     1      40.643 -12.507   0.313  1.00  0.00    -0.350 N 
HETATM    3  O   UNL     1      41.847 -11.064   1.625  1.00  0.00    -0.265 OA
HETATM    4  H   UNL     1      40.386 -13.494   0.335  1.00  0.00     0.163 HD
ENDROOT
BRANCH   1   5
HETATM    5  C   UNL     1      42.033 -13.384   2.032  1.00  0.00     0.150 A 
HETATM    6  O   UNL     1      42.366 -14.483   1.282  1.00  0.00    -0.304 OA
HETATM    7  C   UNL     1      42.731 -15.467   2.146  1.00  0.00     0.087 A 
HETATM    8  C   UNL     1      42.665 -15.010   3.455  1.00  0.00     0.009 A 
HETATM    9  C   UNL     1      43.107 -16.756   1.785  1.00  0.00     0.041 A 
HETATM   10  C   UNL     1      42.997 -15.904   4.496  1.00  0.00     0.051 A 
HETATM   11  C   UNL     1      42.231 -13.650   3.380  1.00  0.00    -0.009 A 
HETATM   12  C   UNL     1      43.365 -17.218   4.174  1.00  0.00     0.069 A 
HETATM   13  C   UNL     1      43.422 -17.626   2.835  1.00  0.00     0.039 A 
HETATM   14  C   UNL     1      42.004 -12.717   4.515  1.00  0.00     0.052 C 
BRANCH  12  15
HETATM   15  O   UNL     1      43.691 -18.196   5.074  1.00  0.00    -0.351 OA
BRANCH  15  16
HETATM   16  C   UNL     1      44.328 -19.367   4.566  1.00  0.00     0.171 C 
HETATM   17  C   UNL     1      43.972 -20.529   5.475  1.00  0.00     0.034 C 
ENDBRANCH  15  16
ENDBRANCH  12  15
ENDBRANCH   1   5
BRANCH   2  18
HETATM   18  C   UNL     1      39.631 -11.589  -0.193  1.00  0.00     0.089 C 
HETATM   19  C   UNL     1      38.396 -12.355  -0.687  1.00  0.00     0.063 C 
HETATM   20  C   UNL     1      38.535 -12.991  -2.082  1.00  0.00     0.121 C 
HETATM   21  C   UNL     1      39.371 -14.275  -2.094  1.00  0.00     0.046 C 
HETATM   22  C   UNL     1      37.131 -13.348  -2.615  1.00  0.00     0.046 C 
HETATM   23  N   UNL     1      39.105 -11.986  -3.060  1.00  0.00    -0.059 N 
HETATM   24  H   UNL     1      38.339 -11.352  -3.328  1.00  0.00     0.279 HD
HETATM   25  H   UNL     1      39.346 -12.473  -3.937  1.00  0.00     0.279 HD
HETATM   26  C   UNL     1      40.280 -11.112  -2.662  1.00  0.00     0.121 C 
HETATM   27  C   UNL     1      40.293  -9.938  -3.664  1.00  0.00     0.046 C 
HETATM   28  C   UNL     1      41.591 -11.881  -2.842  1.00  0.00     0.046 C 
HETATM   29  C   UNL     1      40.039 -10.559  -1.254  1.00  0.00     0.063 C 
ENDBRANCH   2  18
TORSDOF 4
ENDMDL
MODEL 3
REMARK VINA RESULT:      -7.7      2.109      3.157
REMARK  4 active torsions:
REMARK  status: ('A' for Active; 'I' for Inactive)
REMARK    1  A    between atoms: C_2  and  O_3 
REMARK    2  A    between atoms: O_3  and  C_4 
REMARK    3  A    between atoms: C_9  and  C_10 
REMARK       I    between atoms: C_10  and  N_11 
REMARK    4  A    between atoms: N_11  and  C_12 
ROOT
HETATM    1  C   UNL     1      44.019 -11.489   6.065  1.00  0.00     0.276 C 
HETATM    2  N   UNL     1      43.152 -12.547   5.823  1.00  0.00    -0.350 N 
HETATM    3  O   UNL     1      44.938 -11.209   5.303  1.00  0.00    -0.265 OA
HETATM    4  H   UNL     1      42.371 -12.524   6.479  1.00  0.00     0.163 HD
ENDROOT
BRANCH   1   5
HETATM    5  C   UNL     1      43.740 -10.771   7.292  1.00  0.00     0.150 A 
HETATM    6  O   UNL     1      44.408 -11.149   8.429  1.00  0.00    -0.304 OA
HETATM    7  C   UNL     1      43.923 -10.396   9.451  1.00  0.00     0.087 A 
HETATM    8  C   UNL     1      42.962  -9.510   8.986  1.00  0.00     0.009 A 
HETATM    9  C   UNL     1      44.316 -10.497  10.782  1.00  0.00     0.041 A 
HETATM   10  C   UNL     1      42.334  -8.651   9.915  1.00  0.00     0.051 A 
HETATM   11  C   UNL     1      42.857  -9.739   7.579  1.00  0.00    -0.009 A 
HETATM   12  C   UNL     1      42.690  -8.734  11.268  1.00  0.00     0.069 A 
HETATM   13  C   UNL     1      43.672  -9.642  11.684  1.00  0.00     0.039 A 
HETATM   14  C   UNL     1      41.963  -9.040   6.620  1.00  0.00     0.052 C 
BRANCH  12  15
HETATM   15  O   UNL     1      42.153  -7.984  12.279  1.00  0.00    -0.351 OA
BRANCH  15  16
HETATM   16  C   UNL     1      42.548  -8.305  13.612  1.00  0.00     0.171 C 
HETATM   17  C   UNL     1      43.163  -7.064  14.233  1.00  0.00     0.034 C 
ENDBRANCH  15  16
ENDBRANCH  12  15
ENDBRANCH   1   5
BRANCH   2  18
HETATM   18  C   UNL     1      42.869 -13.097   4.504  1.00  0.00     0.089 C 
HETATM   19  C   UNL     1      41.773 -12.286   3.798  1.00  0.00     0.063 C 
HETATM   20  C   UNL     1      40.335 -12.596   4.250  1.00  0.00     0.121 C 
HETATM   21  C   UNL     1      39.965 -11.972   5.599  1.00  0.00     0.046 C 
HETATM   22  C   UNL     1      39.347 -12.046   3.199  1.00  0.00     0.046 C 
HETATM   23  N   UNL     1      40.108 -14.092   4.286  1.00  0.00    -0.059 N 
HETATM   24  H   UNL     1      39.964 -14.403   3.314  1.00  0.00     0.279 HD
HETATM   25  H   UNL     1      39.206 -14.282   4.746  1.00  0.00     0.279 HD
HETATM   26  C   UNL     1      41.155 -15.010   4.890  1.00  0.00     0.121 C 
HETATM   27  C   UNL     1      40.837 -16.424   4.356  1.00  0.00     0.046 C 
HETATM   28  C   UNL     1      41.001 -15.052   6.412  1.00  0.00     0.046 C 
HETATM   29  C   UNL     1      42.540 -14.592   4.387  1.00  0.00     0.063 C 
ENDBRANCH   2  18
TORSDOF 4
ENDMDL
MODEL 4
REMARK VINA RESULT:      -7.6      4.200      6.533
REMARK  4 active torsions:
REMARK  status: ('A' for Active; 'I' for Inactive)
REMARK    1  A    between atoms: C_2  and  O_3 
REMARK    2  A    between atoms: O_3  and  C_4 
REMARK    3  A    between atoms: C_9  and  C_10 
REMARK       I    between atoms: C_10  and  N_11 
REMARK    4  A    between atoms: N_11  and  C_12 
ROOT
HETATM    1  C   UNL     1      42.786 -12.791   2.629  1.00  0.00     0.276 C 
HETATM    2  N   UNL     1      42.068 -12.861   1.441  1.00  0.00    -0.350 N 
HETATM    3  O   UNL     1      43.312 -11.753   3.015  1.00  0.00    -0.265 OA
HETATM    4  H   UNL     1      41.583 -13.755   1.371  1.00  0.00     0.163 HD
ENDROOT
BRANCH   1   5
HETATM    5  C   UNL     1      42.859 -14.049   3.344  1.00  0.00     0.150 A 
HETATM    6  O   UNL     1      42.643 -14.037   4.699  1.00  0.00    -0.304 OA
HETATM    7  C   UNL     1      42.845 -15.302   5.151  1.00  0.00     0.087 A 
HETATM    8  C   UNL     1      43.163 -16.147   4.098  1.00  0.00     0.009 A 
HETATM    9  C   UNL     1      42.759 -15.705   6.479  1.00  0.00     0.041 A 
HETATM   10  C   UNL     1      43.421 -17.507   4.381  1.00  0.00     0.051 A 
HETATM   11  C   UNL     1      43.152 -15.337   2.920  1.00  0.00    -0.009 A 
HETATM   12  C   UNL     1      43.361 -17.948   5.710  1.00  0.00     0.069 A 
HETATM   13  C   UNL     1      43.029 -17.054   6.735  1.00  0.00     0.039 A 
HETATM   14  C   UNL     1      43.431 -15.775   1.527  1.00  0.00     0.052 C 
BRANCH  12  15
HETATM   15  O   UNL     1      43.607 -19.226   6.135  1.00  0.00    -0.351 OA
BRANCH  15  16
HETATM   16  C   UNL     1      44.381 -20.064   5.277  1.00  0.00     0.171 C 
HETATM   17  C   UNL     1      43.581 -21.323   5.002  1.00  0.00     0.034 C 
ENDBRANCH  15  16
ENDBRANCH  12  15
ENDBRANCH   1   5
BRANCH   2  18
HETATM   18  C   UNL     1      41.419 -11.724   0.801  1.00  0.00     0.089 C 
HETATM   19  C   UNL     1      40.323 -11.141   1.705  1.00  0.00     0.063 C 
HETATM   20  C   UNL     1      38.994 -11.916   1.706  1.00  0.00     0.121 C 
HETATM   21  C   UNL     1      39.031 -13.204   2.536  1.00  0.00     0.046 C 
HETATM   22  C   UNL     1      37.887 -11.017   2.296  1.00  0.00     0.046 C 
HETATM   23  N   UNL     1      38.565 -12.221   0.286  1.00  0.00    -0.059 N 
HETATM   24  H   UNL     1      38.162 -11.357  -0.104  1.00  0.00     0.279 HD
HETATM   25  H   UNL     1      37.770 -12.878   0.312  1.00  0.00     0.279 HD
HETATM   26  C   UNL     1      39.574 -12.731  -0.725  1.00  0.00     0.121 C 
HETATM   27  C   UNL     1      38.941 -12.491  -2.113  1.00  0.00     0.046 C 
HETATM   28  C   UNL     1      39.761 -14.242  -0.564  1.00  0.00     0.046 C 
HETATM   29  C   UNL     1      40.857 -11.902  -0.616  1.00  0.00     0.063 C 
ENDBRANCH   2  18
TORSDOF 4
ENDMDL
MODEL 5
REMARK VINA RESULT:      -7.5      3.367      7.883
REMARK  4 active torsions:
REMARK  status: ('A' for Active; 'I' for Inactive)
REMARK    1  A    between atoms: C_2  and  O_3 
REMARK    2  A    between atoms: O_3  and  C_4 
REMARK    3  A    between atoms: C_9  and  C_10 
REMARK       I    between atoms: C_10  and  N_11 
REMARK    4  A    between atoms: N_11  and  C_12 
ROOT
HETATM    1  C   UNL     1      40.370 -13.881   5.760  1.00  0.00     0.276 C 
HETATM    2  N   UNL     1      40.513 -12.659   5.115  1.00  0.00    -0.350 N 
HETATM    3  O   UNL     1      39.601 -14.038   6.702  1.00  0.00    -0.265 OA
HETATM    4  H   UNL     1      41.074 -12.766   4.270  1.00  0.00     0.163 HD
ENDROOT
BRANCH   1   5
HETATM    5  C   UNL     1      41.214 -14.929   5.222  1.00  0.00     0.150 A 
HETATM    6  O   UNL     1      41.081 -15.252   3.896  1.00  0.00    -0.304 OA
HETATM    7  C   UNL     1      41.906 -16.303   3.651  1.00  0.00     0.087 A 
HETATM    8  C   UNL     1      42.599 -16.653   4.802  1.00  0.00     0.009 A 
HETATM    9  C   UNL     1      42.040 -16.954   2.429  1.00  0.00     0.041 A 
HETATM   10  C   UNL     1      43.499 -17.739   4.740  1.00  0.00     0.051 A 
HETATM   11  C   UNL     1      42.164 -15.747   5.818  1.00  0.00    -0.009 A 
HETATM   12  C   UNL     1      43.649 -18.432   3.531  1.00  0.00     0.069 A 
HETATM   13  C   UNL     1      42.930 -18.034   2.397  1.00  0.00     0.039 A 
HETATM   14  C   UNL     1      42.612 -15.706   7.235  1.00  0.00     0.052 C 
BRANCH  12  15
HETATM   15  O   UNL     1      44.464 -19.513   3.329  1.00  0.00    -0.351 OA
BRANCH  15  16
HETATM   16  C   UNL     1      43.881 -20.808   3.472  1.00  0.00     0.171 C 
HETATM   17  C   UNL     1      43.863 -21.156   4.949  1.00  0.00     0.034 C 
ENDBRANCH  15  16
ENDBRANCH  12  15
ENDBRANCH   1   5
BRANCH   2  18
HETATM   18  C   UNL     1      39.495 -11.617   5.085  1.00  0.00     0.089 C 
HETATM   19  C   UNL     1      39.572 -10.817   3.777  1.00  0.00     0.063 C 
HETATM   20  C   UNL     1      40.682  -9.751   3.727  1.00  0.00     0.121 C 
HETATM   21  C   UNL     1      42.081 -10.328   3.488  1.00  0.00     0.046 C 
HETATM   22  C   UNL     1      40.384  -8.767   2.575  1.00  0.00     0.046 C 
HETATM   23  N   UNL     1      40.667  -8.920   4.993  1.00  0.00    -0.059 N 
HETATM   24  H   UNL     1      39.894  -8.246   4.907  1.00  0.00     0.279 HD
HETATM   25  H   UNL     1      41.513  -8.331   5.014  1.00  0.00     0.279 HD
HETATM   26  C   UNL     1      40.518  -9.591   6.346  1.00  0.00     0.121 C 
HETATM   27  C   UNL     1      40.083  -8.478   7.324  1.00  0.00     0.046 C 
HETATM   28  C   UNL     1      41.874 -10.115   6.824  1.00  0.00     0.046 C 
HETATM   29  C   UNL     1      39.407 -10.642   6.266  1.00  0.00     0.063 C 
ENDBRANCH   2  18
TORSDOF 4
ENDMDL
MODEL 6
REMARK VINA RESULT:      -7.4      3.525      7.047
REMARK  4 active torsions:
REMARK  status: ('A' for Active; 'I' for Inactive)
REMARK    1  A    between atoms: C_2  and  O_3 
REMARK    2  A    between atoms: O_3  and  C_4 
REMARK    3  A    between atoms: C_9  and  C_10 
REMARK       I    between atoms: C_10  and  N_11 
REMARK    4  A    between atoms: N_11  and  C_12 
ROOT
HETATM    1  C   UNL     1      42.895 -11.673   3.537  1.00  0.00     0.276 C 
HETATM    2  N   UNL     1      41.744 -11.236   2.893  1.00  0.00    -0.350 N 
HETATM    3  O   UNL     1      43.694 -10.897   4.049  1.00  0.00    -0.265 OA
HETATM    4  H   UNL     1      41.138 -12.026   2.673  1.00  0.00     0.163 HD
ENDROOT
BRANCH   1   5
HETATM    5  C   UNL     1      43.059 -13.113   3.531  1.00  0.00     0.150 A 
HETATM    6  O   UNL     1      43.206 -13.743   2.321  1.00  0.00    -0.304 OA
HETATM    7  C   UNL     1      43.258 -15.078   2.565  1.00  0.00     0.087 A 
HETATM    8  C   UNL     1      43.173 -15.325   3.928  1.00  0.00     0.009 A 
HETATM    9  C   UNL     1      43.368 -16.070   1.596  1.00  0.00     0.041 A 
HETATM   10  C   UNL     1      43.198 -16.666   4.371  1.00  0.00     0.051 A 
HETATM   11  C   UNL     1      43.065 -14.047   4.558  1.00  0.00    -0.009 A 
HETATM   12  C   UNL     1      43.290 -17.695   3.424  1.00  0.00     0.069 A 
HETATM   13  C   UNL     1      43.379 -17.390   2.059  1.00  0.00     0.039 A 
HETATM   14  C   UNL     1      42.948 -13.771   6.013  1.00  0.00     0.052 C 
BRANCH  12  15
HETATM   15  O   UNL     1      43.302 -19.034   3.703  1.00  0.00    -0.351 OA
BRANCH  15  16
HETATM   16  C   UNL     1      44.390 -19.531   4.481  1.00  0.00     0.171 C 
HETATM   17  C   UNL     1      43.818 -20.382   5.601  1.00  0.00     0.034 C 
ENDBRANCH  15  16
ENDBRANCH  12  15
ENDBRANCH   1   5
BRANCH   2  18
HETATM   18  C   UNL     1      41.078  -9.969   3.164  1.00  0.00     0.089 C 
HETATM   19  C   UNL     1      40.564  -9.920   4.610  1.00  0.00     0.063 C 
HETATM   20  C   UNL     1      39.249 -10.681   4.863  1.00  0.00     0.121 C 
HETATM   21  C   UNL     1      39.422 -12.201   4.947  1.00  0.00     0.046 C 
HETATM   22  C   UNL     1      38.645 -10.209   6.203  1.00  0.00     0.046 C 
HETATM   23  N   UNL     1      38.228 -10.328   3.803  1.00  0.00    -0.059 N 
HETATM   24  H   UNL     1      37.843  -9.403   4.045  1.00  0.00     0.279 HD
HETATM   25  H   UNL     1      37.422 -10.965   3.890  1.00  0.00     0.279 HD
HETATM   26  C   UNL     1      38.633 -10.267   2.342  1.00  0.00     0.121 C 
HETATM   27  C   UNL     1      37.528  -9.455   1.630  1.00  0.00     0.046 C 
HETATM   28  C   UNL     1      38.627 -11.672   1.736  1.00  0.00     0.046 C 
HETATM   29  C   UNL     1      39.959  -9.511   2.219  1.00  0.00     0.063 C 
ENDBRANCH   2  18
TORSDOF 4
ENDMDL
MODEL 7
REMARK VINA RESULT:      -7.4      1.996      3.111
REMARK  4 active torsions:
REMARK  status: ('A' for Active; 'I' for Inactive)
REMARK    1  A    between atoms: C_2  and  O_3 
REMARK    2  A    between atoms: O_3  and  C_4 
REMARK    3  A    between atoms: C_9  and  C_10 
REMARK       I    between atoms: C_10  and  N_11 
REMARK    4  A    between atoms: N_11  and  C_12 
ROOT
HETATM    1  C   UNL     1      40.789 -13.973   5.205  1.00  0.00     0.276 C 
HETATM    2  N   UNL     1      40.546 -13.828   3.844  1.00  0.00    -0.350 N 
HETATM    3  O   UNL     1      40.292 -14.878   5.865  1.00  0.00    -0.265 OA
HETATM    4  H   UNL     1      41.164 -13.121   3.446  1.00  0.00     0.163 HD
ENDROOT
BRANCH   1   5
HETATM    5  C   UNL     1      41.664 -12.958   5.755  1.00  0.00     0.150 A 
HETATM    6  O   UNL     1      43.004 -13.237   5.844  1.00  0.00    -0.304 OA
HETATM    7  C   UNL     1      43.597 -12.181   6.459  1.00  0.00     0.087 A 
HETATM    8  C   UNL     1      42.659 -11.201   6.749  1.00  0.00     0.009 A 
HETATM    9  C   UNL     1      44.949 -12.087   6.772  1.00  0.00     0.041 A 
HETATM   10  C   UNL     1      43.093 -10.028   7.405  1.00  0.00     0.051 A 
HETATM   11  C   UNL     1      41.405 -11.697   6.272  1.00  0.00    -0.009 A 
HETATM   12  C   UNL     1      44.444  -9.902   7.752  1.00  0.00     0.069 A 
HETATM   13  C   UNL     1      45.352 -10.919   7.431  1.00  0.00     0.039 A 
HETATM   14  C   UNL     1      40.086 -11.017   6.345  1.00  0.00     0.052 C 
BRANCH  12  15
HETATM   15  O   UNL     1      45.002  -8.838   8.407  1.00  0.00    -0.351 OA
BRANCH  15  16
HETATM   16  C   UNL     1      45.670  -9.104   9.640  1.00  0.00     0.171 C 
HETATM   17  C   UNL     1      44.616  -9.362  10.700  1.00  0.00     0.034 C 
ENDBRANCH  15  16
ENDBRANCH  12  15
ENDBRANCH   1   5
BRANCH   2  18
HETATM   18  C   UNL     1      40.153 -14.914   2.956  1.00  0.00     0.089 C 
HETATM   19  C   UNL     1      41.279 -15.950   2.829  1.00  0.00     0.063 C 
HETATM   20  C   UNL     1      42.421 -15.563   1.872  1.00  0.00     0.121 C 
HETATM   21  C   UNL     1      43.395 -14.536   2.458  1.00  0.00     0.046 C 
HETATM   22  C   UNL     1      43.236 -16.826   1.522  1.00  0.00     0.046 C 
HETATM   23  N   UNL     1      41.856 -15.060   0.561  1.00  0.00    -0.059 N 
HETATM   24  H   UNL     1      41.562 -15.884   0.018  1.00  0.00     0.279 HD
HETATM   25  H   UNL     1      42.621 -14.652   0.002  1.00  0.00     0.279 HD
HETATM   26  C   UNL     1      40.689 -14.090   0.552  1.00  0.00     0.121 C 
HETATM   27  C   UNL     1      40.093 -14.158  -0.870  1.00  0.00     0.046 C 
HETATM   28  C   UNL     1      41.193 -12.661   0.768  1.00  0.00     0.046 C 
HETATM   29  C   UNL     1      39.634 -14.565   1.555  1.00  0.00     0.063 C 
ENDBRANCH   2  18
TORSDOF 4
ENDMDL
MODEL 8
REMARK VINA RESULT:      -7.3      3.292      8.397
REMARK  4 active torsions:
REMARK  status: ('A' for Active; 'I' for Inactive)
REMARK    1  A    between atoms: C_2  and  O_3 
REMARK    2  A    between atoms: O_3  and  C_4 
REMARK    3  A    between atoms: C_9  and  C_10 
REMARK       I    between atoms: C_10  and  N_11 
REMARK    4  A    between atoms: N_11  and  C_12 
ROOT
HETATM    1  C   UNL     1      44.304 -11.251   7.939  1.00  0.00     0.276 C 
HETATM    2  N   UNL     1      43.306 -10.568   8.623  1.00  0.00    -0.350 N 
HETATM    3  O   UNL     1      45.486 -10.936   8.020  1.00  0.00    -0.265 OA
HETATM    4  H   UNL     1      42.420 -11.068   8.553  1.00  0.00     0.163 HD
ENDROOT
BRANCH   1   5
HETATM    5  C   UNL     1      43.813 -12.344   7.125  1.00  0.00     0.150 A 
HETATM    6  O   UNL     1      43.554 -13.543   7.738  1.00  0.00    -0.304 OA
HETATM    7  C   UNL     1      43.190 -14.423   6.769  1.00  0.00     0.087 A 
HETATM    8  C   UNL     1      43.182 -13.801   5.529  1.00  0.00     0.009 A 
HETATM    9  C   UNL     1      42.878 -15.763   6.974  1.00  0.00     0.041 A 
HETATM   10  C   UNL     1      42.838 -14.568   4.394  1.00  0.00     0.051 A 
HETATM   11  C   UNL     1      43.567 -12.444   5.762  1.00  0.00    -0.009 A 
HETATM   12  C   UNL     1      42.534 -15.926   4.557  1.00  0.00     0.069 A 
HETATM   13  C   UNL     1      42.551 -16.504   5.833  1.00  0.00     0.039 A 
HETATM   14  C   UNL     1      43.710 -11.365   4.750  1.00  0.00     0.052 C 
BRANCH  12  15
HETATM   15  O   UNL     1      42.207 -16.794   3.551  1.00  0.00    -0.351 OA
BRANCH  15  16
HETATM   16  C   UNL     1      43.235 -17.139   2.624  1.00  0.00     0.171 C 
HETATM   17  C   UNL     1      43.618 -18.588   2.863  1.00  0.00     0.034 C 
ENDBRANCH  15  16
ENDBRANCH  12  15
ENDBRANCH   1   5
BRANCH   2  18
HETATM   18  C   UNL     1      43.519  -9.804   9.845  1.00  0.00     0.089 C 
HETATM   19  C   UNL     1      42.313  -9.933  10.787  1.00  0.00     0.063 C 
HETATM   20  C   UNL     1      41.105  -9.049  10.428  1.00  0.00     0.121 C 
HETATM   21  C   UNL     1      40.279  -9.580   9.253  1.00  0.00     0.046 C 
HETATM   22  C   UNL     1      40.166  -8.959  11.650  1.00  0.00     0.046 C 
HETATM   23  N   UNL     1      41.558  -7.631  10.151  1.00  0.00    -0.059 N 
HETATM   24  H   UNL     1      41.729  -7.181  11.062  1.00  0.00     0.279 HD
HETATM   25  H   UNL     1      40.769  -7.100   9.754  1.00  0.00     0.279 HD
HETATM   26  C   UNL     1      42.785  -7.374   9.296  1.00  0.00     0.121 C 
HETATM   27  C   UNL     1      43.216  -5.922   9.600  1.00  0.00     0.046 C 
HETATM   28  C   UNL     1      42.414  -7.438   7.813  1.00  0.00     0.046 C 
HETATM   29  C   UNL     1      43.906  -8.324   9.728  1.00  0.00     0.063 C 
ENDBRANCH   2  18
TORSDOF 4
ENDMDL
MODEL 9
REMARK VINA RESULT:      -7.2      1.754      2.732
REMARK  4 active torsions:
REMARK  status: ('A' for Active; 'I' for Inactive)
REMARK    1  A    between atoms: C_2  and  O_3 
REMARK    2  A    between atoms: O_3  and  C_4 
REMARK    3  A    between atoms: C_9  and  C_10 
REMARK       I    between atoms: C_10  and  N_11 
REMARK    4  A    between atoms: N_11  and  C_12 
ROOT
HETATM    1  C   UNL     1      43.578 -11.619   4.250  1.00  0.00     0.276 C 
HETATM    2  N   UNL     1      42.467 -12.390   3.931  1.00  0.00    -0.350 N 
HETATM    3  O   UNL     1      44.490 -11.425   3.455  1.00  0.00    -0.265 OA
HETATM    4  H   UNL     1      41.756 -12.306   4.657  1.00  0.00     0.163 HD
ENDROOT
BRANCH   1   5
HETATM    5  C   UNL     1      43.555 -11.088   5.598  1.00  0.00     0.150 A 
HETATM    6  O   UNL     1      42.384 -10.541   6.058  1.00  0.00    -0.304 OA
HETATM    7  C   UNL     1      42.631 -10.043   7.298  1.00  0.00     0.087 A 
HETATM    8  C   UNL     1      43.948 -10.284   7.663  1.00  0.00     0.009 A 
HETATM    9  C   UNL     1      41.708  -9.373   8.095  1.00  0.00     0.041 A 
HETATM   10  C   UNL     1      44.391  -9.823   8.922  1.00  0.00     0.051 A 
HETATM   11  C   UNL     1      44.543 -10.982   6.567  1.00  0.00    -0.009 A 
HETATM   12  C   UNL     1      43.496  -9.129   9.747  1.00  0.00     0.069 A 
HETATM   13  C   UNL     1      42.175  -8.917   9.333  1.00  0.00     0.039 A 
HETATM   14  C   UNL     1      45.944 -11.467   6.466  1.00  0.00     0.052 C 
BRANCH  12  15
HETATM   15  O   UNL     1      43.790  -8.607  10.978  1.00  0.00    -0.351 OA
BRANCH  15  16
HETATM   16  C   UNL     1      43.029  -9.080  12.088  1.00  0.00     0.171 C 
HETATM   17  C   UNL     1      43.110  -8.042  13.192  1.00  0.00     0.034 C 
ENDBRANCH  15  16
ENDBRANCH  12  15
ENDBRANCH   1   5
BRANCH   2  18
HETATM   18  C   UNL     1      41.981 -12.616   2.576  1.00  0.00     0.089 C 
HETATM   19  C   UNL     1      40.714 -11.793   2.306  1.00  0.00     0.063 C 
HETATM   20  C   UNL     1      39.415 -12.383   2.885  1.00  0.00     0.121 C 
HETATM   21  C   UNL     1      39.261 -12.174   4.395  1.00  0.00     0.046 C 
HETATM   22  C   UNL     1      38.207 -11.709   2.200  1.00  0.00     0.046 C 
HETATM   23  N   UNL     1      39.312 -13.855   2.547  1.00  0.00    -0.059 N 
HETATM   24  H   UNL     1      39.010 -13.923   1.564  1.00  0.00     0.279 HD
HETATM   25  H   UNL     1      38.530 -14.266   3.078  1.00  0.00     0.279 HD
HETATM   26  C   UNL     1      40.520 -14.760   2.698  1.00  0.00     0.121 C 
HETATM   27  C   UNL     1      40.214 -16.019   1.858  1.00  0.00     0.046 C 
HETATM   28  C   UNL     1      40.661 -15.207   4.155  1.00  0.00     0.046 C 
HETATM   29  C   UNL     1      41.749 -14.060   2.111  1.00  0.00     0.063 C 
ENDBRANCH   2  18
TORSDOF 4
ENDMDL
MODEL 10
REMARK VINA RESULT:      -7.1      2.501      3.922
REMARK  4 active torsions:
REMARK  status: ('A' for Active; 'I' for Inactive)
REMARK    1  A    between atoms: C_2  and  O_3 
REMARK    2  A    between atoms: O_3  and  C_4 
REMARK    3  A    between atoms: C_9  and  C_10 
REMARK       I    between atoms: C_10  and  N_11 
REMARK    4  A    between atoms: N_11  and  C_12 
ROOT
HETATM    1  C   UNL     1      40.507 -14.064   5.414  1.00  0.00     0.276 C 
HETATM    2  N   UNL     1      40.226 -14.090   4.054  1.00  0.00    -0.350 N 
HETATM    3  O   UNL     1      40.395 -15.057   6.125  1.00  0.00    -0.265 OA
HETATM    4  H   UNL     1      40.525 -13.220   3.613  1.00  0.00     0.163 HD
ENDROOT
BRANCH   1   5
HETATM    5  C   UNL     1      40.926 -12.765   5.901  1.00  0.00     0.150 A 
HETATM    6  O   UNL     1      39.966 -11.804   6.090  1.00  0.00    -0.304 OA
HETATM    7  C   UNL     1      40.604 -10.665   6.465  1.00  0.00     0.087 A 
HETATM    8  C   UNL     1      41.972 -10.881   6.550  1.00  0.00     0.009 A 
HETATM    9  C   UNL     1      39.987  -9.444   6.720  1.00  0.00     0.041 A 
HETATM   10  C   UNL     1      42.802  -9.799   6.916  1.00  0.00     0.051 A 
HETATM   11  C   UNL     1      42.180 -12.252   6.203  1.00  0.00    -0.009 A 
HETATM   12  C   UNL     1      42.221  -8.548   7.163  1.00  0.00     0.069 A 
HETATM   13  C   UNL     1      40.833  -8.385   7.070  1.00  0.00     0.039 A 
HETATM   14  C   UNL     1      43.477 -12.976   6.145  1.00  0.00     0.052 C 
BRANCH  12  15
HETATM   15  O   UNL     1      42.899  -7.409   7.504  1.00  0.00    -0.351 OA
BRANCH  15  16
HETATM   16  C   UNL     1      42.257  -6.510   8.407  1.00  0.00     0.171 C 
HETATM   17  C   UNL     1      43.058  -6.485   9.696  1.00  0.00     0.034 C 
ENDBRANCH  15  16
ENDBRANCH  12  15
ENDBRANCH   1   5
BRANCH   2  18
HETATM   18  C   UNL     1      40.280 -15.285   3.222  1.00  0.00     0.089 C 
HETATM   19  C   UNL     1      41.729 -15.757   3.038  1.00  0.00     0.063 C 
HETATM   20  C   UNL     1      42.543 -14.976   1.990  1.00  0.00     0.121 C 
HETATM   21  C   UNL     1      43.023 -13.606   2.478  1.00  0.00     0.046 C 
HETATM   22  C   UNL     1      43.795 -15.796   1.611  1.00  0.00     0.046 C 
HETATM   23  N   UNL     1      41.746 -14.827   0.713  1.00  0.00    -0.059 N 
HETATM   24  H   UNL     1      41.798 -15.726   0.212  1.00  0.00     0.279 HD
HETATM   25  H   UNL     1      42.233 -14.165   0.090  1.00  0.00     0.279 HD
HETATM   26  C   UNL     1      40.280 -14.439   0.767  1.00  0.00     0.121 C 
HETATM   27  C   UNL     1      39.688 -14.826  -0.606  1.00  0.00     0.046 C 
HETATM   28  C   UNL     1      40.143 -12.922   0.911  1.00  0.00     0.046 C 
HETATM   29  C   UNL     1      39.583 -15.261   1.856  1.00  0.00     0.063 C 
ENDBRANCH   2  18
TORSDOF 4
ENDMDL
