MODEL 1
REMARK VINA RESULT:      -8.0      0.000      0.000
REMARK  9 active torsions:
REMARK  status: ('A' for Active; 'I' for Inactive)
REMARK    1  A    between atoms: C_5  and  C_6 
REMARK    2  A    between atoms: C_8  and  C_9 
REMARK    3  A    between atoms: C_9  and  C_10 
REMARK       I    between atoms: C_10  and  N_11 
REMARK    4  A    between atoms: N_11  and  C_12 
REMARK    5  A    between atoms: C_12  and  C_13 
REMARK    6  A    between atoms: C_13  and  N_14 
REMARK    7  A    between atoms: C_28  and  C_29 
REMARK    8  A    between atoms: C_29  and  O_30 
REMARK    9  A    between atoms: O_30  and  C_31 
ROOT
HETATM    1  C   UNL     1      43.133  -9.724   8.893  1.00  0.00     0.166 C 
HETATM    2  N   UNL     1      42.865 -10.831   7.837  1.00  0.00    -0.319 N 
HETATM    3  C   UNL     1      42.449 -10.929   6.571  1.00  0.00     0.011 C 
HETATM    4  C   UNL     1      44.100 -11.663   7.862  1.00  0.00     0.170 C 
HETATM    5  S   UNL     1      43.950 -13.141   6.999  1.00  0.00    -0.086 SA
HETATM    6  C   UNL     1      43.176 -12.060   5.760  1.00  0.00     0.135 C 
HETATM    7  N   UNL     1      45.205 -11.022   7.954  1.00  0.00    -0.229 NA
HETATM    8  C   UNL     1      45.178  -9.572   8.004  1.00  0.00     0.048 C 
HETATM    9  C   UNL     1      46.686  -9.312   7.941  1.00  0.00     0.071 C 
HETATM   10  C   UNL     1      44.069  -8.688   8.073  1.00  0.00     0.069 C 
ENDROOT
BRANCH   3  11
HETATM   11  C   UNL     1      41.723  -9.904   5.699  1.00  0.00     0.156 C 
BRANCH  11  12
HETATM   12  C   UNL     1      41.337 -10.304   4.281  1.00  0.00     0.223 C 
HETATM   13  N   UNL     1      40.300 -11.210   4.186  1.00  0.00    -0.359 N 
HETATM   14  H   UNL     1      39.914 -11.572   5.057  1.00  0.00     0.162 HD
HETATM   15  O   UNL     1      41.911  -9.841   3.299  1.00  0.00    -0.273 OA
BRANCH  13  16
HETATM   16  C   UNL     1      39.869 -11.979   3.002  1.00  0.00     0.150 C 
BRANCH  16  17
HETATM   17  C   UNL     1      39.668 -13.521   3.051  1.00  0.00     0.254 C 
BRANCH  17  18
HETATM   18  N   UNL     1      40.949 -14.343   2.959  1.00  0.00    -0.070 N 
HETATM   19  H   UNL     1      41.278 -14.428   3.943  1.00  0.00     0.279 HD
HETATM   20  C   UNL     1      40.697 -15.726   2.443  1.00  0.00     0.235 C 
HETATM   21  C   UNL     1      41.974 -16.540   2.354  1.00  0.00     0.028 C 
HETATM   22  C   UNL     1      43.045 -15.842   1.541  1.00  0.00     0.003 C 
HETATM   23  C   UNL     1      43.304 -14.462   2.125  1.00  0.00     0.028 C 
HETATM   24  C   UNL     1      42.026 -13.628   2.166  1.00  0.00     0.235 C 
ENDBRANCH  17  18
ENDBRANCH  16  17
ENDBRANCH  13  16
ENDBRANCH  11  12
ENDBRANCH   3  11
BRANCH   1  25
HETATM   25  C   UNL     1      43.879  -9.730  10.456  1.00  0.00    -0.030 C 
HETATM   26  C   UNL     1      44.159  -8.570  11.228  1.00  0.00     0.010 C 
HETATM   27  C   UNL     1      43.512  -8.319  12.486  1.00  0.00     0.007 C 
HETATM   28  C   UNL     1      42.583  -9.215  13.018  1.00  0.00    -0.062 C 
HETATM   29  C   UNL     1      41.710  -8.900  14.210  1.00  0.00     0.048 C 
HETATM   30  C   UNL     1      42.553 -10.471  12.424  1.00  0.00     0.007 C 
HETATM   31  C   UNL     1      43.318 -10.754  11.263  1.00  0.00     0.010 C 
ENDBRANCH   1  25
BRANCH  10  32
HETATM   32  C   UNL     1      42.765  -7.695   8.151  1.00  0.00     0.294 C 
HETATM   33  O   UNL     1      42.672  -6.764   7.309  1.00  0.00    -0.259 OA
BRANCH  32  34
HETATM   34  O   UNL     1      41.772  -7.866   9.040  1.00  0.00    -0.313 OA
BRANCH  34  35
HETATM   35  C   UNL     1      41.157  -6.750   9.875  1.00  0.00     0.124 C 
HETATM   36  C   UNL     1      40.222  -7.082  11.062  1.00  0.00     0.040 C 
HETATM   37  C   UNL     1      42.131  -5.659  10.373  1.00  0.00     0.040 C 
ENDBRANCH  34  35
ENDBRANCH  32  34
ENDBRANCH  10  32
TORSDOF 9
ENDMDL
MODEL 2
REMARK VINA RESULT:      -7.9      2.719      8.754
REMARK  9 active torsions:
REMARK  status: ('A' for Active; 'I' for Inactive)
REMARK    1  A    between atoms: C_5  and  C_6 
REMARK    2  A    between atoms: C_8  and  C_9 
REMARK    3  A    between atoms: C_9  and  C_10 
REMARK       I    between atoms: C_10  and  N_11 
REMARK    4  A    between atoms: N_11  and  C_12 
REMARK    5  A    between atoms: C_12  and  C_13 
REMARK    6  A    between atoms: C_13  and  N_14 
REMARK    7  A    between atoms: C_28  and  C_29 
REMARK    8  A    between atoms: C_29  and  O_30 
REMARK    9  A    between atoms: O_30  and  C_31 
ROOT
HETATM    1  C   UNL     1      40.965 -12.654   2.632  1.00  0.00     0.166 C 
HETATM    2  N   UNL     1      39.619 -11.916   2.867  1.00  0.00    -0.319 N 
HETATM    3  C   UNL     1      39.165 -10.841   3.518  1.00  0.00     0.011 C 
HETATM    4  C   UNL     1      39.044 -11.763   1.501  1.00  0.00     0.170 C 
HETATM    5  S   UNL     1      37.407 -11.244   1.499  1.00  0.00    -0.086 SA
HETATM    6  C   UNL     1      38.026 -10.080   2.750  1.00  0.00     0.135 C 
HETATM    7  N   UNL     1      39.874 -11.448   0.578  1.00  0.00    -0.229 NA
HETATM    8  C   UNL     1      41.270 -11.248   0.921  1.00  0.00     0.048 C 
HETATM    9  C   UNL     1      41.771 -10.748  -0.437  1.00  0.00     0.071 C 
HETATM   10  C   UNL     1      41.937 -11.449   2.159  1.00  0.00     0.069 C 
ENDROOT
BRANCH   3  11
HETATM   11  C   UNL     1      39.821 -10.023   4.631  1.00  0.00     0.156 C 
BRANCH  11  12
HETATM   12  C   UNL     1      39.218 -10.084   6.027  1.00  0.00     0.223 C 
HETATM   13  N   UNL     1      39.970  -9.491   7.021  1.00  0.00    -0.359 N 
HETATM   14  H   UNL     1      40.877  -9.108   6.756  1.00  0.00     0.162 HD
HETATM   15  O   UNL     1      38.134 -10.622   6.241  1.00  0.00    -0.273 OA
BRANCH  13  16
HETATM   16  C   UNL     1      39.799  -9.603   8.482  1.00  0.00     0.150 C 
BRANCH  16  17
HETATM   17  C   UNL     1      40.810  -8.970   9.480  1.00  0.00     0.254 C 
BRANCH  17  18
HETATM   18  N   UNL     1      42.103  -9.754   9.677  1.00  0.00    -0.070 N 
HETATM   19  H   UNL     1      41.887 -10.710   9.325  1.00  0.00     0.279 HD
HETATM   20  C   UNL     1      43.227  -9.209   8.852  1.00  0.00     0.235 C 
HETATM   21  C   UNL     1      44.510  -9.994   9.051  1.00  0.00     0.028 C 
HETATM   22  C   UNL     1      44.903 -10.091  10.511  1.00  0.00     0.003 C 
HETATM   23  C   UNL     1      43.755 -10.691  11.305  1.00  0.00     0.028 C 
HETATM   24  C   UNL     1      42.478  -9.870  11.142  1.00  0.00     0.235 C 
ENDBRANCH  17  18
ENDBRANCH  16  17
ENDBRANCH  13  16
ENDBRANCH  11  12
ENDBRANCH   3  11
BRANCH   1  25
HETATM   25  C   UNL     1      41.444 -13.943   1.579  1.00  0.00    -0.030 C 
HETATM   26  C   UNL     1      42.786 -14.357   1.359  1.00  0.00     0.010 C 
HETATM   27  C   UNL     1      43.255 -15.656   1.756  1.00  0.00     0.007 C 
HETATM   28  C   UNL     1      42.407 -16.581   2.365  1.00  0.00    -0.062 C 
HETATM   29  C   UNL     1      42.891 -17.862   3.004  1.00  0.00     0.048 C 
HETATM   30  C   UNL     1      41.049 -16.292   2.289  1.00  0.00     0.007 C 
HETATM   31  C   UNL     1      40.589 -15.062   1.753  1.00  0.00     0.010 C 
ENDBRANCH   1  25
BRANCH  10  32
HETATM   32  C   UNL     1      42.676 -11.689   3.604  1.00  0.00     0.294 C 
HETATM   33  O   UNL     1      43.625 -10.926   3.924  1.00  0.00    -0.259 OA
BRANCH  32  34
HETATM   34  O   UNL     1      42.277 -12.629   4.478  1.00  0.00    -0.313 OA
BRANCH  34  35
HETATM   35  C   UNL     1      43.215 -13.434   5.370  1.00  0.00     0.124 C 
HETATM   36  C   UNL     1      43.564 -12.936   6.791  1.00  0.00     0.040 C 
HETATM   37  C   UNL     1      42.904 -14.942   5.494  1.00  0.00     0.040 C 
ENDBRANCH  34  35
ENDBRANCH  32  34
ENDBRANCH  10  32
TORSDOF 9
ENDMDL
MODEL 3
REMARK VINA RESULT:      -7.6      5.196      9.727
REMARK  9 active torsions:
REMARK  status: ('A' for Active; 'I' for Inactive)
REMARK    1  A    between atoms: C_5  and  C_6 
REMARK    2  A    between atoms: C_8  and  C_9 
REMARK    3  A    between atoms: C_9  and  C_10 
REMARK       I    between atoms: C_10  and  N_11 
REMARK    4  A    between atoms: N_11  and  C_12 
REMARK    5  A    between atoms: C_12  and  C_13 
REMARK    6  A    between atoms: C_13  and  N_14 
REMARK    7  A    between atoms: C_28  and  C_29 
REMARK    8  A    between atoms: C_29  and  O_30 
REMARK    9  A    between atoms: O_30  and  C_31 
ROOT
HETATM    1  C   UNL     1      40.549 -10.879  -0.622  1.00  0.00     0.166 C 
HETATM    2  N   UNL     1      40.552 -12.427  -0.741  1.00  0.00    -0.319 N 
HETATM    3  C   UNL     1      40.808 -13.492   0.025  1.00  0.00     0.011 C 
HETATM    4  C   UNL     1      39.231 -12.748  -1.349  1.00  0.00     0.170 C 
HETATM    5  S   UNL     1      39.092 -14.378  -1.872  1.00  0.00    -0.086 SA
HETATM    6  C   UNL     1      39.855 -14.708  -0.256  1.00  0.00     0.135 C 
HETATM    7  N   UNL     1      38.235 -12.072  -0.911  1.00  0.00    -0.229 NA
HETATM    8  C   UNL     1      38.455 -11.086   0.130  1.00  0.00     0.048 C 
HETATM    9  C   UNL     1      36.995 -10.706   0.398  1.00  0.00     0.071 C 
HETATM   10  C   UNL     1      39.670 -10.642   0.717  1.00  0.00     0.069 C 
ENDROOT
BRANCH   3  11
HETATM   11  C   UNL     1      41.559 -13.582   1.354  1.00  0.00     0.156 C 
BRANCH  11  12
HETATM   12  C   UNL     1      41.986 -14.955   1.853  1.00  0.00     0.223 C 
HETATM   13  N   UNL     1      41.463 -15.327   3.076  1.00  0.00    -0.359 N 
HETATM   14  H   UNL     1      40.882 -14.645   3.563  1.00  0.00     0.162 HD
HETATM   15  O   UNL     1      42.738 -15.676   1.203  1.00  0.00    -0.273 OA
BRANCH  13  16
HETATM   16  C   UNL     1      41.874 -16.451   3.938  1.00  0.00     0.150 C 
BRANCH  16  17
HETATM   17  C   UNL     1      43.356 -16.669   4.355  1.00  0.00     0.254 C 
BRANCH  17  18
HETATM   18  N   UNL     1      43.920 -18.052   4.045  1.00  0.00    -0.070 N 
HETATM   19  H   UNL     1      44.922 -17.883   3.819  1.00  0.00     0.279 HD
HETATM   20  C   UNL     1      43.868 -18.963   5.232  1.00  0.00     0.235 C 
HETATM   21  C   UNL     1      44.430 -20.337   4.918  1.00  0.00     0.028 C 
HETATM   22  C   UNL     1      43.761 -20.970   3.715  1.00  0.00     0.003 C 
HETATM   23  C   UNL     1      43.876 -20.036   2.522  1.00  0.00     0.028 C 
HETATM   24  C   UNL     1      43.263 -18.670   2.825  1.00  0.00     0.235 C 
ENDBRANCH  17  18
ENDBRANCH  16  17
ENDBRANCH  13  16
ENDBRANCH  11  12
ENDBRANCH   3  11
BRANCH   1  25
HETATM   25  C   UNL     1      39.988  -9.609  -1.657  1.00  0.00    -0.030 C 
HETATM   26  C   UNL     1      40.210  -8.223  -1.437  1.00  0.00     0.010 C 
HETATM   27  C   UNL     1      41.010  -7.431  -2.330  1.00  0.00     0.007 C 
HETATM   28  C   UNL     1      41.596  -7.986  -3.468  1.00  0.00    -0.062 C 
HETATM   29  C   UNL     1      42.623  -7.267  -4.312  1.00  0.00     0.048 C 
HETATM   30  C   UNL     1      41.122  -9.239  -3.837  1.00  0.00     0.007 C 
HETATM   31  C   UNL     1      40.210  -9.951  -3.016  1.00  0.00     0.010 C 
ENDBRANCH   1  25
BRANCH  10  32
HETATM   32  C   UNL     1      41.091 -10.152   1.374  1.00  0.00     0.294 C 
HETATM   33  O   UNL     1      42.106 -10.100   0.633  1.00  0.00    -0.259 OA
BRANCH  32  34
HETATM   34  O   UNL     1      41.202  -9.755   2.654  1.00  0.00    -0.313 OA
BRANCH  34  35
HETATM   35  C   UNL     1      41.891 -10.558   3.751  1.00  0.00     0.124 C 
HETATM   36  C   UNL     1      43.230 -11.278   3.472  1.00  0.00     0.040 C 
HETATM   37  C   UNL     1      42.048  -9.848   5.114  1.00  0.00     0.040 C 
ENDBRANCH  34  35
ENDBRANCH  32  34
ENDBRANCH  10  32
TORSDOF 9
ENDMDL
MODEL 4
REMARK VINA RESULT:      -7.6      2.823      8.686
REMARK  9 active torsions:
REMARK  status: ('A' for Active; 'I' for Inactive)
REMARK    1  A    between atoms: C_5  and  C_6 
REMARK    2  A    between atoms: C_8  and  C_9 
REMARK    3  A    between atoms: C_9  and  C_10 
REMARK       I    between atoms: C_10  and  N_11 
REMARK    4  A    between atoms: N_11  and  C_12 
REMARK    5  A    between atoms: C_12  and  C_13 
REMARK    6  A    between atoms: C_13  and  N_14 
REMARK    7  A    between atoms: C_28  and  C_29 
REMARK    8  A    between atoms: C_29  and  O_30 
REMARK    9  A    between atoms: O_30  and  C_31 
ROOT
HETATM    1  C   UNL     1      40.863 -13.583   3.583  1.00  0.00     0.166 C 
HETATM    2  N   UNL     1      39.940 -12.334   3.583  1.00  0.00    -0.319 N 
HETATM    3  C   UNL     1      39.334 -11.536   4.467  1.00  0.00     0.011 C 
HETATM    4  C   UNL     1      40.618 -11.380   2.663  1.00  0.00     0.170 C 
HETATM    5  S   UNL     1      39.651 -10.023   2.244  1.00  0.00    -0.086 SA
HETATM    6  C   UNL     1      39.299 -10.029   4.027  1.00  0.00     0.135 C 
HETATM    7  N   UNL     1      41.894 -11.319   2.761  1.00  0.00    -0.229 NA
HETATM    8  C   UNL     1      42.567 -12.144   3.747  1.00  0.00     0.048 C 
HETATM    9  C   UNL     1      43.986 -11.596   3.577  1.00  0.00     0.071 C 
HETATM   10  C   UNL     1      42.036 -13.141   4.609  1.00  0.00     0.069 C 
ENDROOT
BRANCH   3  11
HETATM   11  C   UNL     1      39.053 -11.758   5.953  1.00  0.00     0.156 C 
BRANCH  11  12
HETATM   12  C   UNL     1      39.847 -10.948   6.970  1.00  0.00     0.223 C 
HETATM   13  N   UNL     1      39.161 -10.609   8.119  1.00  0.00    -0.359 N 
HETATM   14  H   UNL     1      38.179 -10.880   8.175  1.00  0.00     0.162 HD
HETATM   15  O   UNL     1      41.017 -10.630   6.773  1.00  0.00    -0.273 OA
BRANCH  13  16
HETATM   16  C   UNL     1      39.548  -9.634   9.156  1.00  0.00     0.150 C 
BRANCH  16  17
HETATM   17  C   UNL     1      40.875  -8.827   9.072  1.00  0.00     0.254 C 
BRANCH  17  18
HETATM   18  N   UNL     1      42.131  -9.607   9.443  1.00  0.00    -0.070 N 
HETATM   19  H   UNL     1      41.977 -10.558   9.047  1.00  0.00     0.279 HD
HETATM   20  C   UNL     1      43.359  -9.040   8.800  1.00  0.00     0.235 C 
HETATM   21  C   UNL     1      44.606  -9.820   9.172  1.00  0.00     0.028 C 
HETATM   22  C   UNL     1      44.782  -9.941  10.672  1.00  0.00     0.003 C 
HETATM   23  C   UNL     1      43.535 -10.563  11.279  1.00  0.00     0.028 C 
HETATM   24  C   UNL     1      42.289  -9.746  10.945  1.00  0.00     0.235 C 
ENDBRANCH  17  18
ENDBRANCH  16  17
ENDBRANCH  13  16
ENDBRANCH  11  12
ENDBRANCH   3  11
BRANCH   1  25
HETATM   25  C   UNL     1      41.753 -14.401   2.343  1.00  0.00    -0.030 C 
HETATM   26  C   UNL     1      43.121 -14.776   2.436  1.00  0.00     0.010 C 
HETATM   27  C   UNL     1      43.533 -16.153   2.446  1.00  0.00     0.007 C 
HETATM   28  C   UNL     1      42.605 -17.190   2.348  1.00  0.00    -0.062 C 
HETATM   29  C   UNL     1      42.952 -18.643   2.580  1.00  0.00     0.048 C 
HETATM   30  C   UNL     1      41.328 -16.818   1.946  1.00  0.00     0.007 C 
HETATM   31  C   UNL     1      40.974 -15.452   1.794  1.00  0.00     0.010 C 
ENDBRANCH   1  25
BRANCH  10  32
HETATM   32  C   UNL     1      41.391 -14.285   5.592  1.00  0.00     0.294 C 
HETATM   33  O   UNL     1      40.311 -14.830   5.246  1.00  0.00    -0.259 OA
BRANCH  32  34
HETATM   34  O   UNL     1      41.994 -14.699   6.720  1.00  0.00    -0.313 OA
BRANCH  34  35
HETATM   35  C   UNL     1      42.942 -15.889   6.806  1.00  0.00     0.124 C 
HETATM   36  C   UNL     1      42.589 -17.225   6.113  1.00  0.00     0.040 C 
HETATM   37  C   UNL     1      44.424 -15.600   6.478  1.00  0.00     0.040 C 
ENDBRANCH  34  35
ENDBRANCH  32  34
ENDBRANCH  10  32
TORSDOF 9
ENDMDL
MODEL 5
REMARK VINA RESULT:      -7.6      4.111      6.133
REMARK  9 active torsions:
REMARK  status: ('A' for Active; 'I' for Inactive)
REMARK    1  A    between atoms: C_5  and  C_6 
REMARK    2  A    between atoms: C_8  and  C_9 
REMARK    3  A    between atoms: C_9  and  C_10 
REMARK       I    between atoms: C_10  and  N_11 
REMARK    4  A    between atoms: N_11  and  C_12 
REMARK    5  A    between atoms: C_12  and  C_13 
REMARK    6  A    between atoms: C_13  and  N_14 
REMARK    7  A    between atoms: C_28  and  C_29 
REMARK    8  A    between atoms: C_29  and  O_30 
REMARK    9  A    between atoms: O_30  and  C_31 
ROOT
HETATM    1  C   UNL     1      41.651 -12.737   5.366  1.00  0.00     0.166 C 
HETATM    2  N   UNL     1      41.988 -14.222   5.668  1.00  0.00    -0.319 N 
HETATM    3  C   UNL     1      42.504 -15.282   5.037  1.00  0.00     0.011 C 
HETATM    4  C   UNL     1      42.758 -14.169   6.942  1.00  0.00     0.170 C 
HETATM    5  S   UNL     1      42.999 -15.709   7.664  1.00  0.00    -0.086 SA
HETATM    6  C   UNL     1      43.408 -16.178   5.956  1.00  0.00     0.135 C 
HETATM    7  N   UNL     1      43.605 -13.214   7.043  1.00  0.00    -0.229 NA
HETATM    8  C   UNL     1      43.766 -12.292   5.935  1.00  0.00     0.048 C 
HETATM    9  C   UNL     1      44.956 -11.491   6.472  1.00  0.00     0.071 C 
HETATM   10  C   UNL     1      43.034 -12.197   4.721  1.00  0.00     0.069 C 
ENDROOT
BRANCH   3  11
HETATM   11  C   UNL     1      42.697 -15.530   3.541  1.00  0.00     0.156 C 
BRANCH  11  12
HETATM   12  C   UNL     1      41.462 -15.609   2.654  1.00  0.00     0.223 C 
HETATM   13  N   UNL     1      41.637 -15.164   1.358  1.00  0.00    -0.359 N 
HETATM   14  H   UNL     1      42.549 -14.779   1.115  1.00  0.00     0.162 HD
HETATM   15  O   UNL     1      40.392 -16.044   3.071  1.00  0.00    -0.273 OA
BRANCH  13  16
HETATM   16  C   UNL     1      40.602 -14.871   0.349  1.00  0.00     0.150 C 
BRANCH  16  17
HETATM   17  C   UNL     1      40.092 -13.424   0.090  1.00  0.00     0.254 C 
BRANCH  17  18
HETATM   18  N   UNL     1      39.356 -13.224  -1.230  1.00  0.00    -0.070 N 
HETATM   19  H   UNL     1      40.045 -12.746  -1.846  1.00  0.00     0.279 HD
HETATM   20  C   UNL     1      38.991 -14.523  -1.878  1.00  0.00     0.235 C 
HETATM   21  C   UNL     1      38.260 -14.318  -3.191  1.00  0.00     0.028 C 
HETATM   22  C   UNL     1      37.045 -13.426  -3.038  1.00  0.00     0.003 C 
HETATM   23  C   UNL     1      37.464 -12.101  -2.422  1.00  0.00     0.028 C 
HETATM   24  C   UNL     1      38.155 -12.310  -1.076  1.00  0.00     0.235 C 
ENDBRANCH  17  18
ENDBRANCH  16  17
ENDBRANCH  13  16
ENDBRANCH  11  12
ENDBRANCH   3  11
BRANCH   1  25
HETATM   25  C   UNL     1      41.167 -11.404   6.359  1.00  0.00    -0.030 C 
HETATM   26  C   UNL     1      41.511 -10.045   6.122  1.00  0.00     0.010 C 
HETATM   27  C   UNL     1      40.521  -9.055   5.802  1.00  0.00     0.007 C 
HETATM   28  C   UNL     1      39.167  -9.379   5.722  1.00  0.00    -0.062 C 
HETATM   29  C   UNL     1      38.116  -8.443   5.172  1.00  0.00     0.048 C 
HETATM   30  C   UNL     1      38.812 -10.613   6.256  1.00  0.00     0.007 C 
HETATM   31  C   UNL     1      39.797 -11.527   6.711  1.00  0.00     0.010 C 
ENDBRANCH   1  25
BRANCH  10  32
HETATM   32  C   UNL     1      42.170 -12.115   3.329  1.00  0.00     0.294 C 
HETATM   33  O   UNL     1      42.769 -12.317   2.241  1.00  0.00    -0.259 OA
BRANCH  32  34
HETATM   34  O   UNL     1      40.844 -11.896   3.307  1.00  0.00    -0.313 OA
BRANCH  34  35
HETATM   35  C   UNL     1      40.142 -10.938   2.353  1.00  0.00     0.124 C 
HETATM   36  C   UNL     1      38.602 -10.796   2.377  1.00  0.00     0.040 C 
HETATM   37  C   UNL     1      40.716  -9.506   2.284  1.00  0.00     0.040 C 
ENDBRANCH  34  35
ENDBRANCH  32  34
ENDBRANCH  10  32
TORSDOF 9
ENDMDL
MODEL 6
REMARK VINA RESULT:      -7.5      1.665      2.070
REMARK  9 active torsions:
REMARK  status: ('A' for Active; 'I' for Inactive)
REMARK    1  A    between atoms: C_5  and  C_6 
REMARK    2  A    between atoms: C_8  and  C_9 
REMARK    3  A    between atoms: C_9  and  C_10 
REMARK       I    between atoms: C_10  and  N_11 
REMARK    4  A    between atoms: N_11  and  C_12 
REMARK    5  A    between atoms: C_12  and  C_13 
REMARK    6  A    between atoms: C_13  and  N_14 
REMARK    7  A    between atoms: C_28  and  C_29 
REMARK    8  A    between atoms: C_29  and  O_30 
REMARK    9  A    between atoms: O_30  and  C_31 
ROOT
HETATM    1  C   UNL     1      43.121  -9.726   8.880  1.00  0.00     0.166 C 
HETATM    2  N   UNL     1      42.862 -10.843   7.833  1.00  0.00    -0.319 N 
HETATM    3  C   UNL     1      42.442 -10.955   6.569  1.00  0.00     0.011 C 
HETATM    4  C   UNL     1      44.105 -11.662   7.859  1.00  0.00     0.170 C 
HETATM    5  S   UNL     1      43.968 -13.148   7.007  1.00  0.00    -0.086 SA
HETATM    6  C   UNL     1      43.178 -12.084   5.763  1.00  0.00     0.135 C 
HETATM    7  N   UNL     1      45.204 -11.009   7.942  1.00  0.00    -0.229 NA
HETATM    8  C   UNL     1      45.161  -9.559   7.982  1.00  0.00     0.048 C 
HETATM    9  C   UNL     1      46.666  -9.283   7.911  1.00  0.00     0.071 C 
HETATM   10  C   UNL     1      44.043  -8.686   8.049  1.00  0.00     0.069 C 
ENDROOT
BRANCH   3  11
HETATM   11  C   UNL     1      41.701  -9.945   5.692  1.00  0.00     0.156 C 
BRANCH  11  12
HETATM   12  C   UNL     1      41.332 -10.351   4.272  1.00  0.00     0.223 C 
HETATM   13  N   UNL     1      40.437 -11.398   4.173  1.00  0.00    -0.359 N 
HETATM   14  H   UNL     1      40.137 -11.841   5.041  1.00  0.00     0.162 HD
HETATM   15  O   UNL     1      41.799  -9.778   3.292  1.00  0.00    -0.273 OA
BRANCH  13  16
HETATM   16  C   UNL     1      40.084 -12.184   2.975  1.00  0.00     0.150 C 
BRANCH  16  17
HETATM   17  C   UNL     1      39.019 -11.694   1.954  1.00  0.00     0.254 C 
BRANCH  17  18
HETATM   18  N   UNL     1      38.775 -12.628   0.774  1.00  0.00    -0.070 N 
HETATM   19  H   UNL     1      37.998 -13.247   1.085  1.00  0.00     0.279 HD
HETATM   20  C   UNL     1      38.310 -11.892  -0.444  1.00  0.00     0.235 C 
HETATM   21  C   UNL     1      38.068 -12.825  -1.615  1.00  0.00     0.028 C 
HETATM   22  C   UNL     1      39.278 -13.683  -1.925  1.00  0.00     0.003 C 
HETATM   23  C   UNL     1      39.689 -14.448  -0.678  1.00  0.00     0.028 C 
HETATM   24  C   UNL     1      39.981 -13.501   0.484  1.00  0.00     0.235 C 
ENDBRANCH  17  18
ENDBRANCH  16  17
ENDBRANCH  13  16
ENDBRANCH  11  12
ENDBRANCH   3  11
BRANCH   1  25
HETATM   25  C   UNL     1      43.873  -9.713  10.440  1.00  0.00    -0.030 C 
HETATM   26  C   UNL     1      44.153  -8.544  11.199  1.00  0.00     0.010 C 
HETATM   27  C   UNL     1      43.509  -8.282  12.456  1.00  0.00     0.007 C 
HETATM   28  C   UNL     1      42.586  -9.175  13.001  1.00  0.00    -0.062 C 
HETATM   29  C   UNL     1      41.716  -8.850  14.193  1.00  0.00     0.048 C 
HETATM   30  C   UNL     1      42.558 -10.437  12.421  1.00  0.00     0.007 C 
HETATM   31  C   UNL     1      43.319 -10.730  11.260  1.00  0.00     0.010 C 
ENDBRANCH   1  25
BRANCH  10  32
HETATM   32  C   UNL     1      42.729  -7.706   8.124  1.00  0.00     0.294 C 
HETATM   33  O   UNL     1      42.605  -6.805   7.255  1.00  0.00    -0.259 OA
BRANCH  32  34
HETATM   34  O   UNL     1      41.758  -7.860   9.042  1.00  0.00    -0.313 OA
BRANCH  34  35
HETATM   35  C   UNL     1      41.151  -6.725   9.857  1.00  0.00     0.124 C 
HETATM   36  C   UNL     1      40.219  -7.029  11.053  1.00  0.00     0.040 C 
HETATM   37  C   UNL     1      42.132  -5.630  10.330  1.00  0.00     0.040 C 
ENDBRANCH  34  35
ENDBRANCH  32  34
ENDBRANCH  10  32
TORSDOF 9
ENDMDL
MODEL 7
REMARK VINA RESULT:      -7.5      2.423      9.229
REMARK  9 active torsions:
REMARK  status: ('A' for Active; 'I' for Inactive)
REMARK    1  A    between atoms: C_5  and  C_6 
REMARK    2  A    between atoms: C_8  and  C_9 
REMARK    3  A    between atoms: C_9  and  C_10 
REMARK       I    between atoms: C_10  and  N_11 
REMARK    4  A    between atoms: N_11  and  C_12 
REMARK    5  A    between atoms: C_12  and  C_13 
REMARK    6  A    between atoms: C_13  and  N_14 
REMARK    7  A    between atoms: C_28  and  C_29 
REMARK    8  A    between atoms: C_29  and  O_30 
REMARK    9  A    between atoms: O_30  and  C_31 
ROOT
HETATM    1  C   UNL     1      41.828 -12.887   4.841  1.00  0.00     0.166 C 
HETATM    2  N   UNL     1      42.721 -11.860   5.590  1.00  0.00    -0.319 N 
HETATM    3  C   UNL     1      42.591 -10.912   6.523  1.00  0.00     0.011 C 
HETATM    4  C   UNL     1      43.876 -12.667   6.074  1.00  0.00     0.170 C 
HETATM    5  S   UNL     1      45.172 -11.716   6.680  1.00  0.00    -0.086 SA
HETATM    6  C   UNL     1      43.817 -10.826   7.502  1.00  0.00     0.135 C 
HETATM    7  N   UNL     1      43.594 -13.829   6.531  1.00  0.00    -0.229 NA
HETATM    8  C   UNL     1      42.208 -14.257   6.566  1.00  0.00     0.048 C 
HETATM    9  C   UNL     1      42.393 -15.577   7.320  1.00  0.00     0.071 C 
HETATM   10  C   UNL     1      41.047 -13.613   6.059  1.00  0.00     0.069 C 
ENDROOT
BRANCH   3  11
HETATM   11  C   UNL     1      41.334 -10.210   7.036  1.00  0.00     0.156 C 
BRANCH  11  12
HETATM   12  C   UNL     1      41.467  -9.254   8.213  1.00  0.00     0.223 C 
HETATM   13  N   UNL     1      41.084  -9.767   9.436  1.00  0.00    -0.359 N 
HETATM   14  H   UNL     1      40.703 -10.713   9.448  1.00  0.00     0.162 HD
HETATM   15  O   UNL     1      41.891  -8.110   8.073  1.00  0.00    -0.273 OA
BRANCH  13  16
HETATM   16  C   UNL     1      40.850  -9.038  10.697  1.00  0.00     0.150 C 
BRANCH  16  17
HETATM   17  C   UNL     1      39.971  -9.627  11.837  1.00  0.00     0.254 C 
BRANCH  17  18
HETATM   18  N   UNL     1      40.097  -8.920  13.182  1.00  0.00    -0.070 N 
HETATM   19  H   UNL     1      39.401  -9.394  13.795  1.00  0.00     0.279 HD
HETATM   20  C   UNL     1      41.448  -9.111  13.797  1.00  0.00     0.235 C 
HETATM   21  C   UNL     1      41.568  -8.406  15.136  1.00  0.00     0.028 C 
HETATM   22  C   UNL     1      41.213  -6.936  15.045  1.00  0.00     0.003 C 
HETATM   23  C   UNL     1      39.818  -6.787  14.460  1.00  0.00     0.028 C 
HETATM   24  C   UNL     1      39.716  -7.454  13.090  1.00  0.00     0.235 C 
ENDBRANCH  17  18
ENDBRANCH  16  17
ENDBRANCH  13  16
ENDBRANCH  11  12
ENDBRANCH   3  11
BRANCH   1  25
HETATM   25  C   UNL     1      42.176 -14.216   3.787  1.00  0.00    -0.030 C 
HETATM   26  C   UNL     1      41.367 -15.376   3.647  1.00  0.00     0.010 C 
HETATM   27  C   UNL     1      40.695 -15.690   2.416  1.00  0.00     0.007 C 
HETATM   28  C   UNL     1      40.819 -14.874   1.291  1.00  0.00    -0.062 C 
HETATM   29  C   UNL     1      39.966 -15.026   0.053  1.00  0.00     0.048 C 
HETATM   30  C   UNL     1      41.843 -13.936   1.340  1.00  0.00     0.007 C 
HETATM   31  C   UNL     1      42.603 -13.739   2.521  1.00  0.00     0.010 C 
ENDBRANCH   1  25
BRANCH  10  32
HETATM   32  C   UNL     1      39.727 -12.842   5.464  1.00  0.00     0.294 C 
HETATM   33  O   UNL     1      38.932 -12.305   6.278  1.00  0.00    -0.259 OA
BRANCH  32  34
HETATM   34  O   UNL     1      39.490 -12.717   4.147  1.00  0.00    -0.313 OA
BRANCH  34  35
HETATM   35  C   UNL     1      39.000 -11.440   3.475  1.00  0.00     0.124 C 
HETATM   36  C   UNL     1      39.782 -10.116   3.642  1.00  0.00     0.040 C 
HETATM   37  C   UNL     1      38.645 -11.555   1.976  1.00  0.00     0.040 C 
ENDBRANCH  34  35
ENDBRANCH  32  34
ENDBRANCH  10  32
TORSDOF 9
ENDMDL
MODEL 8
REMARK VINA RESULT:      -7.4      3.613      6.715
REMARK  9 active torsions:
REMARK  status: ('A' for Active; 'I' for Inactive)
REMARK    1  A    between atoms: C_5  and  C_6 
REMARK    2  A    between atoms: C_8  and  C_9 
REMARK    3  A    between atoms: C_9  and  C_10 
REMARK       I    between atoms: C_10  and  N_11 
REMARK    4  A    between atoms: N_11  and  C_12 
REMARK    5  A    between atoms: C_12  and  C_13 
REMARK    6  A    between atoms: C_13  and  N_14 
REMARK    7  A    between atoms: C_28  and  C_29 
REMARK    8  A    between atoms: C_29  and  O_30 
REMARK    9  A    between atoms: O_30  and  C_31 
ROOT
HETATM    1  C   UNL     1      42.274 -11.364   5.057  1.00  0.00     0.166 C 
HETATM    2  N   UNL     1      41.013 -10.567   4.628  1.00  0.00    -0.319 N 
HETATM    3  C   UNL     1      40.245 -10.412   3.545  1.00  0.00     0.011 C 
HETATM    4  C   UNL     1      40.029 -10.829   5.716  1.00  0.00     0.170 C 
HETATM    5  S   UNL     1      38.641  -9.820   5.645  1.00  0.00    -0.086 SA
HETATM    6  C   UNL     1      38.719 -10.245   3.879  1.00  0.00     0.135 C 
HETATM    7  N   UNL     1      39.993 -12.030   6.159  1.00  0.00    -0.229 NA
HETATM    8  C   UNL     1      40.871 -13.026   5.574  1.00  0.00     0.048 C 
HETATM    9  C   UNL     1      40.338 -14.261   6.305  1.00  0.00     0.071 C 
HETATM   10  C   UNL     1      41.896 -12.872   4.603  1.00  0.00     0.069 C 
ENDROOT
BRANCH   3  11
HETATM   11  C   UNL     1      40.527 -10.771   2.087  1.00  0.00     0.156 C 
BRANCH  11  12
HETATM   12  C   UNL     1      40.041 -12.116   1.564  1.00  0.00     0.223 C 
HETATM   13  N   UNL     1      40.898 -12.753   0.688  1.00  0.00    -0.359 N 
HETATM   14  H   UNL     1      41.751 -12.259   0.426  1.00  0.00     0.162 HD
HETATM   15  O   UNL     1      38.964 -12.594   1.909  1.00  0.00    -0.273 OA
BRANCH  13  16
HETATM   16  C   UNL     1      40.617 -13.914  -0.177  1.00  0.00     0.150 C 
BRANCH  16  17
HETATM   17  C   UNL     1      39.631 -13.827  -1.377  1.00  0.00     0.254 C 
BRANCH  17  18
HETATM   18  N   UNL     1      39.099 -12.430  -1.677  1.00  0.00    -0.070 N 
HETATM   19  H   UNL     1      39.490 -11.831  -0.920  1.00  0.00     0.279 HD
HETATM   20  C   UNL     1      39.603 -11.901  -2.983  1.00  0.00     0.235 C 
HETATM   21  C   UNL     1      39.071 -10.511  -3.277  1.00  0.00     0.028 C 
HETATM   22  C   UNL     1      37.558 -10.449  -3.211  1.00  0.00     0.003 C 
HETATM   23  C   UNL     1      37.089 -10.950  -1.855  1.00  0.00     0.028 C 
HETATM   24  C   UNL     1      37.585 -12.369  -1.585  1.00  0.00     0.235 C 
ENDBRANCH  17  18
ENDBRANCH  16  17
ENDBRANCH  13  16
ENDBRANCH  11  12
ENDBRANCH   3  11
BRANCH   1  25
HETATM   25  C   UNL     1      43.051 -11.627   6.582  1.00  0.00    -0.030 C 
HETATM   26  C   UNL     1      44.337 -12.209   6.751  1.00  0.00     0.010 C 
HETATM   27  C   UNL     1      45.444 -11.465   7.286  1.00  0.00     0.007 C 
HETATM   28  C   UNL     1      45.303 -10.134   7.681  1.00  0.00    -0.062 C 
HETATM   29  C   UNL     1      46.470  -9.242   8.034  1.00  0.00     0.048 C 
HETATM   30  C   UNL     1      43.995  -9.681   7.807  1.00  0.00     0.007 C 
HETATM   31  C   UNL     1      42.896 -10.487   7.414  1.00  0.00     0.010 C 
ENDBRANCH   1  25
BRANCH  10  32
HETATM   32  C   UNL     1      43.072 -12.660   3.479  1.00  0.00     0.294 C 
HETATM   33  O   UNL     1      43.714 -11.577   3.482  1.00  0.00    -0.259 OA
BRANCH  32  34
HETATM   34  O   UNL     1      43.412 -13.612   2.593  1.00  0.00    -0.313 OA
BRANCH  34  35
HETATM   35  C   UNL     1      42.957 -15.065   2.668  1.00  0.00     0.124 C 
HETATM   36  C   UNL     1      43.225 -16.032   1.492  1.00  0.00     0.040 C 
HETATM   37  C   UNL     1      43.330 -15.826   3.959  1.00  0.00     0.040 C 
ENDBRANCH  34  35
ENDBRANCH  32  34
ENDBRANCH  10  32
TORSDOF 9
ENDMDL
MODEL 9
REMARK VINA RESULT:      -7.1      5.447      8.908
REMARK  9 active torsions:
REMARK  status: ('A' for Active; 'I' for Inactive)
REMARK    1  A    between atoms: C_5  and  C_6 
REMARK    2  A    between atoms: C_8  and  C_9 
REMARK    3  A    between atoms: C_9  and  C_10 
REMARK       I    between atoms: C_10  and  N_11 
REMARK    4  A    between atoms: N_11  and  C_12 
REMARK    5  A    between atoms: C_12  and  C_13 
REMARK    6  A    between atoms: C_13  and  N_14 
REMARK    7  A    between atoms: C_28  and  C_29 
REMARK    8  A    between atoms: C_29  and  O_30 
REMARK    9  A    between atoms: O_30  and  C_31 
ROOT
HETATM    1  C   UNL     1      41.415  -7.006  11.531  1.00  0.00     0.166 C 
HETATM    2  N   UNL     1      40.276  -7.488  10.591  1.00  0.00    -0.319 N 
HETATM    3  C   UNL     1      39.641  -7.072   9.492  1.00  0.00     0.011 C 
HETATM    4  C   UNL     1      40.641  -8.896  10.269  1.00  0.00     0.170 C 
HETATM    5  S   UNL     1      39.388  -9.768   9.482  1.00  0.00    -0.086 SA
HETATM    6  C   UNL     1      39.264  -8.238   8.509  1.00  0.00     0.135 C 
HETATM    7  N   UNL     1      41.883  -9.115  10.049  1.00  0.00    -0.229 NA
HETATM    8  C   UNL     1      42.817  -8.006  10.106  1.00  0.00     0.048 C 
HETATM    9  C   UNL     1      44.074  -8.737   9.625  1.00  0.00     0.071 C 
HETATM   10  C   UNL     1      42.597  -6.654  10.483  1.00  0.00     0.069 C 
ENDROOT
BRANCH   3  11
HETATM   11  C   UNL     1      39.592  -5.682   8.858  1.00  0.00     0.156 C 
BRANCH  11  12
HETATM   12  C   UNL     1      38.591  -4.672   9.401  1.00  0.00     0.223 C 
HETATM   13  N   UNL     1      38.811  -4.265  10.703  1.00  0.00    -0.359 N 
HETATM   14  H   UNL     1      39.584  -4.702  11.204  1.00  0.00     0.162 HD
HETATM   15  O   UNL     1      37.660  -4.251   8.720  1.00  0.00    -0.273 OA
BRANCH  13  16
HETATM   16  C   UNL     1      37.900  -3.516  11.589  1.00  0.00     0.150 C 
BRANCH  16  17
HETATM   17  C   UNL     1      36.700  -4.200  12.303  1.00  0.00     0.254 C 
BRANCH  17  18
HETATM   18  N   UNL     1      36.929  -4.541  13.771  1.00  0.00    -0.070 N 
HETATM   19  H   UNL     1      36.035  -4.974  14.083  1.00  0.00     0.279 HD
HETATM   20  C   UNL     1      38.013  -5.557  13.954  1.00  0.00     0.235 C 
HETATM   21  C   UNL     1      38.237  -5.893  15.416  1.00  0.00     0.028 C 
HETATM   22  C   UNL     1      38.499  -4.660  16.256  1.00  0.00     0.003 C 
HETATM   23  C   UNL     1      37.354  -3.675  16.079  1.00  0.00     0.028 C 
HETATM   24  C   UNL     1      37.166  -3.300  14.611  1.00  0.00     0.235 C 
ENDBRANCH  17  18
ENDBRANCH  16  17
ENDBRANCH  13  16
ENDBRANCH  11  12
ENDBRANCH   3  11
BRANCH   1  25
HETATM   25  C   UNL     1      42.286  -7.761  12.824  1.00  0.00    -0.030 C 
HETATM   26  C   UNL     1      43.134  -7.080  13.740  1.00  0.00     0.010 C 
HETATM   27  C   UNL     1      42.827  -6.997  15.141  1.00  0.00     0.007 C 
HETATM   28  C   UNL     1      41.685  -7.597  15.673  1.00  0.00    -0.062 C 
HETATM   29  C   UNL     1      41.196  -7.353  17.081  1.00  0.00     0.048 C 
HETATM   30  C   UNL     1      41.044  -8.509  14.843  1.00  0.00     0.007 C 
HETATM   31  C   UNL     1      41.454  -8.693  13.497  1.00  0.00     0.010 C 
ENDBRANCH   1  25
BRANCH  10  32
HETATM   32  C   UNL     1      42.308  -5.100  10.922  1.00  0.00     0.294 C 
HETATM   33  O   UNL     1      42.721  -4.179  10.170  1.00  0.00    -0.259 OA
BRANCH  32  34
HETATM   34  O   UNL     1      41.605  -4.773  12.021  1.00  0.00    -0.313 OA
BRANCH  34  35
HETATM   35  C   UNL     1      41.669  -3.418  12.716  1.00  0.00     0.124 C 
HETATM   36  C   UNL     1      40.852  -3.158  14.003  1.00  0.00     0.040 C 
HETATM   37  C   UNL     1      43.083  -2.851  12.970  1.00  0.00     0.040 C 
ENDBRANCH  34  35
ENDBRANCH  32  34
ENDBRANCH  10  32
TORSDOF 9
ENDMDL
MODEL 10
REMARK VINA RESULT:      -7.0      3.960      7.289
REMARK  9 active torsions:
REMARK  status: ('A' for Active; 'I' for Inactive)
REMARK    1  A    between atoms: C_5  and  C_6 
REMARK    2  A    between atoms: C_8  and  C_9 
REMARK    3  A    between atoms: C_9  and  C_10 
REMARK       I    between atoms: C_10  and  N_11 
REMARK    4  A    between atoms: N_11  and  C_12 
REMARK    5  A    between atoms: C_12  and  C_13 
REMARK    6  A    between atoms: C_13  and  N_14 
REMARK    7  A    between atoms: C_28  and  C_29 
REMARK    8  A    between atoms: C_29  and  O_30 
REMARK    9  A    between atoms: O_30  and  C_31 
ROOT
HETATM    1  C   UNL     1      41.575 -13.659   3.362  1.00  0.00     0.166 C 
HETATM    2  N   UNL     1      40.776 -13.104   2.152  1.00  0.00    -0.319 N 
HETATM    3  C   UNL     1      40.804 -12.051   1.330  1.00  0.00     0.011 C 
HETATM    4  C   UNL     1      40.665 -14.264   1.225  1.00  0.00     0.170 C 
HETATM    5  S   UNL     1      39.562 -14.010  -0.067  1.00  0.00    -0.086 SA
HETATM    6  C   UNL     1      40.404 -12.400  -0.148  1.00  0.00     0.135 C 
HETATM    7  N   UNL     1      41.714 -14.990   1.110  1.00  0.00    -0.229 NA
HETATM    8  C   UNL     1      42.908 -14.628   1.852  1.00  0.00     0.048 C 
HETATM    9  C   UNL     1      43.869 -15.662   1.259  1.00  0.00     0.071 C 
HETATM   10  C   UNL     1      43.099 -13.605   2.818  1.00  0.00     0.069 C 
ENDROOT
BRANCH   3  11
HETATM   11  C   UNL     1      41.530 -10.713   1.479  1.00  0.00     0.156 C 
BRANCH  11  12
HETATM   12  C   UNL     1      40.991  -9.704   2.483  1.00  0.00     0.223 C 
HETATM   13  N   UNL     1      39.777  -9.134   2.152  1.00  0.00    -0.359 N 
HETATM   14  H   UNL     1      39.368  -9.393   1.254  1.00  0.00     0.162 HD
HETATM   15  O   UNL     1      41.598  -9.428   3.513  1.00  0.00    -0.273 OA
BRANCH  13  16
HETATM   16  C   UNL     1      39.125  -7.961   2.764  1.00  0.00     0.150 C 
BRANCH  16  17
HETATM   17  C   UNL     1      38.343  -8.060   4.104  1.00  0.00     0.254 C 
BRANCH  17  18
HETATM   18  N   UNL     1      39.060  -8.817   5.217  1.00  0.00    -0.070 N 
HETATM   19  H   UNL     1      40.054  -8.857   4.911  1.00  0.00     0.279 HD
HETATM   20  C   UNL     1      39.015  -8.083   6.521  1.00  0.00     0.235 C 
HETATM   21  C   UNL     1      39.729  -8.840   7.625  1.00  0.00     0.028 C 
HETATM   22  C   UNL     1      39.211 -10.256   7.778  1.00  0.00     0.003 C 
HETATM   23  C   UNL     1      39.318 -10.981   6.446  1.00  0.00     0.028 C 
HETATM   24  C   UNL     1      38.554 -10.241   5.349  1.00  0.00     0.235 C 
ENDBRANCH  17  18
ENDBRANCH  16  17
ENDBRANCH  13  16
ENDBRANCH  11  12
ENDBRANCH   3  11
BRANCH   1  25
HETATM   25  C   UNL     1      41.545 -15.167   4.213  1.00  0.00    -0.030 C 
HETATM   26  C   UNL     1      42.683 -15.979   4.471  1.00  0.00     0.010 C 
HETATM   27  C   UNL     1      43.161 -16.217   5.804  1.00  0.00     0.007 C 
HETATM   28  C   UNL     1      42.517 -15.672   6.916  1.00  0.00    -0.062 C 
HETATM   29  C   UNL     1      43.097 -15.699   8.311  1.00  0.00     0.048 C 
HETATM   30  C   UNL     1      41.249 -15.154   6.681  1.00  0.00     0.007 C 
HETATM   31  C   UNL     1      40.724 -15.062   5.367  1.00  0.00     0.010 C 
ENDBRANCH   1  25
BRANCH  10  32
HETATM   32  C   UNL     1      43.287 -12.413   3.930  1.00  0.00     0.294 C 
HETATM   33  O   UNL     1      44.170 -11.540   3.726  1.00  0.00    -0.259 OA
BRANCH  32  34
HETATM   34  O   UNL     1      42.503 -12.302   5.017  1.00  0.00    -0.313 OA
BRANCH  34  35
HETATM   35  C   UNL     1      43.001 -11.918   6.405  1.00  0.00     0.124 C 
HETATM   36  C   UNL     1      44.344 -12.470   6.937  1.00  0.00     0.040 C 
HETATM   37  C   UNL     1      42.980 -10.410   6.740  1.00  0.00     0.040 C 
ENDBRANCH  34  35
ENDBRANCH  32  34
ENDBRANCH  10  32
TORSDOF 9
ENDMDL
