MODEL 1
REMARK VINA RESULT:      -7.7      0.000      0.000
REMARK  5 active torsions:
REMARK  status: ('A' for Active; 'I' for Inactive)
REMARK    1  A    between atoms: C_5  and  N_6 
REMARK       I    between atoms: N_6  and  C_7 
REMARK       I    between atoms: C_7  and  N_8 
REMARK    2  A    between atoms: N_8  and  C_9 
REMARK    3  A    between atoms: C_16  and  O_17 
REMARK    4  A    between atoms: O_17  and  C_18 
REMARK    5  A    between atoms: C_18  and  C_19 
ROOT
HETATM    1  C   UNL     1      43.473 -16.856   6.101  1.00  0.00     0.026 A 
HETATM    2  C   UNL     1      43.205 -15.491   5.991  1.00  0.00     0.036 A 
HETATM    3 CL   UNL     1      43.237 -14.509   7.404  1.00  0.00    -0.084 Cl
HETATM    4  C   UNL     1      42.897 -14.919   4.754  1.00  0.00     0.056 A 
HETATM    5  C   UNL     1      42.862 -15.715   3.609  1.00  0.00     0.071 A 
HETATM    6  C   UNL     1      43.153 -17.087   3.725  1.00  0.00     0.096 A 
HETATM    7  C   UNL     1      43.442 -17.662   4.965  1.00  0.00     0.041 A 
ENDROOT
BRANCH   5   8
HETATM    8  N   UNL     1      42.534 -15.233   2.323  1.00  0.00    -0.306 N 
HETATM    9  C   UNL     1      41.283 -14.886   1.846  1.00  0.00     0.325 C 
HETATM   10  N   UNL     1      41.342 -14.588   0.495  1.00  0.00    -0.306 N 
HETATM   11  O   UNL     1      40.264 -14.837   2.524  1.00  0.00    -0.247 OA
HETATM   12  H   UNL     1      42.178 -14.823  -0.016  1.00  0.00     0.171 HD
HETATM   13  H   UNL     1      43.329 -14.981   1.751  1.00  0.00     0.171 HD
BRANCH  10  14
HETATM   14  C   UNL     1      40.273 -14.119  -0.243  1.00  0.00     0.072 A 
HETATM   15  C   UNL     1      39.777 -12.813  -0.452  1.00  0.00     0.169 A 
HETATM   16  N   UNL     1      38.711 -12.797  -1.260  1.00  0.00    -0.185 NA
HETATM   17  N   UNL     1      38.524 -14.091  -1.559  1.00  0.00    -0.287 N 
HETATM   18  H   UNL     1      37.751 -14.334  -2.171  1.00  0.00     0.188 HD
HETATM   19  C   UNL     1      39.437 -14.925  -0.979  1.00  0.00     0.140 A 
ENDBRANCH  10  14
ENDBRANCH   5   8
BRANCH   6  20
HETATM   20  O   UNL     1      43.102 -17.855   2.587  1.00  0.00    -0.340 OA
BRANCH  20  21
HETATM   21  C   UNL     1      44.077 -18.915   2.615  1.00  0.00     0.293 C 
BRANCH  21  22
HETATM   22  C   UNL     1      43.419 -20.231   2.231  1.00  0.00     0.408 C 
HETATM   23  F   UNL     1      43.472 -21.119   3.253  1.00  0.00    -0.169 F 
HETATM   24  F   UNL     1      42.119 -20.044   1.916  1.00  0.00    -0.169 F 
HETATM   25  F   UNL     1      44.021 -20.797   1.163  1.00  0.00    -0.169 F 
ENDBRANCH  21  22
ENDBRANCH  20  21
ENDBRANCH   6  20
TORSDOF 5
ENDMDL
MODEL 2
REMARK VINA RESULT:      -7.6      3.106      4.040
REMARK  5 active torsions:
REMARK  status: ('A' for Active; 'I' for Inactive)
REMARK    1  A    between atoms: C_5  and  N_6 
REMARK       I    between atoms: N_6  and  C_7 
REMARK       I    between atoms: C_7  and  N_8 
REMARK    2  A    between atoms: N_8  and  C_9 
REMARK    3  A    between atoms: C_16  and  O_17 
REMARK    4  A    between atoms: O_17  and  C_18 
REMARK    5  A    between atoms: C_18  and  C_19 
ROOT
HETATM    1  C   UNL     1      43.968 -18.770   4.063  1.00  0.00     0.026 A 
HETATM    2  C   UNL     1      43.668 -19.004   2.721  1.00  0.00     0.036 A 
HETATM    3 CL   UNL     1      43.901 -20.580   2.068  1.00  0.00    -0.084 Cl
HETATM    4  C   UNL     1      43.199 -17.975   1.900  1.00  0.00     0.056 A 
HETATM    5  C   UNL     1      43.018 -16.695   2.425  1.00  0.00     0.071 A 
HETATM    6  C   UNL     1      43.303 -16.471   3.785  1.00  0.00     0.096 A 
HETATM    7  C   UNL     1      43.791 -17.495   4.600  1.00  0.00     0.041 A 
ENDROOT
BRANCH   5   8
HETATM    8  N   UNL     1      42.577 -15.588   1.668  1.00  0.00    -0.306 N 
HETATM    9  C   UNL     1      41.296 -15.334   1.214  1.00  0.00     0.325 C 
HETATM   10  N   UNL     1      41.284 -14.220   0.390  1.00  0.00    -0.306 N 
HETATM   11  O   UNL     1      40.306 -15.991   1.506  1.00  0.00    -0.247 OA
HETATM   12  H   UNL     1      42.163 -13.849   0.066  1.00  0.00     0.171 HD
HETATM   13  H   UNL     1      43.251 -14.838   1.584  1.00  0.00     0.171 HD
BRANCH  10  14
HETATM   14  C   UNL     1      40.138 -13.663  -0.143  1.00  0.00     0.072 A 
HETATM   15  C   UNL     1      39.449 -13.908  -1.351  1.00  0.00     0.169 A 
HETATM   16  N   UNL     1      38.355 -13.147  -1.477  1.00  0.00    -0.185 NA
HETATM   17  N   UNL     1      38.352 -12.414  -0.353  1.00  0.00    -0.287 N 
HETATM   18  H   UNL     1      37.601 -11.744  -0.222  1.00  0.00     0.188 HD
HETATM   19  C   UNL     1      39.397 -12.688   0.483  1.00  0.00     0.140 A 
ENDBRANCH  10  14
ENDBRANCH   5   8
BRANCH   6  20
HETATM   20  O   UNL     1      43.129 -15.200   4.278  1.00  0.00    -0.340 OA
BRANCH  20  21
HETATM   21  C   UNL     1      42.387 -15.206   5.514  1.00  0.00     0.293 C 
BRANCH  21  22
HETATM   22  C   UNL     1      40.897 -15.153   5.220  1.00  0.00     0.408 C 
HETATM   23  F   UNL     1      40.199 -14.761   6.313  1.00  0.00    -0.169 F 
HETATM   24  F   UNL     1      40.633 -14.274   4.228  1.00  0.00    -0.169 F 
HETATM   25  F   UNL     1      40.420 -16.357   4.837  1.00  0.00    -0.169 F 
ENDBRANCH  21  22
ENDBRANCH  20  21
ENDBRANCH   6  20
TORSDOF 5
ENDMDL
MODEL 3
REMARK VINA RESULT:      -7.4      3.943      4.845
REMARK  5 active torsions:
REMARK  status: ('A' for Active; 'I' for Inactive)
REMARK    1  A    between atoms: C_5  and  N_6 
REMARK       I    between atoms: N_6  and  C_7 
REMARK       I    between atoms: C_7  and  N_8 
REMARK    2  A    between atoms: N_8  and  C_9 
REMARK    3  A    between atoms: C_16  and  O_17 
REMARK    4  A    between atoms: O_17  and  C_18 
REMARK    5  A    between atoms: C_18  and  C_19 
ROOT
HETATM    1  C   UNL     1      43.564 -16.820   4.421  1.00  0.00     0.026 A 
HETATM    2  C   UNL     1      43.572 -17.446   3.173  1.00  0.00     0.036 A 
HETATM    3 CL   UNL     1      44.256 -19.019   3.024  1.00  0.00    -0.084 Cl
HETATM    4  C   UNL     1      43.049 -16.807   2.047  1.00  0.00     0.056 A 
HETATM    5  C   UNL     1      42.502 -15.528   2.165  1.00  0.00     0.071 A 
HETATM    6  C   UNL     1      42.480 -14.912   3.429  1.00  0.00     0.096 A 
HETATM    7  C   UNL     1      43.021 -15.544   4.551  1.00  0.00     0.041 A 
ENDROOT
BRANCH   5   8
HETATM    8  N   UNL     1      41.977 -14.793   1.080  1.00  0.00    -0.306 N 
HETATM    9  C   UNL     1      40.708 -14.879   0.538  1.00  0.00     0.325 C 
HETATM   10  N   UNL     1      40.611 -14.099  -0.602  1.00  0.00    -0.306 N 
HETATM   11  O   UNL     1      39.790 -15.542   1.005  1.00  0.00    -0.247 OA
HETATM   12  H   UNL     1      41.456 -13.731  -1.009  1.00  0.00     0.171 HD
HETATM   13  H   UNL     1      42.556 -14.022   0.772  1.00  0.00     0.171 HD
BRANCH  10  14
HETATM   14  C   UNL     1      39.442 -13.907  -1.313  1.00  0.00     0.072 A 
HETATM   15  C   UNL     1      38.515 -12.841  -1.325  1.00  0.00     0.169 A 
HETATM   16  N   UNL     1      37.509 -13.051  -2.183  1.00  0.00    -0.185 NA
HETATM   17  N   UNL     1      37.792 -14.252  -2.710  1.00  0.00    -0.287 N 
HETATM   18  H   UNL     1      37.153 -14.634  -3.400  1.00  0.00     0.188 HD
HETATM   19  C   UNL     1      38.943 -14.806  -2.225  1.00  0.00     0.140 A 
ENDBRANCH  10  14
ENDBRANCH   5   8
BRANCH   6  20
HETATM   20  O   UNL     1      41.947 -13.648   3.520  1.00  0.00    -0.340 OA
BRANCH  20  21
HETATM   21  C   UNL     1      42.760 -12.786   4.339  1.00  0.00     0.293 C 
BRANCH  21  22
HETATM   22  C   UNL     1      43.273 -11.620   3.510  1.00  0.00     0.408 C 
HETATM   23  F   UNL     1      42.873 -10.436   4.031  1.00  0.00    -0.169 F 
HETATM   24  F   UNL     1      44.624 -11.615   3.471  1.00  0.00    -0.169 F 
HETATM   25  F   UNL     1      42.828 -11.680   2.236  1.00  0.00    -0.169 F 
ENDBRANCH  21  22
ENDBRANCH  20  21
ENDBRANCH   6  20
TORSDOF 5
ENDMDL
MODEL 4
REMARK VINA RESULT:      -7.3      3.511      4.374
REMARK  5 active torsions:
REMARK  status: ('A' for Active; 'I' for Inactive)
REMARK    1  A    between atoms: C_5  and  N_6 
REMARK       I    between atoms: N_6  and  C_7 
REMARK       I    between atoms: C_7  and  N_8 
REMARK    2  A    between atoms: N_8  and  C_9 
REMARK    3  A    between atoms: C_16  and  O_17 
REMARK    4  A    between atoms: O_17  and  C_18 
REMARK    5  A    between atoms: C_18  and  C_19 
ROOT
HETATM    1  C   UNL     1      43.982 -18.718   4.091  1.00  0.00     0.026 A 
HETATM    2  C   UNL     1      43.650 -18.965   2.759  1.00  0.00     0.036 A 
HETATM    3 CL   UNL     1      43.853 -20.551   2.120  1.00  0.00    -0.084 Cl
HETATM    4  C   UNL     1      43.171 -17.942   1.937  1.00  0.00     0.056 A 
HETATM    5  C   UNL     1      43.014 -16.654   2.451  1.00  0.00     0.071 A 
HETATM    6  C   UNL     1      43.332 -16.417   3.801  1.00  0.00     0.096 A 
HETATM    7  C   UNL     1      43.828 -17.436   4.617  1.00  0.00     0.041 A 
ENDROOT
BRANCH   5   8
HETATM    8  N   UNL     1      42.566 -15.552   1.692  1.00  0.00    -0.306 N 
HETATM    9  C   UNL     1      41.280 -15.297   1.251  1.00  0.00     0.325 C 
HETATM   10  N   UNL     1      41.260 -14.190   0.419  1.00  0.00    -0.306 N 
HETATM   11  O   UNL     1      40.292 -15.950   1.561  1.00  0.00    -0.247 OA
HETATM   12  H   UNL     1      42.136 -13.824   0.081  1.00  0.00     0.171 HD
HETATM   13  H   UNL     1      43.241 -14.805   1.593  1.00  0.00     0.171 HD
BRANCH  10  14
HETATM   14  C   UNL     1      40.109 -13.634  -0.103  1.00  0.00     0.072 A 
HETATM   15  C   UNL     1      39.401 -13.890  -1.298  1.00  0.00     0.169 A 
HETATM   16  N   UNL     1      38.309 -13.126  -1.416  1.00  0.00    -0.185 NA
HETATM   17  N   UNL     1      38.325 -12.380  -0.301  1.00  0.00    -0.287 N 
HETATM   18  H   UNL     1      37.579 -11.705  -0.167  1.00  0.00     0.188 HD
HETATM   19  C   UNL     1      39.381 -12.649   0.522  1.00  0.00     0.140 A 
ENDBRANCH  10  14
ENDBRANCH   5   8
BRANCH   6  20
HETATM   20  O   UNL     1      43.181 -15.139   4.284  1.00  0.00    -0.340 OA
BRANCH  20  21
HETATM   21  C   UNL     1      42.293 -15.100   5.418  1.00  0.00     0.293 C 
BRANCH  21  22
HETATM   22  C   UNL     1      43.029 -14.555   6.631  1.00  0.00     0.408 C 
HETATM   23  F   UNL     1      44.370 -14.644   6.468  1.00  0.00    -0.169 F 
HETATM   24  F   UNL     1      42.725 -13.253   6.832  1.00  0.00    -0.169 F 
HETATM   25  F   UNL     1      42.705 -15.228   7.756  1.00  0.00    -0.169 F 
ENDBRANCH  21  22
ENDBRANCH  20  21
ENDBRANCH   6  20
TORSDOF 5
ENDMDL
MODEL 5
REMARK VINA RESULT:      -6.9      2.390      2.897
REMARK  5 active torsions:
REMARK  status: ('A' for Active; 'I' for Inactive)
REMARK    1  A    between atoms: C_5  and  N_6 
REMARK       I    between atoms: N_6  and  C_7 
REMARK       I    between atoms: C_7  and  N_8 
REMARK    2  A    between atoms: N_8  and  C_9 
REMARK    3  A    between atoms: C_16  and  O_17 
REMARK    4  A    between atoms: O_17  and  C_18 
REMARK    5  A    between atoms: C_18  and  C_19 
ROOT
HETATM    1  C   UNL     1      40.925 -14.032   6.096  1.00  0.00     0.026 A 
HETATM    2  C   UNL     1      40.222 -13.049   5.398  1.00  0.00     0.036 A 
HETATM    3 CL   UNL     1      39.801 -11.585   6.199  1.00  0.00    -0.084 Cl
HETATM    4  C   UNL     1      39.846 -13.245   4.067  1.00  0.00     0.056 A 
HETATM    5  C   UNL     1      40.179 -14.434   3.418  1.00  0.00     0.071 A 
HETATM    6  C   UNL     1      40.905 -15.413   4.123  1.00  0.00     0.096 A 
HETATM    7  C   UNL     1      41.265 -15.224   5.459  1.00  0.00     0.041 A 
ENDROOT
BRANCH   5   8
HETATM    8  N   UNL     1      39.818 -14.734   2.087  1.00  0.00    -0.306 N 
HETATM    9  C   UNL     1      39.889 -13.902   0.985  1.00  0.00     0.325 C 
HETATM   10  N   UNL     1      39.316 -14.508  -0.121  1.00  0.00    -0.306 N 
HETATM   11  O   UNL     1      40.398 -12.788   0.981  1.00  0.00    -0.247 OA
HETATM   12  H   UNL     1      38.770 -15.343   0.014  1.00  0.00     0.171 HD
HETATM   13  H   UNL     1      39.627 -15.712   1.911  1.00  0.00     0.171 HD
BRANCH  10  14
HETATM   14  C   UNL     1      39.318 -13.963  -1.391  1.00  0.00     0.072 A 
HETATM   15  C   UNL     1      40.305 -13.940  -2.401  1.00  0.00     0.169 A 
HETATM   16  N   UNL     1      39.888 -13.308  -3.505  1.00  0.00    -0.185 NA
HETATM   17  N   UNL     1      38.641 -12.923  -3.195  1.00  0.00    -0.287 N 
HETATM   18  H   UNL     1      38.112 -12.410  -3.892  1.00  0.00     0.188 HD
HETATM   19  C   UNL     1      38.249 -13.296  -1.940  1.00  0.00     0.140 A 
ENDBRANCH  10  14
ENDBRANCH   5   8
BRANCH   6  20
HETATM   20  O   UNL     1      41.213 -16.582   3.468  1.00  0.00    -0.340 OA
BRANCH  20  21
HETATM   21  C   UNL     1      42.597 -16.942   3.645  1.00  0.00     0.293 C 
BRANCH  21  22
HETATM   22  C   UNL     1      43.100 -17.676   2.412  1.00  0.00     0.408 C 
HETATM   23  F   UNL     1      44.275 -18.300   2.663  1.00  0.00    -0.169 F 
HETATM   24  F   UNL     1      42.213 -18.615   2.017  1.00  0.00    -0.169 F 
HETATM   25  F   UNL     1      43.293 -16.834   1.374  1.00  0.00    -0.169 F 
ENDBRANCH  21  22
ENDBRANCH  20  21
ENDBRANCH   6  20
TORSDOF 5
ENDMDL
MODEL 6
REMARK VINA RESULT:      -6.7      4.042      5.355
REMARK  5 active torsions:
REMARK  status: ('A' for Active; 'I' for Inactive)
REMARK    1  A    between atoms: C_5  and  N_6 
REMARK       I    between atoms: N_6  and  C_7 
REMARK       I    between atoms: C_7  and  N_8 
REMARK    2  A    between atoms: N_8  and  C_9 
REMARK    3  A    between atoms: C_16  and  O_17 
REMARK    4  A    between atoms: O_17  and  C_18 
REMARK    5  A    between atoms: C_18  and  C_19 
ROOT
HETATM    1  C   UNL     1      43.626 -19.731   2.928  1.00  0.00     0.026 A 
HETATM    2  C   UNL     1      44.018 -19.396   4.225  1.00  0.00     0.036 A 
HETATM    3 CL   UNL     1      44.642 -20.623   5.260  1.00  0.00    -0.084 Cl
HETATM    4  C   UNL     1      43.896 -18.087   4.697  1.00  0.00     0.056 A 
HETATM    5  C   UNL     1      43.382 -17.094   3.862  1.00  0.00     0.071 A 
HETATM    6  C   UNL     1      43.008 -17.434   2.549  1.00  0.00     0.096 A 
HETATM    7  C   UNL     1      43.112 -18.747   2.085  1.00  0.00     0.041 A 
ENDROOT
BRANCH   5   8
HETATM    8  N   UNL     1      43.195 -15.751   4.258  1.00  0.00    -0.306 N 
HETATM    9  C   UNL     1      42.078 -15.195   4.853  1.00  0.00     0.325 C 
HETATM   10  N   UNL     1      42.218 -13.822   4.966  1.00  0.00    -0.306 N 
HETATM   11  O   UNL     1      41.103 -15.827   5.239  1.00  0.00    -0.247 OA
HETATM   12  H   UNL     1      42.968 -13.370   4.467  1.00  0.00     0.171 HD
HETATM   13  H   UNL     1      44.031 -15.182   4.230  1.00  0.00     0.171 HD
BRANCH  10  14
HETATM   14  C   UNL     1      41.309 -12.999   5.602  1.00  0.00     0.072 A 
HETATM   15  C   UNL     1      39.914 -13.113   5.793  1.00  0.00     0.169 A 
HETATM   16  N   UNL     1      39.410 -12.087   6.488  1.00  0.00    -0.185 NA
HETATM   17  N   UNL     1      40.481 -11.317   6.733  1.00  0.00    -0.287 N 
HETATM   18  H   UNL     1      40.344 -10.458   7.255  1.00  0.00     0.188 HD
HETATM   19  C   UNL     1      41.645 -11.822   6.227  1.00  0.00     0.140 A 
ENDBRANCH  10  14
ENDBRANCH   5   8
BRANCH   6  20
HETATM   20  O   UNL     1      42.494 -16.442   1.749  1.00  0.00    -0.340 OA
BRANCH  20  21
HETATM   21  C   UNL     1      41.054 -16.490   1.699  1.00  0.00     0.293 C 
BRANCH  21  22
HETATM   22  C   UNL     1      40.497 -15.088   1.515  1.00  0.00     0.408 C 
HETATM   23  F   UNL     1      39.596 -14.790   2.480  1.00  0.00    -0.169 F 
HETATM   24  F   UNL     1      41.484 -14.167   1.577  1.00  0.00    -0.169 F 
HETATM   25  F   UNL     1      39.883 -14.948   0.320  1.00  0.00    -0.169 F 
ENDBRANCH  21  22
ENDBRANCH  20  21
ENDBRANCH   6  20
TORSDOF 5
ENDMDL
MODEL 7
REMARK VINA RESULT:      -6.7     13.516     14.604
REMARK  5 active torsions:
REMARK  status: ('A' for Active; 'I' for Inactive)
REMARK    1  A    between atoms: C_5  and  N_6 
REMARK       I    between atoms: N_6  and  C_7 
REMARK       I    between atoms: C_7  and  N_8 
REMARK    2  A    between atoms: N_8  and  C_9 
REMARK    3  A    between atoms: C_16  and  O_17 
REMARK    4  A    between atoms: O_17  and  C_18 
REMARK    5  A    between atoms: C_18  and  C_19 
ROOT
HETATM    1  C   UNL     1      47.164 -28.051  -1.646  1.00  0.00     0.026 A 
HETATM    2  C   UNL     1      45.843 -28.216  -2.062  1.00  0.00     0.036 A 
HETATM    3 CL   UNL     1      45.464 -28.082  -3.736  1.00  0.00    -0.084 Cl
HETATM    4  C   UNL     1      44.826 -28.471  -1.139  1.00  0.00     0.056 A 
HETATM    5  C   UNL     1      45.130 -28.572   0.219  1.00  0.00     0.071 A 
HETATM    6  C   UNL     1      46.468 -28.424   0.630  1.00  0.00     0.096 A 
HETATM    7  C   UNL     1      47.481 -28.150  -0.292  1.00  0.00     0.041 A 
ENDROOT
BRANCH   5   8
HETATM    8  N   UNL     1      44.168 -28.799   1.228  1.00  0.00    -0.306 N 
HETATM    9  C   UNL     1      43.255 -29.835   1.305  1.00  0.00     0.325 C 
HETATM   10  N   UNL     1      42.388 -29.641   2.367  1.00  0.00    -0.306 N 
HETATM   11  O   UNL     1      43.223 -30.797   0.549  1.00  0.00    -0.247 OA
HETATM   12  H   UNL     1      42.375 -28.743   2.824  1.00  0.00     0.171 HD
HETATM   13  H   UNL     1      44.269 -28.214   2.047  1.00  0.00     0.171 HD
BRANCH  10  14
HETATM   14  C   UNL     1      41.425 -30.552   2.757  1.00  0.00     0.072 A 
HETATM   15  C   UNL     1      40.619 -31.442   2.014  1.00  0.00     0.169 A 
HETATM   16  N   UNL     1      39.812 -32.171   2.794  1.00  0.00    -0.185 NA
HETATM   17  N   UNL     1      40.100 -31.740   4.032  1.00  0.00    -0.287 N 
HETATM   18  H   UNL     1      39.598 -32.154   4.811  1.00  0.00     0.188 HD
HETATM   19  C   UNL     1      41.064 -30.773   4.065  1.00  0.00     0.140 A 
ENDBRANCH  10  14
ENDBRANCH   5   8
BRANCH   6  20
HETATM   20  O   UNL     1      46.743 -28.516   1.973  1.00  0.00    -0.340 OA
BRANCH  20  21
HETATM   21  C   UNL     1      47.779 -29.481   2.240  1.00  0.00     0.293 C 
BRANCH  21  22
HETATM   22  C   UNL     1      48.701 -28.960   3.331  1.00  0.00     0.408 C 
HETATM   23  F   UNL     1      48.681 -27.607   3.381  1.00  0.00    -0.169 F 
HETATM   24  F   UNL     1      48.320 -29.421   4.542  1.00  0.00    -0.169 F 
HETATM   25  F   UNL     1      49.979 -29.347   3.130  1.00  0.00    -0.169 F 
ENDBRANCH  21  22
ENDBRANCH  20  21
ENDBRANCH   6  20
TORSDOF 5
ENDMDL
MODEL 8
REMARK VINA RESULT:      -6.6      1.898      2.502
REMARK  5 active torsions:
REMARK  status: ('A' for Active; 'I' for Inactive)
REMARK    1  A    between atoms: C_5  and  N_6 
REMARK       I    between atoms: N_6  and  C_7 
REMARK       I    between atoms: C_7  and  N_8 
REMARK    2  A    between atoms: N_8  and  C_9 
REMARK    3  A    between atoms: C_16  and  O_17 
REMARK    4  A    between atoms: O_17  and  C_18 
REMARK    5  A    between atoms: C_18  and  C_19 
ROOT
HETATM    1  C   UNL     1      43.970 -14.363   6.776  1.00  0.00     0.026 A 
HETATM    2  C   UNL     1      43.476 -13.114   6.399  1.00  0.00     0.036 A 
HETATM    3 CL   UNL     1      44.053 -11.703   7.199  1.00  0.00    -0.084 Cl
HETATM    4  C   UNL     1      42.511 -12.997   5.395  1.00  0.00     0.056 A 
HETATM    5  C   UNL     1      42.037 -14.141   4.752  1.00  0.00     0.071 A 
HETATM    6  C   UNL     1      42.554 -15.395   5.124  1.00  0.00     0.096 A 
HETATM    7  C   UNL     1      43.504 -15.513   6.140  1.00  0.00     0.041 A 
ENDROOT
BRANCH   5   8
HETATM    8  N   UNL     1      41.044 -14.125   3.748  1.00  0.00    -0.306 N 
HETATM    9  C   UNL     1      41.202 -13.818   2.409  1.00  0.00     0.325 C 
HETATM   10  N   UNL     1      39.974 -13.778   1.770  1.00  0.00    -0.306 N 
HETATM   11  O   UNL     1      42.278 -13.621   1.859  1.00  0.00    -0.247 OA
HETATM   12  H   UNL     1      39.137 -13.778   2.331  1.00  0.00     0.171 HD
HETATM   13  H   UNL     1      40.157 -14.525   4.025  1.00  0.00     0.171 HD
BRANCH  10  14
HETATM   14  C   UNL     1      39.814 -13.588   0.411  1.00  0.00     0.072 A 
HETATM   15  C   UNL     1      39.861 -14.491  -0.675  1.00  0.00     0.169 A 
HETATM   16  N   UNL     1      39.635 -13.888  -1.848  1.00  0.00    -0.185 NA
HETATM   17  N   UNL     1      39.451 -12.602  -1.510  1.00  0.00    -0.287 N 
HETATM   18  H   UNL     1      39.264 -11.935  -2.251  1.00  0.00     0.188 HD
HETATM   19  C   UNL     1      39.543 -12.371  -0.167  1.00  0.00     0.140 A 
ENDBRANCH  10  14
ENDBRANCH   5   8
BRANCH   6  20
HETATM   20  O   UNL     1      42.064 -16.509   4.485  1.00  0.00    -0.340 OA
BRANCH  20  21
HETATM   21  C   UNL     1      43.107 -17.237   3.808  1.00  0.00     0.293 C 
BRANCH  21  22
HETATM   22  C   UNL     1      42.772 -17.364   2.331  1.00  0.00     0.408 C 
HETATM   23  F   UNL     1      41.474 -17.058   2.097  1.00  0.00    -0.169 F 
HETATM   24  F   UNL     1      43.532 -16.525   1.593  1.00  0.00    -0.169 F 
HETATM   25  F   UNL     1      42.989 -18.618   1.876  1.00  0.00    -0.169 F 
ENDBRANCH  21  22
ENDBRANCH  20  21
ENDBRANCH   6  20
TORSDOF 5
ENDMDL
MODEL 9
REMARK VINA RESULT:      -6.6      5.884      8.066
REMARK  5 active torsions:
REMARK  status: ('A' for Active; 'I' for Inactive)
REMARK    1  A    between atoms: C_5  and  N_6 
REMARK       I    between atoms: N_6  and  C_7 
REMARK       I    between atoms: C_7  and  N_8 
REMARK    2  A    between atoms: N_8  and  C_9 
REMARK    3  A    between atoms: C_16  and  O_17 
REMARK    4  A    between atoms: O_17  and  C_18 
REMARK    5  A    between atoms: C_18  and  C_19 
ROOT
HETATM    1  C   UNL     1      41.688 -16.512   4.469  1.00  0.00     0.026 A 
HETATM    2  C   UNL     1      43.000 -16.505   4.944  1.00  0.00     0.036 A 
HETATM    3 CL   UNL     1      44.077 -17.759   4.464  1.00  0.00    -0.084 Cl
HETATM    4  C   UNL     1      43.443 -15.505   5.814  1.00  0.00     0.056 A 
HETATM    5  C   UNL     1      42.568 -14.492   6.210  1.00  0.00     0.071 A 
HETATM    6  C   UNL     1      41.252 -14.495   5.712  1.00  0.00     0.096 A 
HETATM    7  C   UNL     1      40.805 -15.506   4.858  1.00  0.00     0.041 A 
ENDROOT
BRANCH   5   8
HETATM    8  N   UNL     1      42.915 -13.457   7.106  1.00  0.00    -0.306 N 
HETATM    9  C   UNL     1      43.748 -12.380   6.868  1.00  0.00     0.325 C 
HETATM   10  N   UNL     1      43.953 -11.656   8.032  1.00  0.00    -0.306 N 
HETATM   11  O   UNL     1      44.229 -12.094   5.779  1.00  0.00    -0.247 OA
HETATM   12  H   UNL     1      43.665 -12.059   8.909  1.00  0.00     0.171 HD
HETATM   13  H   UNL     1      42.373 -13.439   7.960  1.00  0.00     0.171 HD
BRANCH  10  14
HETATM   14  C   UNL     1      44.663 -10.473   8.093  1.00  0.00     0.072 A 
HETATM   15  C   UNL     1      44.248  -9.138   8.289  1.00  0.00     0.169 A 
HETATM   16  N   UNL     1      45.275  -8.280   8.295  1.00  0.00    -0.185 NA
HETATM   17  N   UNL     1      46.343  -9.069   8.096  1.00  0.00    -0.287 N 
HETATM   18  H   UNL     1      47.258  -8.633   8.057  1.00  0.00     0.188 HD
HETATM   19  C   UNL     1      46.031 -10.393   7.974  1.00  0.00     0.140 A 
ENDBRANCH  10  14
ENDBRANCH   5   8
BRANCH   6  20
HETATM   20  O   UNL     1      40.405 -13.495   6.125  1.00  0.00    -0.340 OA
BRANCH  20  21
HETATM   21  C   UNL     1      39.825 -12.794   5.008  1.00  0.00     0.293 C 
BRANCH  21  22
HETATM   22  C   UNL     1      40.624 -11.533   4.719  1.00  0.00     0.408 C 
HETATM   23  F   UNL     1      39.868 -10.614   4.074  1.00  0.00    -0.169 F 
HETATM   24  F   UNL     1      41.065 -10.971   5.866  1.00  0.00    -0.169 F 
HETATM   25  F   UNL     1      41.704 -11.792   3.949  1.00  0.00    -0.169 F 
ENDBRANCH  21  22
ENDBRANCH  20  21
ENDBRANCH   6  20
TORSDOF 5
ENDMDL
MODEL 10
REMARK VINA RESULT:      -6.5      3.961      6.411
REMARK  5 active torsions:
REMARK  status: ('A' for Active; 'I' for Inactive)
REMARK    1  A    between atoms: C_5  and  N_6 
REMARK       I    between atoms: N_6  and  C_7 
REMARK       I    between atoms: C_7  and  N_8 
REMARK    2  A    between atoms: N_8  and  C_9 
REMARK    3  A    between atoms: C_16  and  O_17 
REMARK    4  A    between atoms: O_17  and  C_18 
REMARK    5  A    between atoms: C_18  and  C_19 
ROOT
HETATM    1  C   UNL     1      39.820 -14.447  -0.163  1.00  0.00     0.026 A 
HETATM    2  C   UNL     1      39.666 -13.115   0.222  1.00  0.00     0.036 A 
HETATM    3 CL   UNL     1      39.129 -11.960  -0.936  1.00  0.00    -0.084 Cl
HETATM    4  C   UNL     1      39.957 -12.706   1.526  1.00  0.00     0.056 A 
HETATM    5  C   UNL     1      40.400 -13.639   2.464  1.00  0.00     0.071 A 
HETATM    6  C   UNL     1      40.534 -14.985   2.074  1.00  0.00     0.096 A 
HETATM    7  C   UNL     1      40.262 -15.389   0.765  1.00  0.00     0.041 A 
ENDROOT
BRANCH   5   8
HETATM    8  N   UNL     1      40.746 -13.316   3.794  1.00  0.00    -0.306 N 
HETATM    9  C   UNL     1      41.930 -12.766   4.249  1.00  0.00     0.325 C 
HETATM   10  N   UNL     1      41.947 -12.723   5.633  1.00  0.00    -0.306 N 
HETATM   11  O   UNL     1      42.834 -12.360   3.530  1.00  0.00    -0.247 OA
HETATM   12  H   UNL     1      41.244 -13.234   6.142  1.00  0.00     0.171 HD
HETATM   13  H   UNL     1      39.979 -13.363   4.452  1.00  0.00     0.171 HD
BRANCH  10  14
HETATM   14  C   UNL     1      42.956 -12.142   6.378  1.00  0.00     0.072 A 
HETATM   15  C   UNL     1      44.177 -12.657   6.866  1.00  0.00     0.169 A 
HETATM   16  N   UNL     1      44.881 -11.741   7.542  1.00  0.00    -0.185 NA
HETATM   17  N   UNL     1      44.106 -10.648   7.489  1.00  0.00    -0.287 N 
HETATM   18  H   UNL     1      44.437  -9.805   7.948  1.00  0.00     0.188 HD
HETATM   19  C   UNL     1      42.942 -10.834   6.798  1.00  0.00     0.140 A 
ENDBRANCH  10  14
ENDBRANCH   5   8
BRANCH   6  20
HETATM   20  O   UNL     1      40.984 -15.885   3.011  1.00  0.00    -0.340 OA
BRANCH  20  21
HETATM   21  C   UNL     1      41.761 -16.937   2.407  1.00  0.00     0.293 C 
BRANCH  21  22
HETATM   22  C   UNL     1      43.238 -16.581   2.455  1.00  0.00     0.408 C 
HETATM   23  F   UNL     1      43.645 -16.031   1.286  1.00  0.00    -0.169 F 
HETATM   24  F   UNL     1      43.485 -15.686   3.437  1.00  0.00    -0.169 F 
HETATM   25  F   UNL     1      44.007 -17.667   2.689  1.00  0.00    -0.169 F 
ENDBRANCH  21  22
ENDBRANCH  20  21
ENDBRANCH   6  20
TORSDOF 5
ENDMDL
