MODEL 1
REMARK VINA RESULT:      -9.0      0.000      0.000
REMARK  8 active torsions:
REMARK  status: ('A' for Active; 'I' for Inactive)
REMARK    1  A    between atoms: C_2  and  C_3 
REMARK    2  A    between atoms: C_3  and  N_4 
REMARK    3  A    between atoms: C_12  and  C_13 
REMARK    4  A    between atoms: C_13  and  N_14 
REMARK    5  A    between atoms: C_22  and  C_23 
REMARK    6  A    between atoms: C_23  and  C_24 
REMARK    7  A    between atoms: C_24  and  N_25 
REMARK       I    between atoms: N_25  and  C_26 
REMARK    8  A    between atoms: C_26  and  C_27 
ROOT
HETATM    1  N   UNL     1      42.889 -12.264   5.975  1.00  0.00    -0.065 N 
HETATM    2  H   UNL     1      43.335 -12.516   5.081  1.00  0.00     0.280 HD
HETATM    3  C   UNL     1      42.430 -10.817   5.811  1.00  0.00     0.255 C 
HETATM    4  C   UNL     1      42.276 -10.082   7.136  1.00  0.00     0.159 C 
HETATM    5  N   UNL     1      43.527  -9.536   7.613  1.00  0.00    -0.319 N 
HETATM    6  C   UNL     1      44.755 -10.156   7.578  1.00  0.00     0.131 A 
HETATM    7  C   UNL     1      45.080 -11.478   6.976  1.00  0.00     0.108 C 
HETATM    8  C   UNL     1      43.952 -12.496   7.050  1.00  0.00     0.243 C 
HETATM    9  C   UNL     1      43.740  -8.299   8.173  1.00  0.00     0.131 A 
HETATM   10  N   UNL     1      45.011  -8.210   8.505  1.00  0.00    -0.135 NA
HETATM   11  N   UNL     1      45.643  -9.359   8.124  1.00  0.00    -0.135 NA
ENDROOT
BRANCH   1  12
HETATM   12  C   UNL     1      41.747 -13.257   6.128  1.00  0.00     0.280 C 
BRANCH  12  13
HETATM   13  C   UNL     1      41.731 -14.351   5.096  1.00  0.00     0.009 A 
HETATM   14  S   UNL     1      43.029 -14.549   3.992  1.00  0.00    -0.096 SA
HETATM   15  C   UNL     1      42.333 -15.954   3.291  1.00  0.00     0.009 A 
HETATM   16  C   UNL     1      41.121 -16.253   3.883  1.00  0.00     0.017 A 
HETATM   17  C   UNL     1      40.772 -15.327   4.912  1.00  0.00     0.017 A 
BRANCH  15  18
HETATM   18  C   UNL     1      43.072 -16.708   2.217  1.00  0.00     0.280 C 
BRANCH  18  19
HETATM   19  N   UNL     1      43.680 -18.015   2.690  1.00  0.00    -0.067 N 
HETATM   20  H   UNL     1      44.627 -18.061   2.295  1.00  0.00     0.280 HD
HETATM   21  C   UNL     1      43.802 -18.097   4.194  1.00  0.00     0.235 C 
HETATM   22  C   UNL     1      44.531 -19.377   4.576  1.00  0.00     0.028 C 
HETATM   23  C   UNL     1      43.835 -20.610   4.011  1.00  0.00     0.003 C 
HETATM   24  C   UNL     1      43.640 -20.489   2.505  1.00  0.00     0.028 C 
HETATM   25  C   UNL     1      42.920 -19.202   2.130  1.00  0.00     0.235 C 
ENDBRANCH  18  19
ENDBRANCH  15  18
ENDBRANCH  12  13
ENDBRANCH   1  12
BRANCH   9  26
HETATM   26  C   UNL     1      42.722  -7.227   8.367  1.00  0.00     0.100 C 
BRANCH  26  27
HETATM   27  C   UNL     1      42.782  -6.593   9.758  1.00  0.00     0.130 C 
BRANCH  27  28
HETATM   28  N   UNL     1      43.054  -7.465  10.896  1.00  0.00    -0.360 N 
HETATM   29  C   UNL     1      42.744  -7.216  12.211  1.00  0.00     0.222 C 
HETATM   30  O   UNL     1      42.338  -6.134  12.629  1.00  0.00    -0.273 OA
HETATM   31  H   UNL     1      43.320  -8.413  10.650  1.00  0.00     0.162 HD
BRANCH  29  32
HETATM   32  C   UNL     1      43.013  -8.413  13.131  1.00  0.00     0.082 C 
HETATM   33  C   UNL     1      42.234  -8.292  14.445  1.00  0.00     0.040 C 
HETATM   34  C   UNL     1      40.749  -8.543  14.223  1.00  0.00     0.168 C 
HETATM   35  O   UNL     1      40.515  -9.813  13.612  1.00  0.00    -0.391 OA
HETATM   36  C   UNL     1      41.174  -9.974  12.361  1.00  0.00     0.168 C 
HETATM   37  C   UNL     1      42.676  -9.745  12.456  1.00  0.00     0.040 C 
ENDBRANCH  29  32
ENDBRANCH  27  28
ENDBRANCH  26  27
ENDBRANCH   9  26
TORSDOF 8
ENDMDL
MODEL 2
REMARK VINA RESULT:      -8.7      3.819     10.839
REMARK  8 active torsions:
REMARK  status: ('A' for Active; 'I' for Inactive)
REMARK    1  A    between atoms: C_2  and  C_3 
REMARK    2  A    between atoms: C_3  and  N_4 
REMARK    3  A    between atoms: C_12  and  C_13 
REMARK    4  A    between atoms: C_13  and  N_14 
REMARK    5  A    between atoms: C_22  and  C_23 
REMARK    6  A    between atoms: C_23  and  C_24 
REMARK    7  A    between atoms: C_24  and  N_25 
REMARK       I    between atoms: N_25  and  C_26 
REMARK    8  A    between atoms: C_26  and  C_27 
ROOT
HETATM    1  N   UNL     1      43.142 -12.535   6.130  1.00  0.00    -0.065 N 
HETATM    2  H   UNL     1      42.567 -11.802   6.569  1.00  0.00     0.280 HD
HETATM    3  C   UNL     1      42.749 -12.534   4.654  1.00  0.00     0.255 C 
HETATM    4  C   UNL     1      43.028 -13.861   3.958  1.00  0.00     0.159 C 
HETATM    5  N   UNL     1      41.962 -14.819   4.148  1.00  0.00    -0.319 N 
HETATM    6  C   UNL     1      41.274 -15.055   5.317  1.00  0.00     0.131 A 
HETATM    7  C   UNL     1      41.419 -14.330   6.609  1.00  0.00     0.108 C 
HETATM    8  C   UNL     1      42.826 -13.823   6.891  1.00  0.00     0.243 C 
HETATM    9  C   UNL     1      41.417 -15.660   3.209  1.00  0.00     0.131 A 
HETATM   10  N   UNL     1      40.498 -16.397   3.797  1.00  0.00    -0.135 NA
HETATM   11  N   UNL     1      40.402 -16.011   5.104  1.00  0.00    -0.135 NA
ENDROOT
BRANCH   1  12
HETATM   12  C   UNL     1      44.577 -12.101   6.384  1.00  0.00     0.280 C 
BRANCH  12  13
HETATM   13  C   UNL     1      44.719 -10.943   7.332  1.00  0.00     0.009 A 
HETATM   14  S   UNL     1      43.351 -10.041   7.842  1.00  0.00    -0.096 SA
HETATM   15  C   UNL     1      44.285  -9.056   8.896  1.00  0.00     0.009 A 
HETATM   16  C   UNL     1      45.621  -9.405   8.843  1.00  0.00     0.017 A 
HETATM   17  C   UNL     1      45.871 -10.481   7.938  1.00  0.00     0.017 A 
BRANCH  15  18
HETATM   18  C   UNL     1      43.611  -8.022   9.758  1.00  0.00     0.280 C 
BRANCH  18  19
HETATM   19  N   UNL     1      43.455  -8.435  11.208  1.00  0.00    -0.067 N 
HETATM   20  H   UNL     1      44.398  -8.630  11.564  1.00  0.00     0.280 HD
HETATM   21  C   UNL     1      42.851  -7.349  12.068  1.00  0.00     0.235 C 
HETATM   22  C   UNL     1      42.843  -7.797  13.522  1.00  0.00     0.028 C 
HETATM   23  C   UNL     1      42.103  -9.117  13.701  1.00  0.00     0.003 C 
HETATM   24  C   UNL     1      42.661 -10.190  12.773  1.00  0.00     0.028 C 
HETATM   25  C   UNL     1      42.674  -9.731  11.322  1.00  0.00     0.235 C 
ENDBRANCH  18  19
ENDBRANCH  15  18
ENDBRANCH  12  13
ENDBRANCH   1  12
BRANCH   9  26
HETATM   26  C   UNL     1      41.783 -15.732   1.765  1.00  0.00     0.100 C 
BRANCH  26  27
HETATM   27  C   UNL     1      42.904 -16.736   1.484  1.00  0.00     0.130 C 
BRANCH  27  28
HETATM   28  N   UNL     1      43.648 -17.266   2.621  1.00  0.00    -0.360 N 
HETATM   29  C   UNL     1      43.786 -18.589   2.964  1.00  0.00     0.222 C 
HETATM   30  O   UNL     1      43.151 -19.504   2.443  1.00  0.00    -0.273 OA
HETATM   31  H   UNL     1      44.267 -16.600   3.070  1.00  0.00     0.162 HD
BRANCH  29  32
HETATM   32  C   UNL     1      44.775 -18.814   4.115  1.00  0.00     0.082 C 
HETATM   33  C   UNL     1      44.591 -17.767   5.218  1.00  0.00     0.040 C 
HETATM   34  C   UNL     1      43.312 -18.022   6.003  1.00  0.00     0.168 C 
HETATM   35  O   UNL     1      43.283 -19.342   6.548  1.00  0.00    -0.391 OA
HETATM   36  C   UNL     1      43.401 -20.367   5.569  1.00  0.00     0.168 C 
HETATM   37  C   UNL     1      44.652 -20.218   4.714  1.00  0.00     0.040 C 
ENDBRANCH  29  32
ENDBRANCH  27  28
ENDBRANCH  26  27
ENDBRANCH   9  26
TORSDOF 8
ENDMDL
MODEL 3
REMARK VINA RESULT:      -8.4      5.256     11.521
REMARK  8 active torsions:
REMARK  status: ('A' for Active; 'I' for Inactive)
REMARK    1  A    between atoms: C_2  and  C_3 
REMARK    2  A    between atoms: C_3  and  N_4 
REMARK    3  A    between atoms: C_12  and  C_13 
REMARK    4  A    between atoms: C_13  and  N_14 
REMARK    5  A    between atoms: C_22  and  C_23 
REMARK    6  A    between atoms: C_23  and  C_24 
REMARK    7  A    between atoms: C_24  and  N_25 
REMARK       I    between atoms: N_25  and  C_26 
REMARK    8  A    between atoms: C_26  and  C_27 
ROOT
HETATM    1  N   UNL     1      43.074 -12.616   6.781  1.00  0.00    -0.065 N 
HETATM    2  H   UNL     1      42.591 -12.312   7.639  1.00  0.00     0.280 HD
HETATM    3  C   UNL     1      42.121 -12.283   5.635  1.00  0.00     0.255 C 
HETATM    4  C   UNL     1      42.358 -13.131   4.392  1.00  0.00     0.159 C 
HETATM    5  N   UNL     1      41.685 -14.409   4.458  1.00  0.00    -0.319 N 
HETATM    6  C   UNL     1      41.600 -15.230   5.559  1.00  0.00     0.131 A 
HETATM    7  C   UNL     1      42.108 -14.954   6.931  1.00  0.00     0.108 C 
HETATM    8  C   UNL     1      43.369 -14.104   6.975  1.00  0.00     0.243 C 
HETATM    9  C   UNL     1      40.990 -15.041   3.456  1.00  0.00     0.131 A 
HETATM   10  N   UNL     1      40.565 -16.199   3.915  1.00  0.00    -0.135 NA
HETATM   11  N   UNL     1      40.934 -16.311   5.225  1.00  0.00    -0.135 NA
ENDROOT
BRANCH   1  12
HETATM   12  C   UNL     1      44.364 -11.812   6.761  1.00  0.00     0.280 C 
BRANCH  12  13
HETATM   13  C   UNL     1      44.459 -10.760   7.832  1.00  0.00     0.009 A 
HETATM   14  S   UNL     1      43.144  -9.708   8.161  1.00  0.00    -0.096 SA
HETATM   15  C   UNL     1      43.963  -8.951   9.467  1.00  0.00     0.009 A 
HETATM   16  C   UNL     1      45.226  -9.485   9.633  1.00  0.00     0.017 A 
HETATM   17  C   UNL     1      45.514 -10.516   8.688  1.00  0.00     0.017 A 
BRANCH  15  18
HETATM   18  C   UNL     1      43.267  -7.896  10.285  1.00  0.00     0.280 C 
BRANCH  18  19
HETATM   19  N   UNL     1      43.167  -8.228  11.761  1.00  0.00    -0.067 N 
HETATM   20  H   UNL     1      44.104  -8.515  12.065  1.00  0.00     0.280 HD
HETATM   21  C   UNL     1      42.750  -7.044  12.604  1.00  0.00     0.235 C 
HETATM   22  C   UNL     1      42.793  -7.427  14.076  1.00  0.00     0.028 C 
HETATM   23  C   UNL     1      41.923  -8.644  14.366  1.00  0.00     0.003 C 
HETATM   24  C   UNL     1      42.290  -9.812  13.458  1.00  0.00     0.028 C 
HETATM   25  C   UNL     1      42.254  -9.418  11.989  1.00  0.00     0.235 C 
ENDBRANCH  18  19
ENDBRANCH  15  18
ENDBRANCH  12  13
ENDBRANCH   1  12
BRANCH   9  26
HETATM   26  C   UNL     1      40.740 -14.515   2.083  1.00  0.00     0.100 C 
BRANCH  26  27
HETATM   27  C   UNL     1      39.625 -13.468   2.041  1.00  0.00     0.130 C 
BRANCH  27  28
HETATM   28  N   UNL     1      39.120 -13.059   0.734  1.00  0.00    -0.360 N 
HETATM   29  C   UNL     1      39.702 -12.156  -0.122  1.00  0.00     0.222 C 
HETATM   30  O   UNL     1      40.654 -11.438   0.178  1.00  0.00    -0.273 OA
HETATM   31  H   UNL     1      38.380 -13.646   0.363  1.00  0.00     0.162 HD
BRANCH  29  32
HETATM   32  C   UNL     1      39.004 -12.083  -1.486  1.00  0.00     0.082 C 
HETATM   33  C   UNL     1      39.904 -11.424  -2.537  1.00  0.00     0.040 C 
HETATM   34  C   UNL     1      41.038 -12.355  -2.944  1.00  0.00     0.168 C 
HETATM   35  O   UNL     1      40.545 -13.610  -3.415  1.00  0.00    -0.391 OA
HETATM   36  C   UNL     1      39.738 -14.299  -2.467  1.00  0.00     0.168 C 
HETATM   37  C   UNL     1      38.562 -13.462  -1.981  1.00  0.00     0.040 C 
ENDBRANCH  29  32
ENDBRANCH  27  28
ENDBRANCH  26  27
ENDBRANCH   9  26
TORSDOF 8
ENDMDL
MODEL 4
REMARK VINA RESULT:      -8.3      1.678      2.859
REMARK  8 active torsions:
REMARK  status: ('A' for Active; 'I' for Inactive)
REMARK    1  A    between atoms: C_2  and  C_3 
REMARK    2  A    between atoms: C_3  and  N_4 
REMARK    3  A    between atoms: C_12  and  C_13 
REMARK    4  A    between atoms: C_13  and  N_14 
REMARK    5  A    between atoms: C_22  and  C_23 
REMARK    6  A    between atoms: C_23  and  C_24 
REMARK    7  A    between atoms: C_24  and  N_25 
REMARK       I    between atoms: N_25  and  C_26 
REMARK    8  A    between atoms: C_26  and  C_27 
ROOT
HETATM    1  N   UNL     1      40.872 -10.006   5.907  1.00  0.00    -0.065 N 
HETATM    2  H   UNL     1      39.882 -10.051   6.187  1.00  0.00     0.280 HD
HETATM    3  C   UNL     1      41.663 -10.503   7.115  1.00  0.00     0.255 C 
HETATM    4  C   UNL     1      43.100  -9.998   7.141  1.00  0.00     0.159 C 
HETATM    5  N   UNL     1      43.211  -8.679   7.726  1.00  0.00    -0.319 N 
HETATM    6  C   UNL     1      42.360  -7.619   7.515  1.00  0.00     0.131 A 
HETATM    7  C   UNL     1      41.106  -7.614   6.712  1.00  0.00     0.108 C 
HETATM    8  C   UNL     1      41.126  -8.550   5.512  1.00  0.00     0.243 C 
HETATM    9  C   UNL     1      44.164  -8.234   8.609  1.00  0.00     0.131 A 
HETATM   10  N   UNL     1      43.929  -6.965   8.866  1.00  0.00    -0.135 NA
HETATM   11  N   UNL     1      42.801  -6.587   8.195  1.00  0.00    -0.135 NA
ENDROOT
BRANCH   1  12
HETATM   12  C   UNL     1      40.970 -10.915   4.692  1.00  0.00     0.280 C 
BRANCH  12  13
HETATM   13  C   UNL     1      41.269 -12.353   5.013  1.00  0.00     0.009 A 
HETATM   14  S   UNL     1      42.848 -12.995   4.818  1.00  0.00    -0.096 SA
HETATM   15  C   UNL     1      42.395 -14.531   5.441  1.00  0.00     0.009 A 
HETATM   16  C   UNL     1      41.055 -14.551   5.776  1.00  0.00     0.017 A 
HETATM   17  C   UNL     1      40.407 -13.305   5.520  1.00  0.00     0.017 A 
BRANCH  15  18
HETATM   18  C   UNL     1      43.428 -15.613   5.608  1.00  0.00     0.280 C 
BRANCH  18  19
HETATM   19  N   UNL     1      43.210 -16.816   4.710  1.00  0.00    -0.067 N 
HETATM   20  H   UNL     1      42.328 -17.250   5.006  1.00  0.00     0.280 HD
HETATM   21  C   UNL     1      43.075 -16.444   3.251  1.00  0.00     0.235 C 
HETATM   22  C   UNL     1      42.737 -17.686   2.439  1.00  0.00     0.028 C 
HETATM   23  C   UNL     1      43.773 -18.785   2.635  1.00  0.00     0.003 C 
HETATM   24  C   UNL     1      43.968 -19.102   4.113  1.00  0.00     0.028 C 
HETATM   25  C   UNL     1      44.296 -17.854   4.919  1.00  0.00     0.235 C 
ENDBRANCH  18  19
ENDBRANCH  15  18
ENDBRANCH  12  13
ENDBRANCH   1  12
BRANCH   9  26
HETATM   26  C   UNL     1      45.273  -9.040   9.196  1.00  0.00     0.100 C 
BRANCH  26  27
HETATM   27  C   UNL     1      44.811  -9.944  10.341  1.00  0.00     0.130 C 
BRANCH  27  28
HETATM   28  N   UNL     1      44.170  -9.317  11.492  1.00  0.00    -0.360 N 
HETATM   29  C   UNL     1      42.869  -9.490  11.899  1.00  0.00     0.222 C 
HETATM   30  O   UNL     1      42.014 -10.076  11.239  1.00  0.00    -0.273 OA
HETATM   31  H   UNL     1      44.809  -8.872  12.143  1.00  0.00     0.162 HD
BRANCH  29  32
HETATM   32  C   UNL     1      42.565  -8.819  13.245  1.00  0.00     0.082 C 
HETATM   33  C   UNL     1      43.089  -7.381  13.281  1.00  0.00     0.040 C 
HETATM   34  C   UNL     1      42.238  -6.469  12.407  1.00  0.00     0.168 C 
HETATM   35  O   UNL     1      40.861  -6.515  12.784  1.00  0.00    -0.391 OA
HETATM   36  C   UNL     1      40.296  -7.819  12.727  1.00  0.00     0.168 C 
HETATM   37  C   UNL     1      41.068  -8.828  13.567  1.00  0.00     0.040 C 
ENDBRANCH  29  32
ENDBRANCH  27  28
ENDBRANCH  26  27
ENDBRANCH   9  26
TORSDOF 8
ENDMDL
MODEL 5
REMARK VINA RESULT:      -8.1      3.642      4.822
REMARK  8 active torsions:
REMARK  status: ('A' for Active; 'I' for Inactive)
REMARK    1  A    between atoms: C_2  and  C_3 
REMARK    2  A    between atoms: C_3  and  N_4 
REMARK    3  A    between atoms: C_12  and  C_13 
REMARK    4  A    between atoms: C_13  and  N_14 
REMARK    5  A    between atoms: C_22  and  C_23 
REMARK    6  A    between atoms: C_23  and  C_24 
REMARK    7  A    between atoms: C_24  and  N_25 
REMARK       I    between atoms: N_25  and  C_26 
REMARK    8  A    between atoms: C_26  and  C_27 
ROOT
HETATM    1  N   UNL     1      42.078 -13.449   5.095  1.00  0.00    -0.065 N 
HETATM    2  H   UNL     1      42.677 -13.844   4.355  1.00  0.00     0.280 HD
HETATM    3  C   UNL     1      42.106 -11.937   4.882  1.00  0.00     0.255 C 
HETATM    4  C   UNL     1      41.783 -11.148   6.144  1.00  0.00     0.159 C 
HETATM    5  N   UNL     1      42.941 -10.958   6.989  1.00  0.00    -0.319 N 
HETATM    6  C   UNL     1      43.906 -11.898   7.275  1.00  0.00     0.131 A 
HETATM    7  C   UNL     1      44.012 -13.277   6.723  1.00  0.00     0.108 C 
HETATM    8  C   UNL     1      42.676 -13.936   6.416  1.00  0.00     0.243 C 
HETATM    9  C   UNL     1      43.316  -9.814   7.651  1.00  0.00     0.131 A 
HETATM   10  N   UNL     1      44.408 -10.073   8.338  1.00  0.00    -0.135 NA
HETATM   11  N   UNL     1      44.780 -11.365   8.095  1.00  0.00    -0.135 NA
ENDROOT
BRANCH   1  12
HETATM   12  C   UNL     1      40.714 -14.078   4.861  1.00  0.00     0.280 C 
BRANCH  12  13
HETATM   13  C   UNL     1      40.463 -14.512   3.443  1.00  0.00     0.009 A 
HETATM   14  S   UNL     1      40.476 -13.381   2.153  1.00  0.00    -0.096 SA
HETATM   15  C   UNL     1      40.229 -14.599   0.967  1.00  0.00     0.009 A 
HETATM   16  C   UNL     1      40.121 -15.845   1.554  1.00  0.00     0.017 A 
HETATM   17  C   UNL     1      40.246 -15.794   2.976  1.00  0.00     0.017 A 
BRANCH  15  18
HETATM   18  C   UNL     1      40.208 -14.238  -0.494  1.00  0.00     0.280 C 
BRANCH  18  19
HETATM   19  N   UNL     1      38.924 -13.569  -0.945  1.00  0.00    -0.067 N 
HETATM   20  H   UNL     1      38.178 -13.916  -0.331  1.00  0.00     0.280 HD
HETATM   21  C   UNL     1      38.967 -12.064  -0.816  1.00  0.00     0.235 C 
HETATM   22  C   UNL     1      37.605 -11.484  -1.169  1.00  0.00     0.028 C 
HETATM   23  C   UNL     1      37.159 -11.905  -2.564  1.00  0.00     0.003 C 
HETATM   24  C   UNL     1      37.194 -13.421  -2.718  1.00  0.00     0.028 C 
HETATM   25  C   UNL     1      38.555 -13.994  -2.354  1.00  0.00     0.235 C 
ENDBRANCH  18  19
ENDBRANCH  15  18
ENDBRANCH  12  13
ENDBRANCH   1  12
BRANCH   9  26
HETATM   26  C   UNL     1      42.623  -8.495   7.600  1.00  0.00     0.100 C 
BRANCH  26  27
HETATM   27  C   UNL     1      41.737  -8.240   8.821  1.00  0.00     0.130 C 
BRANCH  27  28
HETATM   28  N   UNL     1      42.324  -8.429  10.144  1.00  0.00    -0.360 N 
HETATM   29  C   UNL     1      41.848  -9.246  11.141  1.00  0.00     0.222 C 
HETATM   30  O   UNL     1      40.754  -9.806  11.108  1.00  0.00    -0.273 OA
HETATM   31  H   UNL     1      43.266  -8.068  10.244  1.00  0.00     0.162 HD
BRANCH  29  32
HETATM   32  C   UNL     1      42.796  -9.344  12.343  1.00  0.00     0.082 C 
HETATM   33  C   UNL     1      43.498  -8.009  12.609  1.00  0.00     0.040 C 
HETATM   34  C   UNL     1      42.530  -6.994  13.202  1.00  0.00     0.168 C 
HETATM   35  O   UNL     1      41.915  -7.487  14.393  1.00  0.00    -0.391 OA
HETATM   36  C   UNL     1      41.203  -8.705  14.205  1.00  0.00     0.168 C 
HETATM   37  C   UNL     1      42.073  -9.805  13.611  1.00  0.00     0.040 C 
ENDBRANCH  29  32
ENDBRANCH  27  28
ENDBRANCH  26  27
ENDBRANCH   9  26
TORSDOF 8
ENDMDL
MODEL 6
REMARK VINA RESULT:      -8.1      5.161     11.563
REMARK  8 active torsions:
REMARK  status: ('A' for Active; 'I' for Inactive)
REMARK    1  A    between atoms: C_2  and  C_3 
REMARK    2  A    between atoms: C_3  and  N_4 
REMARK    3  A    between atoms: C_12  and  C_13 
REMARK    4  A    between atoms: C_13  and  N_14 
REMARK    5  A    between atoms: C_22  and  C_23 
REMARK    6  A    between atoms: C_23  and  C_24 
REMARK    7  A    between atoms: C_24  and  N_25 
REMARK       I    between atoms: N_25  and  C_26 
REMARK    8  A    between atoms: C_26  and  C_27 
ROOT
HETATM    1  N   UNL     1      42.982 -12.296   6.690  1.00  0.00    -0.065 N 
HETATM    2  H   UNL     1      42.381 -12.075   7.497  1.00  0.00     0.280 HD
HETATM    3  C   UNL     1      42.038 -12.411   5.495  1.00  0.00     0.255 C 
HETATM    4  C   UNL     1      42.601 -13.263   4.365  1.00  0.00     0.159 C 
HETATM    5  N   UNL     1      42.367 -14.675   4.569  1.00  0.00    -0.319 N 
HETATM    6  C   UNL     1      42.488 -15.359   5.758  1.00  0.00     0.131 A 
HETATM    7  C   UNL     1      42.805 -14.791   7.097  1.00  0.00     0.108 C 
HETATM    8  C   UNL     1      43.725 -13.580   7.063  1.00  0.00     0.243 C 
HETATM    9  C   UNL     1      41.966 -15.600   3.636  1.00  0.00     0.131 A 
HETATM   10  N   UNL     1      41.908 -16.778   4.221  1.00  0.00    -0.135 NA
HETATM   11  N   UNL     1      42.220 -16.625   5.541  1.00  0.00    -0.135 NA
ENDROOT
BRANCH   1  12
HETATM   12  C   UNL     1      43.949 -11.126   6.599  1.00  0.00     0.280 C 
BRANCH  12  13
HETATM   13  C   UNL     1      44.266 -10.476   7.918  1.00  0.00     0.009 A 
HETATM   14  S   UNL     1      43.038  -9.734   8.860  1.00  0.00    -0.096 SA
HETATM   15  C   UNL     1      44.123  -9.362  10.139  1.00  0.00     0.009 A 
HETATM   16  C   UNL     1      45.403  -9.785   9.839  1.00  0.00     0.017 A 
HETATM   17  C   UNL     1      45.487 -10.415   8.560  1.00  0.00     0.017 A 
BRANCH  15  18
HETATM   18  C   UNL     1      43.613  -8.711  11.397  1.00  0.00     0.280 C 
BRANCH  18  19
HETATM   19  N   UNL     1      42.107  -8.782  11.560  1.00  0.00    -0.067 N 
HETATM   20  H   UNL     1      41.718  -8.985  10.631  1.00  0.00     0.280 HD
HETATM   21  C   UNL     1      41.667  -9.884  12.496  1.00  0.00     0.235 C 
HETATM   22  C   UNL     1      40.148  -9.966  12.507  1.00  0.00     0.028 C 
HETATM   23  C   UNL     1      39.515  -8.633  12.888  1.00  0.00     0.003 C 
HETATM   24  C   UNL     1      40.022  -7.508  11.995  1.00  0.00     0.028 C 
HETATM   25  C   UNL     1      41.542  -7.439  11.981  1.00  0.00     0.235 C 
ENDBRANCH  18  19
ENDBRANCH  15  18
ENDBRANCH  12  13
ENDBRANCH   1  12
BRANCH   9  26
HETATM   26  C   UNL     1      41.638 -15.331   2.206  1.00  0.00     0.100 C 
BRANCH  26  27
HETATM   27  C   UNL     1      40.195 -14.864   2.005  1.00  0.00     0.130 C 
BRANCH  27  28
HETATM   28  N   UNL     1      39.690 -14.771   0.638  1.00  0.00    -0.360 N 
HETATM   29  C   UNL     1      40.114 -13.896  -0.333  1.00  0.00     0.222 C 
HETATM   30  O   UNL     1      40.870 -12.951  -0.124  1.00  0.00    -0.273 OA
HETATM   31  H   UNL     1      39.116 -15.554   0.345  1.00  0.00     0.162 HD
BRANCH  29  32
HETATM   32  C   UNL     1      39.497 -14.178  -1.708  1.00  0.00     0.082 C 
HETATM   33  C   UNL     1      38.165 -13.441  -1.883  1.00  0.00     0.040 C 
HETATM   34  C   UNL     1      38.391 -11.946  -2.069  1.00  0.00     0.168 C 
HETATM   35  O   UNL     1      39.265 -11.680  -3.167  1.00  0.00    -0.391 OA
HETATM   36  C   UNL     1      40.541 -12.298  -3.045  1.00  0.00     0.168 C 
HETATM   37  C   UNL     1      40.444 -13.805  -2.852  1.00  0.00     0.040 C 
ENDBRANCH  29  32
ENDBRANCH  27  28
ENDBRANCH  26  27
ENDBRANCH   9  26
TORSDOF 8
ENDMDL
MODEL 7
REMARK VINA RESULT:      -8.0      5.070     11.515
REMARK  8 active torsions:
REMARK  status: ('A' for Active; 'I' for Inactive)
REMARK    1  A    between atoms: C_2  and  C_3 
REMARK    2  A    between atoms: C_3  and  N_4 
REMARK    3  A    between atoms: C_12  and  C_13 
REMARK    4  A    between atoms: C_13  and  N_14 
REMARK    5  A    between atoms: C_22  and  C_23 
REMARK    6  A    between atoms: C_23  and  C_24 
REMARK    7  A    between atoms: C_24  and  N_25 
REMARK       I    between atoms: N_25  and  C_26 
REMARK    8  A    between atoms: C_26  and  C_27 
ROOT
HETATM    1  N   UNL     1      41.915 -11.978   6.525  1.00  0.00    -0.065 N 
HETATM    2  H   UNL     1      41.842 -12.015   7.552  1.00  0.00     0.280 HD
HETATM    3  C   UNL     1      40.699 -12.738   6.000  1.00  0.00     0.255 C 
HETATM    4  C   UNL     1      40.896 -13.288   4.593  1.00  0.00     0.159 C 
HETATM    5  N   UNL     1      41.580 -14.562   4.590  1.00  0.00    -0.319 N 
HETATM    6  C   UNL     1      42.659 -14.912   5.370  1.00  0.00     0.131 A 
HETATM    7  C   UNL     1      43.304 -14.095   6.435  1.00  0.00     0.108 C 
HETATM    8  C   UNL     1      43.271 -12.595   6.182  1.00  0.00     0.243 C 
HETATM    9  C   UNL     1      41.284 -15.669   3.831  1.00  0.00     0.131 A 
HETATM   10  N   UNL     1      42.170 -16.604   4.101  1.00  0.00    -0.135 NA
HETATM   11  N   UNL     1      43.016 -16.137   5.066  1.00  0.00    -0.135 NA
ENDROOT
BRANCH   1  12
HETATM   12  C   UNL     1      41.902 -10.494   6.193  1.00  0.00     0.280 C 
BRANCH  12  13
HETATM   13  C   UNL     1      41.154  -9.641   7.180  1.00  0.00     0.009 A 
HETATM   14  S   UNL     1      41.883  -9.138   8.649  1.00  0.00    -0.096 SA
HETATM   15  C   UNL     1      40.517  -8.202   9.107  1.00  0.00     0.009 A 
HETATM   16  C   UNL     1      39.518  -8.289   8.157  1.00  0.00     0.017 A 
HETATM   17  C   UNL     1      39.880  -9.123   7.056  1.00  0.00     0.017 A 
BRANCH  15  18
HETATM   18  C   UNL     1      40.549  -7.389  10.374  1.00  0.00     0.280 C 
BRANCH  18  19
HETATM   19  N   UNL     1      41.296  -8.054  11.514  1.00  0.00    -0.067 N 
HETATM   20  H   UNL     1      41.671  -8.937  11.147  1.00  0.00     0.280 HD
HETATM   21  C   UNL     1      42.459  -7.230  12.016  1.00  0.00     0.235 C 
HETATM   22  C   UNL     1      43.225  -8.019  13.067  1.00  0.00     0.028 C 
HETATM   23  C   UNL     1      42.321  -8.452  14.215  1.00  0.00     0.003 C 
HETATM   24  C   UNL     1      41.105  -9.213  13.700  1.00  0.00     0.028 C 
HETATM   25  C   UNL     1      40.350  -8.422  12.642  1.00  0.00     0.235 C 
ENDBRANCH  18  19
ENDBRANCH  15  18
ENDBRANCH  12  13
ENDBRANCH   1  12
BRANCH   9  26
HETATM   26  C   UNL     1      40.150 -15.807   2.872  1.00  0.00     0.100 C 
BRANCH  26  27
HETATM   27  C   UNL     1      40.580 -15.631   1.413  1.00  0.00     0.130 C 
BRANCH  27  28
HETATM   28  N   UNL     1      39.823 -14.698   0.584  1.00  0.00    -0.360 N 
HETATM   29  C   UNL     1      40.159 -13.396   0.303  1.00  0.00     0.222 C 
HETATM   30  O   UNL     1      41.070 -12.785   0.857  1.00  0.00    -0.273 OA
HETATM   31  H   UNL     1      39.095 -15.126   0.023  1.00  0.00     0.162 HD
BRANCH  29  32
HETATM   32  C   UNL     1      39.237 -12.749  -0.738  1.00  0.00     0.082 C 
HETATM   33  C   UNL     1      39.954 -11.625  -1.494  1.00  0.00     0.040 C 
HETATM   34  C   UNL     1      40.983 -12.191  -2.464  1.00  0.00     0.168 C 
HETATM   35  O   UNL     1      40.391 -13.117  -3.377  1.00  0.00    -0.391 OA
HETATM   36  C   UNL     1      39.747 -14.214  -2.740  1.00  0.00     0.168 C 
HETATM   37  C   UNL     1      38.690 -13.771  -1.738  1.00  0.00     0.040 C 
ENDBRANCH  29  32
ENDBRANCH  27  28
ENDBRANCH  26  27
ENDBRANCH   9  26
TORSDOF 8
ENDMDL
MODEL 8
REMARK VINA RESULT:      -8.0      4.036     10.444
REMARK  8 active torsions:
REMARK  status: ('A' for Active; 'I' for Inactive)
REMARK    1  A    between atoms: C_2  and  C_3 
REMARK    2  A    between atoms: C_3  and  N_4 
REMARK    3  A    between atoms: C_12  and  C_13 
REMARK    4  A    between atoms: C_13  and  N_14 
REMARK    5  A    between atoms: C_22  and  C_23 
REMARK    6  A    between atoms: C_23  and  C_24 
REMARK    7  A    between atoms: C_24  and  N_25 
REMARK       I    between atoms: N_25  and  C_26 
REMARK    8  A    between atoms: C_26  and  C_27 
ROOT
HETATM    1  N   UNL     1      42.574 -10.918   5.919  1.00  0.00    -0.065 N 
HETATM    2  H   UNL     1      42.202 -10.184   6.540  1.00  0.00     0.280 HD
HETATM    3  C   UNL     1      42.456 -10.356   4.504  1.00  0.00     0.255 C 
HETATM    4  C   UNL     1      42.404 -11.437   3.432  1.00  0.00     0.159 C 
HETATM    5  N   UNL     1      41.069 -11.959   3.239  1.00  0.00    -0.319 N 
HETATM    6  C   UNL     1      40.157 -12.254   4.226  1.00  0.00     0.131 A 
HETATM    7  C   UNL     1      40.309 -12.030   5.690  1.00  0.00     0.108 C 
HETATM    8  C   UNL     1      41.736 -12.165   6.201  1.00  0.00     0.243 C 
HETATM    9  C   UNL     1      40.447 -12.244   2.048  1.00  0.00     0.131 A 
HETATM   10  N   UNL     1      39.254 -12.735   2.312  1.00  0.00    -0.135 NA
HETATM   11  N   UNL     1      39.071 -12.730   3.665  1.00  0.00    -0.135 NA
ENDROOT
BRANCH   1  12
HETATM   12  C   UNL     1      44.008 -11.121   6.382  1.00  0.00     0.280 C 
BRANCH  12  13
HETATM   13  C   UNL     1      44.322 -10.515   7.723  1.00  0.00     0.009 A 
HETATM   14  S   UNL     1      43.102  -9.758   8.662  1.00  0.00    -0.096 SA
HETATM   15  C   UNL     1      44.175  -9.454   9.968  1.00  0.00     0.009 A 
HETATM   16  C   UNL     1      45.447  -9.911   9.680  1.00  0.00     0.017 A 
HETATM   17  C   UNL     1      45.533 -10.510   8.387  1.00  0.00     0.017 A 
BRANCH  15  18
HETATM   18  C   UNL     1      43.664  -8.819  11.234  1.00  0.00     0.280 C 
BRANCH  18  19
HETATM   19  N   UNL     1      42.181  -9.027  11.471  1.00  0.00    -0.067 N 
HETATM   20  H   UNL     1      41.812  -9.506  10.641  1.00  0.00     0.280 HD
HETATM   21  C   UNL     1      41.894  -9.898  12.673  1.00  0.00     0.235 C 
HETATM   22  C   UNL     1      40.397 -10.158  12.767  1.00  0.00     0.028 C 
HETATM   23  C   UNL     1      39.604  -8.859  12.826  1.00  0.00     0.003 C 
HETATM   24  C   UNL     1      39.954  -7.946  11.657  1.00  0.00     0.028 C 
HETATM   25  C   UNL     1      41.453  -7.699  11.564  1.00  0.00     0.235 C 
ENDBRANCH  18  19
ENDBRANCH  15  18
ENDBRANCH  12  13
ENDBRANCH   1  12
BRANCH   9  26
HETATM   26  C   UNL     1      41.007 -12.029   0.682  1.00  0.00     0.100 C 
BRANCH  26  27
HETATM   27  C   UNL     1      41.168 -13.330  -0.107  1.00  0.00     0.130 C 
BRANCH  27  28
HETATM   28  N   UNL     1      41.025 -14.590   0.614  1.00  0.00    -0.360 N 
HETATM   29  C   UNL     1      41.962 -15.177   1.430  1.00  0.00     0.222 C 
HETATM   30  O   UNL     1      43.125 -14.793   1.528  1.00  0.00    -0.273 OA
HETATM   31  H   UNL     1      40.077 -14.948   0.657  1.00  0.00     0.162 HD
BRANCH  29  32
HETATM   32  C   UNL     1      41.429 -16.410   2.169  1.00  0.00     0.082 C 
HETATM   33  C   UNL     1      42.565 -17.360   2.558  1.00  0.00     0.040 C 
HETATM   34  C   UNL     1      43.390 -16.784   3.702  1.00  0.00     0.168 C 
HETATM   35  O   UNL     1      42.576 -16.479   4.835  1.00  0.00    -0.391 OA
HETATM   36  C   UNL     1      41.525 -15.561   4.553  1.00  0.00     0.168 C 
HETATM   37  C   UNL     1      40.627 -16.031   3.418  1.00  0.00     0.040 C 
ENDBRANCH  29  32
ENDBRANCH  27  28
ENDBRANCH  26  27
ENDBRANCH   9  26
TORSDOF 8
ENDMDL
MODEL 9
REMARK VINA RESULT:      -8.0      2.829      3.966
REMARK  8 active torsions:
REMARK  status: ('A' for Active; 'I' for Inactive)
REMARK    1  A    between atoms: C_2  and  C_3 
REMARK    2  A    between atoms: C_3  and  N_4 
REMARK    3  A    between atoms: C_12  and  C_13 
REMARK    4  A    between atoms: C_13  and  N_14 
REMARK    5  A    between atoms: C_22  and  C_23 
REMARK    6  A    between atoms: C_23  and  C_24 
REMARK    7  A    between atoms: C_24  and  N_25 
REMARK       I    between atoms: N_25  and  C_26 
REMARK    8  A    between atoms: C_26  and  C_27 
ROOT
HETATM    1  N   UNL     1      42.918 -12.370   5.614  1.00  0.00    -0.065 N 
HETATM    2  H   UNL     1      43.399 -12.564   4.724  1.00  0.00     0.280 HD
HETATM    3  C   UNL     1      42.496 -10.904   5.540  1.00  0.00     0.255 C 
HETATM    4  C   UNL     1      42.296 -10.267   6.910  1.00  0.00     0.159 C 
HETATM    5  N   UNL     1      43.535  -9.788   7.482  1.00  0.00    -0.319 N 
HETATM    6  C   UNL     1      44.751 -10.432   7.453  1.00  0.00     0.131 A 
HETATM    7  C   UNL     1      45.076 -11.713   6.767  1.00  0.00     0.108 C 
HETATM    8  C   UNL     1      43.926 -12.707   6.713  1.00  0.00     0.243 C 
HETATM    9  C   UNL     1      43.748  -8.602   8.142  1.00  0.00     0.131 A 
HETATM   10  N   UNL     1      45.003  -8.567   8.536  1.00  0.00    -0.135 NA
HETATM   11  N   UNL     1      45.628  -9.699   8.097  1.00  0.00    -0.135 NA
ENDROOT
BRANCH   1  12
HETATM   12  C   UNL     1      41.751 -13.344   5.640  1.00  0.00     0.280 C 
BRANCH  12  13
HETATM   13  C   UNL     1      41.068 -13.535   4.314  1.00  0.00     0.009 A 
HETATM   14  S   UNL     1      41.758 -14.527   3.096  1.00  0.00    -0.096 SA
HETATM   15  C   UNL     1      40.421 -14.308   2.039  1.00  0.00     0.009 A 
HETATM   16  C   UNL     1      39.475 -13.476   2.606  1.00  0.00     0.017 A 
HETATM   17  C   UNL     1      39.851 -13.025   3.907  1.00  0.00     0.017 A 
BRANCH  15  18
HETATM   18  C   UNL     1      40.377 -15.028   0.717  1.00  0.00     0.280 C 
BRANCH  18  19
HETATM   19  N   UNL     1      40.576 -14.124  -0.484  1.00  0.00    -0.067 N 
HETATM   20  H   UNL     1      41.447 -14.422  -0.938  1.00  0.00     0.280 HD
HETATM   21  C   UNL     1      39.461 -14.241  -1.499  1.00  0.00     0.235 C 
HETATM   22  C   UNL     1      39.798 -13.400  -2.722  1.00  0.00     0.028 C 
HETATM   23  C   UNL     1      40.055 -11.945  -2.350  1.00  0.00     0.003 C 
HETATM   24  C   UNL     1      41.122 -11.834  -1.267  1.00  0.00     0.028 C 
HETATM   25  C   UNL     1      40.783 -12.685  -0.052  1.00  0.00     0.235 C 
ENDBRANCH  18  19
ENDBRANCH  15  18
ENDBRANCH  12  13
ENDBRANCH   1  12
BRANCH   9  26
HETATM   26  C   UNL     1      42.743  -7.524   8.372  1.00  0.00     0.100 C 
BRANCH  26  27
HETATM   27  C   UNL     1      42.962  -6.777   9.690  1.00  0.00     0.130 C 
BRANCH  27  28
HETATM   28  N   UNL     1      43.176  -7.567  10.898  1.00  0.00    -0.360 N 
HETATM   29  C   UNL     1      42.708  -7.280  12.157  1.00  0.00     0.222 C 
HETATM   30  O   UNL     1      42.179  -6.215  12.468  1.00  0.00    -0.273 OA
HETATM   31  H   UNL     1      43.537  -8.501  10.734  1.00  0.00     0.162 HD
BRANCH  29  32
HETATM   32  C   UNL     1      42.966  -8.406  13.167  1.00  0.00     0.082 C 
HETATM   33  C   UNL     1      42.226  -8.152  14.484  1.00  0.00     0.040 C 
HETATM   34  C   UNL     1      40.729  -8.373  14.319  1.00  0.00     0.168 C 
HETATM   35  O   UNL     1      40.441  -9.681  13.821  1.00  0.00    -0.391 OA
HETATM   36  C   UNL     1      41.061  -9.966  12.573  1.00  0.00     0.168 C 
HETATM   37  C   UNL     1      42.572  -9.777  12.613  1.00  0.00     0.040 C 
ENDBRANCH  29  32
ENDBRANCH  27  28
ENDBRANCH  26  27
ENDBRANCH   9  26
TORSDOF 8
ENDMDL
MODEL 10
REMARK VINA RESULT:      -7.9      6.452      9.488
REMARK  8 active torsions:
REMARK  status: ('A' for Active; 'I' for Inactive)
REMARK    1  A    between atoms: C_2  and  C_3 
REMARK    2  A    between atoms: C_3  and  N_4 
REMARK    3  A    between atoms: C_12  and  C_13 
REMARK    4  A    between atoms: C_13  and  N_14 
REMARK    5  A    between atoms: C_22  and  C_23 
REMARK    6  A    between atoms: C_23  and  C_24 
REMARK    7  A    between atoms: C_24  and  N_25 
REMARK       I    between atoms: N_25  and  C_26 
REMARK    8  A    between atoms: C_26  and  C_27 
ROOT
HETATM    1  N   UNL     1      39.830 -13.852   4.753  1.00  0.00    -0.065 N 
HETATM    2  H   UNL     1      38.882 -14.238   4.875  1.00  0.00     0.280 HD
HETATM    3  C   UNL     1      39.629 -12.438   4.212  1.00  0.00     0.255 C 
HETATM    4  C   UNL     1      40.835 -11.914   3.442  1.00  0.00     0.159 C 
HETATM    5  N   UNL     1      40.838 -12.344   2.061  1.00  0.00    -0.319 N 
HETATM    6  C   UNL     1      40.512 -13.597   1.596  1.00  0.00     0.131 A 
HETATM    7  C   UNL     1      40.012 -14.752   2.391  1.00  0.00     0.108 C 
HETATM    8  C   UNL     1      40.553 -14.817   3.812  1.00  0.00     0.243 C 
HETATM    9  C   UNL     1      41.146 -11.593   0.953  1.00  0.00     0.131 A 
HETATM   10  N   UNL     1      41.064 -12.369  -0.107  1.00  0.00    -0.135 NA
HETATM   11  N   UNL     1      40.658 -13.610   0.292  1.00  0.00    -0.135 NA
ENDROOT
BRANCH   1  12
HETATM   12  C   UNL     1      40.445 -13.897   6.142  1.00  0.00     0.280 C 
BRANCH  12  13
HETATM   13  C   UNL     1      41.680 -14.749   6.249  1.00  0.00     0.009 A 
HETATM   14  S   UNL     1      41.584 -16.461   6.209  1.00  0.00    -0.096 SA
HETATM   15  C   UNL     1      43.290 -16.646   6.279  1.00  0.00     0.009 A 
HETATM   16  C   UNL     1      43.917 -15.417   6.349  1.00  0.00     0.017 A 
HETATM   17  C   UNL     1      42.992 -14.329   6.342  1.00  0.00     0.017 A 
BRANCH  15  18
HETATM   18  C   UNL     1      43.905 -18.018   6.207  1.00  0.00     0.280 C 
BRANCH  18  19
HETATM   19  N   UNL     1      43.547 -18.788   4.951  1.00  0.00    -0.067 N 
HETATM   20  H   UNL     1      42.546 -19.007   5.012  1.00  0.00     0.280 HD
HETATM   21  C   UNL     1      43.769 -17.988   3.687  1.00  0.00     0.235 C 
HETATM   22  C   UNL     1      43.272 -18.783   2.488  1.00  0.00     0.028 C 
HETATM   23  C   UNL     1      43.943 -20.149   2.402  1.00  0.00     0.003 C 
HETATM   24  C   UNL     1      43.788 -20.921   3.706  1.00  0.00     0.028 C 
HETATM   25  C   UNL     1      44.278 -20.116   4.901  1.00  0.00     0.235 C 
ENDBRANCH  18  19
ENDBRANCH  15  18
ENDBRANCH  12  13
ENDBRANCH   1  12
BRANCH   9  26
HETATM   26  C   UNL     1      41.501 -10.145   0.935  1.00  0.00     0.100 C 
BRANCH  26  27
HETATM   27  C   UNL     1      40.417  -9.274   0.295  1.00  0.00     0.130 C 
BRANCH  27  28
HETATM   28  N   UNL     1      39.765  -9.770  -0.913  1.00  0.00    -0.360 N 
HETATM   29  C   UNL     1      38.533 -10.372  -0.989  1.00  0.00     0.222 C 
HETATM   30  O   UNL     1      37.880 -10.728  -0.010  1.00  0.00    -0.273 OA
HETATM   31  H   UNL     1      40.188  -9.459  -1.781  1.00  0.00     0.162 HD
BRANCH  29  32
HETATM   32  C   UNL     1      38.070 -10.618  -2.430  1.00  0.00     0.082 C 
HETATM   33  C   UNL     1      39.262 -10.720  -3.387  1.00  0.00     0.040 C 
HETATM   34  C   UNL     1      40.007 -12.033  -3.192  1.00  0.00     0.168 C 
HETATM   35  O   UNL     1      39.139 -13.158  -3.343  1.00  0.00    -0.391 OA
HETATM   36  C   UNL     1      38.032 -13.150  -2.448  1.00  0.00     0.168 C 
HETATM   37  C   UNL     1      37.206 -11.875  -2.551  1.00  0.00     0.040 C 
ENDBRANCH  29  32
ENDBRANCH  27  28
ENDBRANCH  26  27
ENDBRANCH   9  26
TORSDOF 8
ENDMDL
