MODEL 1
REMARK VINA RESULT:      -8.5      0.000      0.000
REMARK  6 active torsions:
REMARK  status: ('A' for Active; 'I' for Inactive)
REMARK       I    between atoms: C_2  and  N_3 
REMARK    1  A    between atoms: N_3  and  C_4 
REMARK    2  A    between atoms: C_7  and  N_8 
REMARK       I    between atoms: N_8  and  C_9 
REMARK    3  A    between atoms: C_9  and  C_10 
REMARK    4  A    between atoms: C_10  and  S_11 
REMARK    5  A    between atoms: S_11  and  C_12 
REMARK    6  A    between atoms: C_15  and  C_16 
ROOT
HETATM    1  N   UNL     1      41.446 -13.220   3.437  1.00  0.00    -0.327 N 
HETATM    2  C   UNL     1      42.766 -12.873   3.658  1.00  0.00     0.231 C 
HETATM    3  O   UNL     1      43.651 -12.805   2.809  1.00  0.00    -0.272 OA
HETATM    4  H   UNL     1      40.817 -13.078   4.231  1.00  0.00     0.169 HD
ENDROOT
BRANCH   2   5
HETATM    5  C   UNL     1      43.070 -12.586   5.123  1.00  0.00     0.185 C 
BRANCH   5   6
HETATM    6  S   UNL     1      42.214 -13.754   6.216  1.00  0.00    -0.083 SA
BRANCH   6   7
HETATM    7  C   UNL     1      43.154 -15.180   5.997  1.00  0.00     0.167 A 
HETATM    8  N   UNL     1      44.262 -15.509   6.615  1.00  0.00    -0.235 NA
HETATM    9  C   UNL     1      44.613 -16.718   6.060  1.00  0.00     0.149 A 
HETATM   10  C   UNL     1      43.723 -17.115   5.073  1.00  0.00     0.062 A 
HETATM   11  N   UNL     1      42.784 -16.107   5.073  1.00  0.00    -0.333 N 
HETATM   12  H   UNL     1      41.958 -16.044   4.496  1.00  0.00     0.168 HD
BRANCH  10  13
HETATM   13  C   UNL     1      43.691 -18.289   4.199  1.00  0.00    -0.008 A 
HETATM   14  C   UNL     1      43.238 -18.176   2.876  1.00  0.00     0.014 A 
HETATM   15  C   UNL     1      43.189 -19.290   2.034  1.00  0.00     0.001 A 
HETATM   16  C   UNL     1      43.593 -20.536   2.501  1.00  0.00     0.000 A 
HETATM   17  C   UNL     1      44.046 -20.669   3.811  1.00  0.00     0.001 A 
HETATM   18  C   UNL     1      44.093 -19.554   4.654  1.00  0.00     0.014 A 
ENDBRANCH  10  13
ENDBRANCH   6   7
ENDBRANCH   5   6
ENDBRANCH   2   5
BRANCH   1  19
HETATM   19  C   UNL     1      40.843 -13.629   2.234  1.00  0.00     0.034 A 
HETATM   20  C   UNL     1      40.752 -14.954   1.815  1.00  0.00     0.032 A 
HETATM   21  C   UNL     1      40.100 -15.281   0.614  1.00  0.00     0.032 A 
HETATM   22  C   UNL     1      39.532 -14.288  -0.182  1.00  0.00     0.034 A 
HETATM   23  C   UNL     1      39.637 -12.956   0.234  1.00  0.00     0.032 A 
HETATM   24  C   UNL     1      40.284 -12.631   1.431  1.00  0.00     0.032 A 
BRANCH  22  25
HETATM   25  N   UNL     1      38.839 -14.533  -1.385  1.00  0.00    -0.328 N 
HETATM   26  C   UNL     1      39.321 -14.407  -2.676  1.00  0.00     0.218 C 
HETATM   27  C   UNL     1      38.301 -14.796  -3.717  1.00  0.00     0.117 C 
HETATM   28  O   UNL     1      40.431 -14.013  -3.013  1.00  0.00    -0.274 OA
HETATM   29  H   UNL     1      37.883 -14.846  -1.284  1.00  0.00     0.169 HD
ENDBRANCH  22  25
ENDBRANCH   1  19
TORSDOF 6
ENDMDL
MODEL 2
REMARK VINA RESULT:      -8.0      1.288      1.986
REMARK  6 active torsions:
REMARK  status: ('A' for Active; 'I' for Inactive)
REMARK       I    between atoms: C_2  and  N_3 
REMARK    1  A    between atoms: N_3  and  C_4 
REMARK    2  A    between atoms: C_7  and  N_8 
REMARK       I    between atoms: N_8  and  C_9 
REMARK    3  A    between atoms: C_9  and  C_10 
REMARK    4  A    between atoms: C_10  and  S_11 
REMARK    5  A    between atoms: S_11  and  C_12 
REMARK    6  A    between atoms: C_15  and  C_16 
ROOT
HETATM    1  N   UNL     1      42.594 -12.531   2.978  1.00  0.00    -0.327 N 
HETATM    2  C   UNL     1      42.325 -11.931   4.194  1.00  0.00     0.231 C 
HETATM    3  O   UNL     1      41.219 -11.596   4.610  1.00  0.00    -0.272 OA
HETATM    4  H   UNL     1      43.550 -12.877   2.861  1.00  0.00     0.169 HD
ENDROOT
BRANCH   2   5
HETATM    5  C   UNL     1      43.577 -11.678   5.023  1.00  0.00     0.185 C 
BRANCH   5   6
HETATM    6  S   UNL     1      43.516 -12.568   6.603  1.00  0.00    -0.083 SA
BRANCH   6   7
HETATM    7  C   UNL     1      42.798 -14.059   6.128  1.00  0.00     0.167 A 
HETATM    8  N   UNL     1      41.621 -14.524   6.470  1.00  0.00    -0.235 NA
HETATM    9  C   UNL     1      41.546 -15.748   5.848  1.00  0.00     0.149 A 
HETATM   10  C   UNL     1      42.702 -16.043   5.140  1.00  0.00     0.062 A 
HETATM   11  N   UNL     1      43.480 -14.922   5.329  1.00  0.00    -0.333 N 
HETATM   12  H   UNL     1      44.400 -14.749   4.951  1.00  0.00     0.168 HD
BRANCH  10  13
HETATM   13  C   UNL     1      43.096 -17.214   4.354  1.00  0.00    -0.008 A 
HETATM   14  C   UNL     1      43.876 -18.226   4.932  1.00  0.00     0.014 A 
HETATM   15  C   UNL     1      44.272 -19.343   4.191  1.00  0.00     0.001 A 
HETATM   16  C   UNL     1      43.892 -19.465   2.858  1.00  0.00     0.000 A 
HETATM   17  C   UNL     1      43.118 -18.471   2.266  1.00  0.00     0.001 A 
HETATM   18  C   UNL     1      42.725 -17.352   3.008  1.00  0.00     0.014 A 
ENDBRANCH  10  13
ENDBRANCH   6   7
ENDBRANCH   5   6
ENDBRANCH   2   5
BRANCH   1  19
HETATM   19  C   UNL     1      41.698 -12.826   1.935  1.00  0.00     0.034 A 
HETATM   20  C   UNL     1      41.198 -11.883   1.040  1.00  0.00     0.032 A 
HETATM   21  C   UNL     1      40.333 -12.269   0.003  1.00  0.00     0.032 A 
HETATM   22  C   UNL     1      39.956 -13.603  -0.152  1.00  0.00     0.034 A 
HETATM   23  C   UNL     1      40.447 -14.546   0.757  1.00  0.00     0.032 A 
HETATM   24  C   UNL     1      41.311 -14.162   1.788  1.00  0.00     0.032 A 
BRANCH  22  25
HETATM   25  N   UNL     1      39.115 -14.077  -1.179  1.00  0.00    -0.328 N 
HETATM   26  C   UNL     1      39.437 -14.268  -2.510  1.00  0.00     0.218 C 
HETATM   27  C   UNL     1      38.287 -14.830  -3.311  1.00  0.00     0.117 C 
HETATM   28  O   UNL     1      40.506 -14.016  -3.054  1.00  0.00    -0.274 OA
HETATM   29  H   UNL     1      38.171 -14.311  -0.900  1.00  0.00     0.169 HD
ENDBRANCH  22  25
ENDBRANCH   1  19
TORSDOF 6
ENDMDL
MODEL 3
REMARK VINA RESULT:      -7.9      5.815      9.509
REMARK  6 active torsions:
REMARK  status: ('A' for Active; 'I' for Inactive)
REMARK       I    between atoms: C_2  and  N_3 
REMARK    1  A    between atoms: N_3  and  C_4 
REMARK    2  A    between atoms: C_7  and  N_8 
REMARK       I    between atoms: N_8  and  C_9 
REMARK    3  A    between atoms: C_9  and  C_10 
REMARK    4  A    between atoms: C_10  and  S_11 
REMARK    5  A    between atoms: S_11  and  C_12 
REMARK    6  A    between atoms: C_15  and  C_16 
ROOT
HETATM    1  N   UNL     1      43.838 -10.852   8.666  1.00  0.00    -0.327 N 
HETATM    2  C   UNL     1      45.004 -10.914   7.925  1.00  0.00     0.231 C 
HETATM    3  O   UNL     1      46.075 -10.385   8.210  1.00  0.00    -0.272 OA
HETATM    4  H   UNL     1      43.088 -11.474   8.356  1.00  0.00     0.169 HD
ENDROOT
BRANCH   2   5
HETATM    5  C   UNL     1      44.849 -11.713   6.638  1.00  0.00     0.185 C 
BRANCH   5   6
HETATM    6  S   UNL     1      43.109 -12.099   6.304  1.00  0.00    -0.083 SA
BRANCH   6   7
HETATM    7  C   UNL     1      43.127 -13.820   6.337  1.00  0.00     0.167 A 
HETATM    8  N   UNL     1      43.113 -14.600   7.391  1.00  0.00    -0.235 NA
HETATM    9  C   UNL     1      43.165 -15.873   6.871  1.00  0.00     0.149 A 
HETATM   10  C   UNL     1      43.238 -15.866   5.486  1.00  0.00     0.062 A 
HETATM   11  N   UNL     1      43.193 -14.525   5.175  1.00  0.00    -0.333 N 
HETATM   12  H   UNL     1      43.207 -14.113   4.254  1.00  0.00     0.168 HD
BRANCH  10  13
HETATM   13  C   UNL     1      43.335 -16.950   4.507  1.00  0.00    -0.008 A 
HETATM   14  C   UNL     1      44.083 -18.102   4.795  1.00  0.00     0.014 A 
HETATM   15  C   UNL     1      44.196 -19.139   3.865  1.00  0.00     0.001 A 
HETATM   16  C   UNL     1      43.561 -19.041   2.630  1.00  0.00     0.000 A 
HETATM   17  C   UNL     1      42.815 -17.906   2.326  1.00  0.00     0.001 A 
HETATM   18  C   UNL     1      42.704 -16.867   3.256  1.00  0.00     0.014 A 
ENDBRANCH  10  13
ENDBRANCH   6   7
ENDBRANCH   5   6
ENDBRANCH   2   5
BRANCH   1  19
HETATM   19  C   UNL     1      43.598 -10.133   9.851  1.00  0.00     0.034 A 
HETATM   20  C   UNL     1      43.383  -8.758   9.904  1.00  0.00     0.032 A 
HETATM   21  C   UNL     1      43.113  -8.123  11.127  1.00  0.00     0.032 A 
HETATM   22  C   UNL     1      43.055  -8.854  12.313  1.00  0.00     0.034 A 
HETATM   23  C   UNL     1      43.285 -10.233  12.260  1.00  0.00     0.032 A 
HETATM   24  C   UNL     1      43.551 -10.866  11.041  1.00  0.00     0.032 A 
BRANCH  22  25
HETATM   25  N   UNL     1      42.765  -8.299  13.576  1.00  0.00    -0.328 N 
HETATM   26  C   UNL     1      41.608  -8.456  14.319  1.00  0.00     0.218 C 
HETATM   27  C   UNL     1      41.671  -7.743  15.648  1.00  0.00     0.117 C 
HETATM   28  O   UNL     1      40.600  -9.072  13.994  1.00  0.00    -0.274 OA
HETATM   29  H   UNL     1      43.494  -7.730  13.983  1.00  0.00     0.169 HD
ENDBRANCH  22  25
ENDBRANCH   1  19
TORSDOF 6
ENDMDL
MODEL 4
REMARK VINA RESULT:      -7.7      5.761      9.354
REMARK  6 active torsions:
REMARK  status: ('A' for Active; 'I' for Inactive)
REMARK       I    between atoms: C_2  and  N_3 
REMARK    1  A    between atoms: N_3  and  C_4 
REMARK    2  A    between atoms: C_7  and  N_8 
REMARK       I    between atoms: N_8  and  C_9 
REMARK    3  A    between atoms: C_9  and  C_10 
REMARK    4  A    between atoms: C_10  and  S_11 
REMARK    5  A    between atoms: S_11  and  C_12 
REMARK    6  A    between atoms: C_15  and  C_16 
ROOT
HETATM    1  N   UNL     1      42.667 -13.035   5.285  1.00  0.00    -0.327 N 
HETATM    2  C   UNL     1      43.583 -12.635   6.241  1.00  0.00     0.231 C 
HETATM    3  O   UNL     1      44.619 -13.221   6.544  1.00  0.00    -0.272 OA
HETATM    4  H   UNL     1      41.941 -12.350   5.060  1.00  0.00     0.169 HD
ENDROOT
BRANCH   2   5
HETATM    5  C   UNL     1      43.179 -11.350   6.952  1.00  0.00     0.185 C 
BRANCH   5   6
HETATM    6  S   UNL     1      44.625 -10.478   7.614  1.00  0.00    -0.083 SA
BRANCH   6   7
HETATM    7  C   UNL     1      44.165 -10.248   9.256  1.00  0.00     0.167 A 
HETATM    8  N   UNL     1      44.023 -11.165  10.182  1.00  0.00    -0.235 NA
HETATM    9  C   UNL     1      43.623 -10.462  11.296  1.00  0.00     0.149 A 
HETATM   10  C   UNL     1      43.495  -9.106  11.037  1.00  0.00     0.062 A 
HETATM   11  N   UNL     1      43.870  -9.002   9.715  1.00  0.00    -0.333 N 
HETATM   12  H   UNL     1      43.924  -8.159   9.162  1.00  0.00     0.168 HD
BRANCH  10  13
HETATM   13  C   UNL     1      43.080  -7.983  11.880  1.00  0.00    -0.008 A 
HETATM   14  C   UNL     1      43.269  -8.033  13.270  1.00  0.00     0.014 A 
HETATM   15  C   UNL     1      42.866  -6.975  14.089  1.00  0.00     0.001 A 
HETATM   16  C   UNL     1      42.268  -5.849  13.532  1.00  0.00     0.000 A 
HETATM   17  C   UNL     1      42.072  -5.781  12.155  1.00  0.00     0.001 A 
HETATM   18  C   UNL     1      42.473  -6.842  11.336  1.00  0.00     0.014 A 
ENDBRANCH  10  13
ENDBRANCH   6   7
ENDBRANCH   5   6
ENDBRANCH   2   5
BRANCH   1  19
HETATM   19  C   UNL     1      42.675 -14.207   4.508  1.00  0.00     0.034 A 
HETATM   20  C   UNL     1      43.070 -14.261   3.174  1.00  0.00     0.032 A 
HETATM   21  C   UNL     1      43.083 -15.482   2.480  1.00  0.00     0.032 A 
HETATM   22  C   UNL     1      42.700 -16.665   3.111  1.00  0.00     0.034 A 
HETATM   23  C   UNL     1      42.289 -16.606   4.447  1.00  0.00     0.032 A 
HETATM   24  C   UNL     1      42.280 -15.391   5.139  1.00  0.00     0.032 A 
BRANCH  22  25
HETATM   25  N   UNL     1      42.709 -17.933   2.496  1.00  0.00    -0.328 N 
HETATM   26  C   UNL     1      43.560 -18.991   2.759  1.00  0.00     0.218 C 
HETATM   27  C   UNL     1      43.245 -20.211   1.928  1.00  0.00     0.117 C 
HETATM   28  O   UNL     1      44.498 -19.004   3.548  1.00  0.00    -0.274 OA
HETATM   29  H   UNL     1      42.003 -18.082   1.787  1.00  0.00     0.169 HD
ENDBRANCH  22  25
ENDBRANCH   1  19
TORSDOF 6
ENDMDL
MODEL 5
REMARK VINA RESULT:      -7.7      5.868      9.775
REMARK  6 active torsions:
REMARK  status: ('A' for Active; 'I' for Inactive)
REMARK       I    between atoms: C_2  and  N_3 
REMARK    1  A    between atoms: N_3  and  C_4 
REMARK    2  A    between atoms: C_7  and  N_8 
REMARK       I    between atoms: N_8  and  C_9 
REMARK    3  A    between atoms: C_9  and  C_10 
REMARK    4  A    between atoms: C_10  and  S_11 
REMARK    5  A    between atoms: S_11  and  C_12 
REMARK    6  A    between atoms: C_15  and  C_16 
ROOT
HETATM    1  N   UNL     1      42.505 -13.192   6.498  1.00  0.00    -0.327 N 
HETATM    2  C   UNL     1      43.096 -11.961   6.275  1.00  0.00     0.231 C 
HETATM    3  O   UNL     1      44.134 -11.758   5.651  1.00  0.00    -0.272 OA
HETATM    4  H   UNL     1      41.567 -13.159   6.907  1.00  0.00     0.169 HD
ENDROOT
BRANCH   2   5
HETATM    5  C   UNL     1      42.336 -10.809   6.917  1.00  0.00     0.185 C 
BRANCH   5   6
HETATM    6  S   UNL     1      43.466  -9.514   7.497  1.00  0.00    -0.083 SA
BRANCH   6   7
HETATM    7  C   UNL     1      43.560  -9.869   9.179  1.00  0.00     0.167 A 
HETATM    8  N   UNL     1      44.107 -10.918   9.745  1.00  0.00    -0.235 NA
HETATM    9  C   UNL     1      43.890 -10.728  11.090  1.00  0.00     0.149 A 
HETATM   10  C   UNL     1      43.179  -9.565  11.343  1.00  0.00     0.062 A 
HETATM   11  N   UNL     1      42.999  -9.027  10.088  1.00  0.00    -0.333 N 
HETATM   12  H   UNL     1      42.535  -8.161   9.858  1.00  0.00     0.168 HD
BRANCH  10  13
HETATM   13  C   UNL     1      42.697  -8.964  12.589  1.00  0.00    -0.008 A 
HETATM   14  C   UNL     1      43.374  -7.875  13.159  1.00  0.00     0.014 A 
HETATM   15  C   UNL     1      42.934  -7.300  14.354  1.00  0.00     0.001 A 
HETATM   16  C   UNL     1      41.808  -7.803  14.998  1.00  0.00     0.000 A 
HETATM   17  C   UNL     1      41.123  -8.883  14.447  1.00  0.00     0.001 A 
HETATM   18  C   UNL     1      41.565  -9.460  13.252  1.00  0.00     0.014 A 
ENDBRANCH  10  13
ENDBRANCH   6   7
ENDBRANCH   5   6
ENDBRANCH   2   5
BRANCH   1  19
HETATM   19  C   UNL     1      42.977 -14.464   6.131  1.00  0.00     0.034 A 
HETATM   20  C   UNL     1      43.953 -15.170   6.831  1.00  0.00     0.032 A 
HETATM   21  C   UNL     1      44.342 -16.455   6.416  1.00  0.00     0.032 A 
HETATM   22  C   UNL     1      43.762 -17.049   5.296  1.00  0.00     0.034 A 
HETATM   23  C   UNL     1      42.793 -16.332   4.586  1.00  0.00     0.032 A 
HETATM   24  C   UNL     1      42.403 -15.054   5.001  1.00  0.00     0.032 A 
BRANCH  22  25
HETATM   25  N   UNL     1      44.076 -18.341   4.829  1.00  0.00    -0.328 N 
HETATM   26  C   UNL     1      43.846 -19.547   5.467  1.00  0.00     0.218 C 
HETATM   27  C   UNL     1      44.281 -20.733   4.642  1.00  0.00     0.117 C 
HETATM   28  O   UNL     1      43.364 -19.710   6.582  1.00  0.00    -0.274 OA
HETATM   29  H   UNL     1      44.512 -18.384   3.917  1.00  0.00     0.169 HD
ENDBRANCH  22  25
ENDBRANCH   1  19
TORSDOF 6
ENDMDL
MODEL 6
REMARK VINA RESULT:      -7.4      6.954     10.625
REMARK  6 active torsions:
REMARK  status: ('A' for Active; 'I' for Inactive)
REMARK       I    between atoms: C_2  and  N_3 
REMARK    1  A    between atoms: N_3  and  C_4 
REMARK    2  A    between atoms: C_7  and  N_8 
REMARK       I    between atoms: N_8  and  C_9 
REMARK    3  A    between atoms: C_9  and  C_10 
REMARK    4  A    between atoms: C_10  and  S_11 
REMARK    5  A    between atoms: S_11  and  C_12 
REMARK    6  A    between atoms: C_15  and  C_16 
ROOT
HETATM    1  N   UNL     1      42.688 -10.060   9.957  1.00  0.00    -0.327 N 
HETATM    2  C   UNL     1      42.499  -9.362   8.778  1.00  0.00     0.231 C 
HETATM    3  O   UNL     1      41.982  -8.254   8.666  1.00  0.00    -0.272 OA
HETATM    4  H   UNL     1      43.269 -10.899   9.881  1.00  0.00     0.169 HD
ENDROOT
BRANCH   2   5
HETATM    5  C   UNL     1      42.984 -10.121   7.551  1.00  0.00     0.185 C 
BRANCH   5   6
HETATM    6  S   UNL     1      41.615 -10.500   6.423  1.00  0.00    -0.083 SA
BRANCH   6   7
HETATM    7  C   UNL     1      42.437 -11.310   5.146  1.00  0.00     0.167 A 
HETATM    8  N   UNL     1      43.209 -10.779   4.229  1.00  0.00    -0.235 NA
HETATM    9  C   UNL     1      43.587 -11.845   3.446  1.00  0.00     0.149 A 
HETATM   10  C   UNL     1      43.018 -13.034   3.876  1.00  0.00     0.062 A 
HETATM   11  N   UNL     1      42.297 -12.654   4.986  1.00  0.00    -0.333 N 
HETATM   12  H   UNL     1      41.751 -13.249   5.591  1.00  0.00     0.168 HD
BRANCH  10  13
HETATM   13  C   UNL     1      43.102 -14.402   3.360  1.00  0.00    -0.008 A 
HETATM   14  C   UNL     1      43.243 -14.633   1.983  1.00  0.00     0.014 A 
HETATM   15  C   UNL     1      43.311 -15.933   1.474  1.00  0.00     0.001 A 
HETATM   16  C   UNL     1      43.238 -17.024   2.335  1.00  0.00     0.000 A 
HETATM   17  C   UNL     1      43.098 -16.815   3.705  1.00  0.00     0.001 A 
HETATM   18  C   UNL     1      43.028 -15.513   4.213  1.00  0.00     0.014 A 
ENDBRANCH  10  13
ENDBRANCH   6   7
ENDBRANCH   5   6
ENDBRANCH   2   5
BRANCH   1  19
HETATM   19  C   UNL     1      42.283  -9.703  11.255  1.00  0.00     0.034 A 
HETATM   20  C   UNL     1      41.030  -9.990  11.793  1.00  0.00     0.032 A 
HETATM   21  C   UNL     1      40.718  -9.629  13.114  1.00  0.00     0.032 A 
HETATM   22  C   UNL     1      41.655  -8.975  13.914  1.00  0.00     0.034 A 
HETATM   23  C   UNL     1      42.907  -8.675  13.368  1.00  0.00     0.032 A 
HETATM   24  C   UNL     1      43.219  -9.038  12.053  1.00  0.00     0.032 A 
BRANCH  22  25
HETATM   25  N   UNL     1      41.431  -8.602  15.255  1.00  0.00    -0.328 N 
HETATM   26  C   UNL     1      40.792  -7.466  15.718  1.00  0.00     0.218 C 
HETATM   27  C   UNL     1      40.704  -7.423  17.224  1.00  0.00     0.117 C 
HETATM   28  O   UNL     1      40.340  -6.548  15.044  1.00  0.00    -0.274 OA
HETATM   29  H   UNL     1      41.773  -9.249  15.953  1.00  0.00     0.169 HD
ENDBRANCH  22  25
ENDBRANCH   1  19
TORSDOF 6
ENDMDL
MODEL 7
REMARK VINA RESULT:      -7.4      3.077      6.776
REMARK  6 active torsions:
REMARK  status: ('A' for Active; 'I' for Inactive)
REMARK       I    between atoms: C_2  and  N_3 
REMARK    1  A    between atoms: N_3  and  C_4 
REMARK    2  A    between atoms: C_7  and  N_8 
REMARK       I    between atoms: N_8  and  C_9 
REMARK    3  A    between atoms: C_9  and  C_10 
REMARK    4  A    between atoms: C_10  and  S_11 
REMARK    5  A    between atoms: S_11  and  C_12 
REMARK    6  A    between atoms: C_15  and  C_16 
ROOT
HETATM    1  N   UNL     1      42.661 -13.177   6.899  1.00  0.00    -0.327 N 
HETATM    2  C   UNL     1      43.331 -12.143   6.268  1.00  0.00     0.231 C 
HETATM    3  O   UNL     1      44.103 -12.251   5.319  1.00  0.00    -0.272 OA
HETATM    4  H   UNL     1      41.945 -12.889   7.571  1.00  0.00     0.169 HD
ENDROOT
BRANCH   2   5
HETATM    5  C   UNL     1      43.044 -10.782   6.888  1.00  0.00     0.185 C 
BRANCH   5   6
HETATM    6  S   UNL     1      41.834  -9.852   5.908  1.00  0.00    -0.083 SA
BRANCH   6   7
HETATM    7  C   UNL     1      40.863 -11.121   5.267  1.00  0.00     0.167 A 
HETATM    8  N   UNL     1      39.877 -11.750   5.859  1.00  0.00    -0.235 NA
HETATM    9  C   UNL     1      39.462 -12.678   4.932  1.00  0.00     0.149 A 
HETATM   10  C   UNL     1      40.222 -12.630   3.773  1.00  0.00     0.062 A 
HETATM   11  N   UNL     1      41.105 -11.601   4.018  1.00  0.00    -0.333 N 
HETATM   12  H   UNL     1      41.816 -11.248   3.395  1.00  0.00     0.168 HD
BRANCH  10  13
HETATM   13  C   UNL     1      40.177 -13.420   2.541  1.00  0.00    -0.008 A 
HETATM   14  C   UNL     1      40.264 -12.788   1.290  1.00  0.00     0.014 A 
HETATM   15  C   UNL     1      40.210 -13.527   0.105  1.00  0.00     0.001 A 
HETATM   16  C   UNL     1      40.069 -14.910   0.152  1.00  0.00     0.000 A 
HETATM   17  C   UNL     1      39.981 -15.555   1.382  1.00  0.00     0.001 A 
HETATM   18  C   UNL     1      40.033 -14.815   2.568  1.00  0.00     0.014 A 
ENDBRANCH  10  13
ENDBRANCH   6   7
ENDBRANCH   5   6
ENDBRANCH   2   5
BRANCH   1  19
HETATM   19  C   UNL     1      42.759 -14.557   6.650  1.00  0.00     0.034 A 
HETATM   20  C   UNL     1      42.204 -15.196   5.543  1.00  0.00     0.032 A 
HETATM   21  C   UNL     1      42.380 -16.576   5.351  1.00  0.00     0.032 A 
HETATM   22  C   UNL     1      43.111 -17.335   6.263  1.00  0.00     0.034 A 
HETATM   23  C   UNL     1      43.656 -16.695   7.381  1.00  0.00     0.032 A 
HETATM   24  C   UNL     1      43.483 -15.320   7.571  1.00  0.00     0.032 A 
BRANCH  22  25
HETATM   25  N   UNL     1      43.356 -18.718   6.130  1.00  0.00    -0.328 N 
HETATM   26  C   UNL     1      44.105 -19.351   5.155  1.00  0.00     0.218 C 
HETATM   27  C   UNL     1      44.180 -20.844   5.358  1.00  0.00     0.117 C 
HETATM   28  O   UNL     1      44.659 -18.828   4.195  1.00  0.00    -0.274 OA
HETATM   29  H   UNL     1      42.940 -19.307   6.840  1.00  0.00     0.169 HD
ENDBRANCH  22  25
ENDBRANCH   1  19
TORSDOF 6
ENDMDL
MODEL 8
REMARK VINA RESULT:      -7.4      6.926     10.517
REMARK  6 active torsions:
REMARK  status: ('A' for Active; 'I' for Inactive)
REMARK       I    between atoms: C_2  and  N_3 
REMARK    1  A    between atoms: N_3  and  C_4 
REMARK    2  A    between atoms: C_7  and  N_8 
REMARK       I    between atoms: N_8  and  C_9 
REMARK    3  A    between atoms: C_9  and  C_10 
REMARK    4  A    between atoms: C_10  and  S_11 
REMARK    5  A    between atoms: S_11  and  C_12 
REMARK    6  A    between atoms: C_15  and  C_16 
ROOT
HETATM    1  N   UNL     1      42.389  -9.662   9.741  1.00  0.00    -0.327 N 
HETATM    2  C   UNL     1      43.432 -10.367   9.169  1.00  0.00     0.231 C 
HETATM    3  O   UNL     1      44.316 -10.971   9.770  1.00  0.00    -0.272 OA
HETATM    4  H   UNL     1      41.663  -9.349   9.091  1.00  0.00     0.169 HD
ENDROOT
BRANCH   2   5
HETATM    5  C   UNL     1      43.421 -10.317   7.647  1.00  0.00     0.185 C 
BRANCH   5   6
HETATM    6  S   UNL     1      44.736 -11.349   6.941  1.00  0.00    -0.083 SA
BRANCH   6   7
HETATM    7  C   UNL     1      43.923 -12.854   6.748  1.00  0.00     0.167 A 
HETATM    8  N   UNL     1      43.538 -13.681   7.689  1.00  0.00    -0.235 NA
HETATM    9  C   UNL     1      42.969 -14.731   7.006  1.00  0.00     0.149 A 
HETATM   10  C   UNL     1      43.034 -14.553   5.632  1.00  0.00     0.062 A 
HETATM   11  N   UNL     1      43.640 -13.323   5.503  1.00  0.00    -0.333 N 
HETATM   12  H   UNL     1      43.848 -12.834   4.645  1.00  0.00     0.168 HD
BRANCH  10  13
HETATM   13  C   UNL     1      42.595 -15.392   4.515  1.00  0.00    -0.008 A 
HETATM   14  C   UNL     1      43.452 -16.365   3.979  1.00  0.00     0.014 A 
HETATM   15  C   UNL     1      43.053 -17.163   2.904  1.00  0.00     0.001 A 
HETATM   16  C   UNL     1      41.788 -17.003   2.348  1.00  0.00     0.000 A 
HETATM   17  C   UNL     1      40.923 -16.043   2.866  1.00  0.00     0.001 A 
HETATM   18  C   UNL     1      41.324 -15.242   3.940  1.00  0.00     0.014 A 
ENDBRANCH  10  13
ENDBRANCH   6   7
ENDBRANCH   5   6
ENDBRANCH   2   5
BRANCH   1  19
HETATM   19  C   UNL     1      42.144  -9.424  11.105  1.00  0.00     0.034 A 
HETATM   20  C   UNL     1      41.062  -9.946  11.810  1.00  0.00     0.032 A 
HETATM   21  C   UNL     1      40.911  -9.689  13.183  1.00  0.00     0.032 A 
HETATM   22  C   UNL     1      41.839  -8.905  13.867  1.00  0.00     0.034 A 
HETATM   23  C   UNL     1      42.917  -8.369  13.154  1.00  0.00     0.032 A 
HETATM   24  C   UNL     1      43.069  -8.628  11.788  1.00  0.00     0.032 A 
BRANCH  22  25
HETATM   25  N   UNL     1      41.775  -8.620  15.247  1.00  0.00    -0.328 N 
HETATM   26  C   UNL     1      41.010  -7.653  15.873  1.00  0.00     0.218 C 
HETATM   27  C   UNL     1      41.170  -7.668  17.373  1.00  0.00     0.117 C 
HETATM   28  O   UNL     1      40.277  -6.831  15.336  1.00  0.00    -0.274 OA
HETATM   29  H   UNL     1      42.352  -9.201  15.841  1.00  0.00     0.169 HD
ENDBRANCH  22  25
ENDBRANCH   1  19
TORSDOF 6
ENDMDL
MODEL 9
REMARK VINA RESULT:      -7.3      5.016      9.053
REMARK  6 active torsions:
REMARK  status: ('A' for Active; 'I' for Inactive)
REMARK       I    between atoms: C_2  and  N_3 
REMARK    1  A    between atoms: N_3  and  C_4 
REMARK    2  A    between atoms: C_7  and  N_8 
REMARK       I    between atoms: N_8  and  C_9 
REMARK    3  A    between atoms: C_9  and  C_10 
REMARK    4  A    between atoms: C_10  and  S_11 
REMARK    5  A    between atoms: S_11  and  C_12 
REMARK    6  A    between atoms: C_15  and  C_16 
ROOT
HETATM    1  N   UNL     1      41.888 -13.155   6.270  1.00  0.00    -0.327 N 
HETATM    2  C   UNL     1      40.648 -12.547   6.334  1.00  0.00     0.231 C 
HETATM    3  O   UNL     1      39.559 -13.113   6.288  1.00  0.00    -0.272 OA
HETATM    4  H   UNL     1      42.685 -12.546   6.475  1.00  0.00     0.169 HD
ENDROOT
BRANCH   2   5
HETATM    5  C   UNL     1      40.732 -11.031   6.447  1.00  0.00     0.185 C 
BRANCH   5   6
HETATM    6  S   UNL     1      42.378 -10.423   5.985  1.00  0.00    -0.083 SA
BRANCH   6   7
HETATM    7  C   UNL     1      43.138 -10.288   7.523  1.00  0.00     0.167 A 
HETATM    8  N   UNL     1      44.366 -10.619   7.840  1.00  0.00    -0.235 NA
HETATM    9  C   UNL     1      44.457 -10.337   9.184  1.00  0.00     0.149 A 
HETATM   10  C   UNL     1      43.262  -9.852   9.695  1.00  0.00     0.062 A 
HETATM   11  N   UNL     1      42.439  -9.817   8.591  1.00  0.00    -0.333 N 
HETATM   12  H   UNL     1      41.481  -9.502   8.556  1.00  0.00     0.168 HD
BRANCH  10  13
HETATM   13  C   UNL     1      42.870  -9.446  11.046  1.00  0.00    -0.008 A 
HETATM   14  C   UNL     1      43.642  -8.517  11.760  1.00  0.00     0.014 A 
HETATM   15  C   UNL     1      43.288  -8.130  13.055  1.00  0.00     0.001 A 
HETATM   16  C   UNL     1      42.153  -8.664  13.657  1.00  0.00     0.000 A 
HETATM   17  C   UNL     1      41.373  -9.586  12.965  1.00  0.00     0.001 A 
HETATM   18  C   UNL     1      41.730  -9.976  11.669  1.00  0.00     0.014 A 
ENDBRANCH  10  13
ENDBRANCH   6   7
ENDBRANCH   5   6
ENDBRANCH   2   5
BRANCH   1  19
HETATM   19  C   UNL     1      42.182 -14.516   6.076  1.00  0.00     0.034 A 
HETATM   20  C   UNL     1      42.231 -15.137   4.830  1.00  0.00     0.032 A 
HETATM   21  C   UNL     1      42.569 -16.496   4.721  1.00  0.00     0.032 A 
HETATM   22  C   UNL     1      42.860 -17.252   5.856  1.00  0.00     0.034 A 
HETATM   23  C   UNL     1      42.796 -16.630   7.108  1.00  0.00     0.032 A 
HETATM   24  C   UNL     1      42.463 -15.275   7.216  1.00  0.00     0.032 A 
BRANCH  22  25
HETATM   25  N   UNL     1      43.232 -18.611   5.832  1.00  0.00    -0.328 N 
HETATM   26  C   UNL     1      44.136 -19.222   4.982  1.00  0.00     0.218 C 
HETATM   27  C   UNL     1      44.310 -20.692   5.279  1.00  0.00     0.117 C 
HETATM   28  O   UNL     1      44.749 -18.700   4.058  1.00  0.00    -0.274 OA
HETATM   29  H   UNL     1      42.789 -19.200   6.526  1.00  0.00     0.169 HD
ENDBRANCH  22  25
ENDBRANCH   1  19
TORSDOF 6
ENDMDL
MODEL 10
REMARK VINA RESULT:      -7.3      7.566     11.278
REMARK  6 active torsions:
REMARK  status: ('A' for Active; 'I' for Inactive)
REMARK       I    between atoms: C_2  and  N_3 
REMARK    1  A    between atoms: N_3  and  C_4 
REMARK    2  A    between atoms: C_7  and  N_8 
REMARK       I    between atoms: N_8  and  C_9 
REMARK    3  A    between atoms: C_9  and  C_10 
REMARK    4  A    between atoms: C_10  and  S_11 
REMARK    5  A    between atoms: S_11  and  C_12 
REMARK    6  A    between atoms: C_15  and  C_16 
ROOT
HETATM    1  N   UNL     1      42.894  -9.515  10.775  1.00  0.00    -0.327 N 
HETATM    2  C   UNL     1      43.841 -10.463  10.433  1.00  0.00     0.231 C 
HETATM    3  O   UNL     1      44.391 -11.248  11.200  1.00  0.00    -0.272 OA
HETATM    4  H   UNL     1      42.433  -9.051   9.988  1.00  0.00     0.169 HD
ENDROOT
BRANCH   2   5
HETATM    5  C   UNL     1      44.191 -10.448   8.951  1.00  0.00     0.185 C 
BRANCH   5   6
HETATM    6  S   UNL     1      42.846  -9.740   7.961  1.00  0.00    -0.083 SA
BRANCH   6   7
HETATM    7  C   UNL     1      42.642 -10.945   6.749  1.00  0.00     0.167 A 
HETATM    8  N   UNL     1      41.965 -10.847   5.630  1.00  0.00    -0.235 NA
HETATM    9  C   UNL     1      42.099 -12.085   5.044  1.00  0.00     0.149 A 
HETATM   10  C   UNL     1      42.843 -12.954   5.828  1.00  0.00     0.062 A 
HETATM   11  N   UNL     1      43.192 -12.178   6.912  1.00  0.00    -0.333 N 
HETATM   12  H   UNL     1      43.755 -12.455   7.702  1.00  0.00     0.168 HD
BRANCH  10  13
HETATM   13  C   UNL     1      43.225 -14.355   5.643  1.00  0.00    -0.008 A 
HETATM   14  C   UNL     1      43.936 -15.034   6.645  1.00  0.00     0.014 A 
HETATM   15  C   UNL     1      44.319 -16.367   6.478  1.00  0.00     0.001 A 
HETATM   16  C   UNL     1      43.998 -17.044   5.305  1.00  0.00     0.000 A 
HETATM   17  C   UNL     1      43.293 -16.387   4.300  1.00  0.00     0.001 A 
HETATM   18  C   UNL     1      42.912 -15.052   4.467  1.00  0.00     0.014 A 
ENDBRANCH  10  13
ENDBRANCH   6   7
ENDBRANCH   5   6
ENDBRANCH   2   5
BRANCH   1  19
HETATM   19  C   UNL     1      42.407  -9.193  12.054  1.00  0.00     0.034 A 
HETATM   20  C   UNL     1      41.259  -9.745  12.618  1.00  0.00     0.032 A 
HETATM   21  C   UNL     1      40.861  -9.395  13.919  1.00  0.00     0.032 A 
HETATM   22  C   UNL     1      41.605  -8.488  14.672  1.00  0.00     0.034 A 
HETATM   23  C   UNL     1      42.750  -7.923  14.099  1.00  0.00     0.032 A 
HETATM   24  C   UNL     1      43.148  -8.275  12.804  1.00  0.00     0.032 A 
BRANCH  22  25
HETATM   25  N   UNL     1      41.291  -8.104  15.992  1.00  0.00    -0.328 N 
HETATM   26  C   UNL     1      40.419  -7.109  16.394  1.00  0.00     0.218 C 
HETATM   27  C   UNL     1      40.304  -7.010  17.896  1.00  0.00     0.117 C 
HETATM   28  O   UNL     1      39.791  -6.342  15.673  1.00  0.00    -0.274 OA
HETATM   29  H   UNL     1      41.753  -8.628  16.723  1.00  0.00     0.169 HD
ENDBRANCH  22  25
ENDBRANCH   1  19
TORSDOF 6
ENDMDL
