MODEL 1
REMARK VINA RESULT:      -9.1      0.000      0.000
REMARK  7 active torsions:
REMARK  status: ('A' for Active; 'I' for Inactive)
REMARK    1  A    between atoms: C_2  and  N_3 
REMARK    2  A    between atoms: N_3  and  C_4 
REMARK    3  A    between atoms: C_4  and  N_5 
REMARK    4  A    between atoms: N_5  and  N_6 
REMARK    5  A    between atoms: N_6  and  C_7 
REMARK    6  A    between atoms: N_8  and  C_9 
REMARK    7  A    between atoms: C_9  and  C_10 
ROOT
HETATM    1  C   UNL     1      42.946 -13.078   6.101  1.00  0.00     0.204 C 
HETATM    2  N   UNL     1      42.333 -12.242   5.192  1.00  0.00    -0.283 N 
HETATM    3  C   UNL     1      41.716 -12.768   4.074  1.00  0.00     0.259 C 
HETATM    4  O   UNL     1      40.842 -12.159   3.462  1.00  0.00    -0.267 OA
HETATM    5  C   UNL     1      42.142 -14.129   3.655  1.00  0.00     0.049 C 
HETATM    6  C   UNL     1      42.847 -14.812   4.578  1.00  0.00     0.083 C 
HETATM    7  C   UNL     1      43.299 -16.195   4.268  1.00  0.00    -0.000 A 
HETATM    8  C   UNL     1      43.271 -16.663   2.946  1.00  0.00    -0.044 A 
HETATM    9  C   UNL     1      43.742 -17.949   2.636  1.00  0.00     0.008 A 
HETATM   10  C   UNL     1      44.225 -18.783   3.641  1.00  0.00     0.001 A 
HETATM   11  C   UNL     1      44.250 -18.333   4.958  1.00  0.00     0.001 A 
HETATM   12  C   UNL     1      43.794 -17.049   5.266  1.00  0.00     0.014 A 
HETATM   13  C   UNL     1      42.822 -15.742   1.846  1.00  0.00     0.054 C 
HETATM   14  C   UNL     1      41.738 -14.708   2.284  1.00  0.00    -0.002 C 
HETATM   15  C   UNL     1      40.348 -15.387   2.455  1.00  0.00     0.015 C 
HETATM   16  C   UNL     1      39.755 -15.939   1.158  1.00  0.00     0.001 C 
HETATM   17  C   UNL     1      39.716 -14.891   0.053  1.00  0.00     0.000 C 
HETATM   18  C   UNL     1      41.077 -14.242  -0.174  1.00  0.00     0.001 C 
HETATM   19  C   UNL     1      41.642 -13.664   1.128  1.00  0.00     0.015 C 
HETATM   20  N   UNL     1      43.164 -14.332   5.823  1.00  0.00    -0.217 NA
ENDROOT
BRANCH   1  21
HETATM   21  N   UNL     1      43.312 -12.593   7.345  1.00  0.00    -0.171 NA
HETATM   22  H   UNL     1      43.183 -13.198   8.152  1.00  0.00     0.156 HD
BRANCH  21  23
HETATM   23  N   UNL     1      44.565 -11.941   7.373  1.00  0.00    -0.291 N 
HETATM   24  H   UNL     1      44.977 -11.873   6.442  1.00  0.00     0.183 HD
BRANCH  23  25
HETATM   25  C   UNL     1      44.767 -10.898   8.243  1.00  0.00     0.182 C 
HETATM   26  S   UNL     1      45.895  -9.677   8.069  1.00  0.00    -0.040 SA
BRANCH  25  27
HETATM   27  N   UNL     1      43.910 -10.833   9.307  1.00  0.00    -0.367 N 
HETATM   28  H   UNL     1      43.544 -11.738   9.581  1.00  0.00     0.161 HD
BRANCH  27  29
HETATM   29  C   UNL     1      43.818  -9.771  10.298  1.00  0.00     0.117 C 
HETATM   30  C   UNL     1      42.682 -10.027  11.274  1.00  0.00     0.026 C 
ENDBRANCH  27  29
ENDBRANCH  25  27
ENDBRANCH  23  25
ENDBRANCH  21  23
ENDBRANCH   1  21
BRANCH   2  31
HETATM   31  C   UNL     1      42.175 -10.810   5.424  1.00  0.00     0.173 C 
BRANCH  31  32
HETATM   32  C   UNL     1      41.177 -10.407   6.492  1.00  0.00    -0.040 A 
HETATM   33  C   UNL     1      39.918 -11.006   6.642  1.00  0.00     0.009 A 
HETATM   34  C   UNL     1      39.032 -10.563   7.628  1.00  0.00     0.001 A 
HETATM   35  C   UNL     1      39.388  -9.512   8.471  1.00  0.00     0.000 A 
HETATM   36  C   UNL     1      40.631  -8.903   8.331  1.00  0.00     0.001 A 
HETATM   37  C   UNL     1      41.519  -9.347   7.350  1.00  0.00     0.009 A 
ENDBRANCH  31  32
ENDBRANCH   2  31
TORSDOF 7
ENDMDL
MODEL 2
REMARK VINA RESULT:      -8.5     16.954     18.287
REMARK  7 active torsions:
REMARK  status: ('A' for Active; 'I' for Inactive)
REMARK    1  A    between atoms: C_2  and  N_3 
REMARK    2  A    between atoms: N_3  and  C_4 
REMARK    3  A    between atoms: C_4  and  N_5 
REMARK    4  A    between atoms: N_5  and  N_6 
REMARK    5  A    between atoms: N_6  and  C_7 
REMARK    6  A    between atoms: N_8  and  C_9 
REMARK    7  A    between atoms: C_9  and  C_10 
ROOT
HETATM    1  C   UNL     1      45.363 -30.352   2.507  1.00  0.00     0.204 C 
HETATM    2  N   UNL     1      44.350 -29.685   1.852  1.00  0.00    -0.283 N 
HETATM    3  C   UNL     1      44.389 -29.542   0.479  1.00  0.00     0.259 C 
HETATM    4  O   UNL     1      43.378 -29.332  -0.186  1.00  0.00    -0.267 OA
HETATM    5  C   UNL     1      45.720 -29.682  -0.169  1.00  0.00     0.049 C 
HETATM    6  C   UNL     1      46.673 -30.231   0.609  1.00  0.00     0.083 C 
HETATM    7  C   UNL     1      48.036 -30.439   0.047  1.00  0.00    -0.000 A 
HETATM    8  C   UNL     1      48.410 -29.799  -1.143  1.00  0.00    -0.044 A 
HETATM    9  C   UNL     1      49.708 -29.949  -1.655  1.00  0.00     0.008 A 
HETATM   10  C   UNL     1      50.636 -30.752  -0.995  1.00  0.00     0.001 A 
HETATM   11  C   UNL     1      50.274 -31.399   0.183  1.00  0.00     0.001 A 
HETATM   12  C   UNL     1      48.986 -31.240   0.700  1.00  0.00     0.014 A 
HETATM   13  C   UNL     1      47.439 -28.871  -1.819  1.00  0.00     0.054 C 
HETATM   14  C   UNL     1      45.941 -29.275  -1.639  1.00  0.00    -0.002 C 
HETATM   15  C   UNL     1      45.579 -30.504  -2.523  1.00  0.00     0.015 C 
HETATM   16  C   UNL     1      45.658 -30.240  -4.028  1.00  0.00     0.001 C 
HETATM   17  C   UNL     1      44.850 -29.016  -4.439  1.00  0.00     0.000 C 
HETATM   18  C   UNL     1      45.219 -27.781  -3.624  1.00  0.00     0.001 C 
HETATM   19  C   UNL     1      45.101 -28.051  -2.121  1.00  0.00     0.015 C 
HETATM   20  N   UNL     1      46.475 -30.650   1.899  1.00  0.00    -0.217 NA
ENDROOT
BRANCH   1  21
HETATM   21  N   UNL     1      45.192 -30.740   3.825  1.00  0.00    -0.171 NA
HETATM   22  H   UNL     1      44.922 -31.703   4.009  1.00  0.00     0.156 HD
BRANCH  21  23
HETATM   23  N   UNL     1      46.212 -30.304   4.700  1.00  0.00    -0.291 N 
HETATM   24  H   UNL     1      45.873 -29.599   5.355  1.00  0.00     0.183 HD
BRANCH  23  25
HETATM   25  C   UNL     1      47.148 -31.202   5.150  1.00  0.00     0.182 C 
HETATM   26  S   UNL     1      47.015 -32.161   6.513  1.00  0.00    -0.040 SA
BRANCH  25  27
HETATM   27  N   UNL     1      48.252 -31.362   4.358  1.00  0.00    -0.367 N 
HETATM   28  H   UNL     1      48.054 -31.850   3.492  1.00  0.00     0.161 HD
BRANCH  27  29
HETATM   29  C   UNL     1      49.481 -30.584   4.396  1.00  0.00     0.117 C 
HETATM   30  C   UNL     1      49.288 -29.218   3.760  1.00  0.00     0.026 C 
ENDBRANCH  27  29
ENDBRANCH  25  27
ENDBRANCH  23  25
ENDBRANCH  21  23
ENDBRANCH   1  21
BRANCH   2  31
HETATM   31  C   UNL     1      43.138 -29.235   2.529  1.00  0.00     0.173 C 
BRANCH  31  32
HETATM   32  C   UNL     1      42.081 -30.291   2.791  1.00  0.00    -0.040 A 
HETATM   33  C   UNL     1      41.606 -31.172   1.810  1.00  0.00     0.009 A 
HETATM   34  C   UNL     1      40.606 -32.100   2.110  1.00  0.00     0.001 A 
HETATM   35  C   UNL     1      40.060 -32.155   3.391  1.00  0.00     0.000 A 
HETATM   36  C   UNL     1      40.516 -31.283   4.375  1.00  0.00     0.001 A 
HETATM   37  C   UNL     1      41.519 -30.359   4.078  1.00  0.00     0.009 A 
ENDBRANCH  31  32
ENDBRANCH   2  31
TORSDOF 7
ENDMDL
MODEL 3
REMARK VINA RESULT:      -8.5     16.877     19.360
REMARK  7 active torsions:
REMARK  status: ('A' for Active; 'I' for Inactive)
REMARK    1  A    between atoms: C_2  and  N_3 
REMARK    2  A    between atoms: N_3  and  C_4 
REMARK    3  A    between atoms: C_4  and  N_5 
REMARK    4  A    between atoms: N_5  and  N_6 
REMARK    5  A    between atoms: N_6  and  C_7 
REMARK    6  A    between atoms: N_8  and  C_9 
REMARK    7  A    between atoms: C_9  and  C_10 
ROOT
HETATM    1  C   UNL     1      46.792 -28.852   1.640  1.00  0.00     0.204 C 
HETATM    2  N   UNL     1      47.306 -28.787   0.363  1.00  0.00    -0.283 N 
HETATM    3  C   UNL     1      48.206 -29.740  -0.071  1.00  0.00     0.259 C 
HETATM    4  O   UNL     1      48.387 -29.975  -1.263  1.00  0.00    -0.267 OA
HETATM    5  C   UNL     1      48.936 -30.496   0.981  1.00  0.00     0.049 C 
HETATM    6  C   UNL     1      48.418 -30.386   2.221  1.00  0.00     0.083 C 
HETATM    7  C   UNL     1      49.059 -31.125   3.342  1.00  0.00    -0.000 A 
HETATM    8  C   UNL     1      50.343 -31.666   3.183  1.00  0.00    -0.044 A 
HETATM    9  C   UNL     1      50.976 -32.322   4.251  1.00  0.00     0.008 A 
HETATM   10  C   UNL     1      50.327 -32.459   5.476  1.00  0.00     0.001 A 
HETATM   11  C   UNL     1      49.050 -31.933   5.644  1.00  0.00     0.001 A 
HETATM   12  C   UNL     1      48.424 -31.269   4.585  1.00  0.00     0.014 A 
HETATM   13  C   UNL     1      51.078 -31.455   1.889  1.00  0.00     0.054 C 
HETATM   14  C   UNL     1      50.151 -31.379   0.635  1.00  0.00    -0.002 C 
HETATM   15  C   UNL     1      49.612 -32.786   0.247  1.00  0.00     0.015 C 
HETATM   16  C   UNL     1      50.691 -33.767  -0.215  1.00  0.00     0.001 C 
HETATM   17  C   UNL     1      51.554 -33.188  -1.329  1.00  0.00     0.000 C 
HETATM   18  C   UNL     1      52.139 -31.830  -0.958  1.00  0.00     0.001 C 
HETATM   19  C   UNL     1      51.043 -30.849  -0.531  1.00  0.00     0.015 C 
HETATM   20  N   UNL     1      47.303 -29.651   2.533  1.00  0.00    -0.217 NA
ENDROOT
BRANCH   1  21
HETATM   21  N   UNL     1      45.694 -28.080   1.981  1.00  0.00    -0.171 NA
HETATM   22  H   UNL     1      45.231 -27.554   1.243  1.00  0.00     0.156 HD
BRANCH  21  23
HETATM   23  N   UNL     1      44.765 -28.724   2.828  1.00  0.00    -0.291 N 
HETATM   24  H   UNL     1      44.447 -28.110   3.578  1.00  0.00     0.183 HD
BRANCH  23  25
HETATM   25  C   UNL     1      43.859 -29.607   2.294  1.00  0.00     0.182 C 
HETATM   26  S   UNL     1      42.432 -29.205   1.521  1.00  0.00    -0.040 SA
BRANCH  25  27
HETATM   27  N   UNL     1      44.210 -30.929   2.346  1.00  0.00    -0.367 N 
HETATM   28  H   UNL     1      44.206 -31.305   3.288  1.00  0.00     0.161 HD
BRANCH  27  29
HETATM   29  C   UNL     1      44.152 -31.897   1.262  1.00  0.00     0.117 C 
HETATM   30  C   UNL     1      45.544 -32.276   0.788  1.00  0.00     0.026 C 
ENDBRANCH  27  29
ENDBRANCH  25  27
ENDBRANCH  23  25
ENDBRANCH  21  23
ENDBRANCH   1  21
BRANCH   2  31
HETATM   31  C   UNL     1      46.832 -27.825  -0.627  1.00  0.00     0.173 C 
BRANCH  31  32
HETATM   32  C   UNL     1      45.828 -28.341  -1.640  1.00  0.00    -0.040 A 
HETATM   33  C   UNL     1      44.821 -29.266  -1.332  1.00  0.00     0.009 A 
HETATM   34  C   UNL     1      43.949 -29.725  -2.322  1.00  0.00     0.001 A 
HETATM   35  C   UNL     1      44.075 -29.273  -3.634  1.00  0.00     0.000 A 
HETATM   36  C   UNL     1      45.074 -28.359  -3.958  1.00  0.00     0.001 A 
HETATM   37  C   UNL     1      45.943 -27.896  -2.969  1.00  0.00     0.009 A 
ENDBRANCH  31  32
ENDBRANCH   2  31
TORSDOF 7
ENDMDL
MODEL 4
REMARK VINA RESULT:      -8.4      3.482      6.778
REMARK  7 active torsions:
REMARK  status: ('A' for Active; 'I' for Inactive)
REMARK    1  A    between atoms: C_2  and  N_3 
REMARK    2  A    between atoms: N_3  and  C_4 
REMARK    3  A    between atoms: C_4  and  N_5 
REMARK    4  A    between atoms: N_5  and  N_6 
REMARK    5  A    between atoms: N_6  and  C_7 
REMARK    6  A    between atoms: N_8  and  C_9 
REMARK    7  A    between atoms: C_9  and  C_10 
ROOT
HETATM    1  C   UNL     1      40.521 -14.938   2.916  1.00  0.00     0.204 C 
HETATM    2  N   UNL     1      40.432 -13.847   3.754  1.00  0.00    -0.283 N 
HETATM    3  C   UNL     1      39.722 -12.730   3.363  1.00  0.00     0.259 C 
HETATM    4  O   UNL     1      39.275 -11.922   4.173  1.00  0.00    -0.267 OA
HETATM    5  C   UNL     1      39.496 -12.559   1.903  1.00  0.00     0.049 C 
HETATM    6  C   UNL     1      39.738 -13.658   1.161  1.00  0.00     0.083 C 
HETATM    7  C   UNL     1      39.518 -13.601  -0.310  1.00  0.00    -0.000 A 
HETATM    8  C   UNL     1      39.369 -12.362  -0.950  1.00  0.00    -0.044 A 
HETATM    9  C   UNL     1      39.211 -12.296  -2.344  1.00  0.00     0.008 A 
HETATM   10  C   UNL     1      39.180 -13.462  -3.105  1.00  0.00     0.001 A 
HETATM   11  C   UNL     1      39.319 -14.698  -2.480  1.00  0.00     0.001 A 
HETATM   12  C   UNL     1      39.489 -14.765  -1.094  1.00  0.00     0.014 A 
HETATM   13  C   UNL     1      39.477 -11.098  -0.145  1.00  0.00     0.054 C 
HETATM   14  C   UNL     1      38.968 -11.232   1.324  1.00  0.00    -0.002 C 
HETATM   15  C   UNL     1      37.414 -11.285   1.379  1.00  0.00     0.015 C 
HETATM   16  C   UNL     1      36.725  -9.998   0.921  1.00  0.00     0.001 C 
HETATM   17  C   UNL     1      37.254  -8.772   1.653  1.00  0.00     0.000 C 
HETATM   18  C   UNL     1      38.773  -8.664   1.574  1.00  0.00     0.001 C 
HETATM   19  C   UNL     1      39.449  -9.948   2.069  1.00  0.00     0.015 C 
HETATM   20  N   UNL     1      40.153 -14.862   1.670  1.00  0.00    -0.217 NA
ENDROOT
BRANCH   1  21
HETATM   21  N   UNL     1      40.983 -16.148   3.407  1.00  0.00    -0.171 NA
HETATM   22  H   UNL     1      40.297 -16.861   3.645  1.00  0.00     0.156 HD
BRANCH  21  23
HETATM   23  N   UNL     1      42.078 -16.689   2.697  1.00  0.00    -0.291 N 
HETATM   24  H   UNL     1      42.232 -16.205   1.812  1.00  0.00     0.183 HD
BRANCH  23  25
HETATM   25  C   UNL     1      43.178 -17.135   3.385  1.00  0.00     0.182 C 
HETATM   26  S   UNL     1      43.629 -16.670   4.927  1.00  0.00    -0.040 SA
BRANCH  25  27
HETATM   27  N   UNL     1      43.922 -18.100   2.763  1.00  0.00    -0.367 N 
HETATM   28  H   UNL     1      44.767 -17.738   2.333  1.00  0.00     0.161 HD
BRANCH  27  29
HETATM   29  C   UNL     1      43.887 -19.533   3.011  1.00  0.00     0.117 C 
HETATM   30  C   UNL     1      43.109 -20.259   1.927  1.00  0.00     0.026 C 
ENDBRANCH  27  29
ENDBRANCH  25  27
ENDBRANCH  23  25
ENDBRANCH  21  23
ENDBRANCH   1  21
BRANCH   2  31
HETATM   31  C   UNL     1      40.940 -13.863   5.122  1.00  0.00     0.173 C 
BRANCH  31  32
HETATM   32  C   UNL     1      42.249 -13.137   5.364  1.00  0.00    -0.040 A 
HETATM   33  C   UNL     1      42.964 -13.209   6.568  1.00  0.00     0.009 A 
HETATM   34  C   UNL     1      44.149 -12.487   6.736  1.00  0.00     0.001 A 
HETATM   35  C   UNL     1      44.630 -11.678   5.709  1.00  0.00     0.000 A 
HETATM   36  C   UNL     1      43.929 -11.591   4.510  1.00  0.00     0.001 A 
HETATM   37  C   UNL     1      42.748 -12.316   4.338  1.00  0.00     0.009 A 
ENDBRANCH  31  32
ENDBRANCH   2  31
TORSDOF 7
ENDMDL
MODEL 5
REMARK VINA RESULT:      -8.4     16.827     19.375
REMARK  7 active torsions:
REMARK  status: ('A' for Active; 'I' for Inactive)
REMARK    1  A    between atoms: C_2  and  N_3 
REMARK    2  A    between atoms: N_3  and  C_4 
REMARK    3  A    between atoms: C_4  and  N_5 
REMARK    4  A    between atoms: N_5  and  N_6 
REMARK    5  A    between atoms: N_6  and  C_7 
REMARK    6  A    between atoms: N_8  and  C_9 
REMARK    7  A    between atoms: C_9  and  C_10 
ROOT
HETATM    1  C   UNL     1      46.608 -28.903   0.918  1.00  0.00     0.204 C 
HETATM    2  N   UNL     1      46.279 -29.266   2.207  1.00  0.00    -0.283 N 
HETATM    3  C   UNL     1      47.238 -29.807   3.040  1.00  0.00     0.259 C 
HETATM    4  O   UNL     1      47.133 -29.778   4.263  1.00  0.00    -0.267 OA
HETATM    5  C   UNL     1      48.428 -30.410   2.384  1.00  0.00     0.049 C 
HETATM    6  C   UNL     1      48.582 -30.088   1.084  1.00  0.00     0.083 C 
HETATM    7  C   UNL     1      49.757 -30.620   0.341  1.00  0.00    -0.000 A 
HETATM    8  C   UNL     1      50.510 -31.674   0.879  1.00  0.00    -0.044 A 
HETATM    9  C   UNL     1      51.590 -32.214   0.163  1.00  0.00     0.008 A 
HETATM   10  C   UNL     1      51.938 -31.697  -1.083  1.00  0.00     0.001 A 
HETATM   11  C   UNL     1      51.204 -30.646  -1.623  1.00  0.00     0.001 A 
HETATM   12  C   UNL     1      50.121 -30.115  -0.917  1.00  0.00     0.014 A 
HETATM   13  C   UNL     1      50.094 -32.286   2.187  1.00  0.00     0.054 C 
HETATM   14  C   UNL     1      49.423 -31.282   3.176  1.00  0.00    -0.002 C 
HETATM   15  C   UNL     1      50.476 -30.328   3.811  1.00  0.00     0.015 C 
HETATM   16  C   UNL     1      51.494 -31.029   4.713  1.00  0.00     0.001 C 
HETATM   17  C   UNL     1      50.823 -31.887   5.778  1.00  0.00     0.000 C 
HETATM   18  C   UNL     1      49.821 -32.869   5.180  1.00  0.00     0.001 C 
HETATM   19  C   UNL     1      48.787 -32.147   4.308  1.00  0.00     0.015 C 
HETATM   20  N   UNL     1      47.737 -29.268   0.383  1.00  0.00    -0.217 NA
ENDROOT
BRANCH   1  21
HETATM   21  N   UNL     1      45.741 -28.112   0.183  1.00  0.00    -0.171 NA
HETATM   22  H   UNL     1      45.469 -27.211   0.571  1.00  0.00     0.156 HD
BRANCH  21  23
HETATM   23  N   UNL     1      46.056 -28.018  -1.191  1.00  0.00    -0.291 N 
HETATM   24  H   UNL     1      47.043 -28.203  -1.367  1.00  0.00     0.183 HD
BRANCH  23  25
HETATM   25  C   UNL     1      45.146 -28.447  -2.125  1.00  0.00     0.182 C 
HETATM   26  S   UNL     1      45.117 -28.016  -3.740  1.00  0.00    -0.040 SA
BRANCH  25  27
HETATM   27  N   UNL     1      44.230 -29.366  -1.690  1.00  0.00    -0.367 N 
HETATM   28  H   UNL     1      43.356 -28.947  -1.390  1.00  0.00     0.161 HD
BRANCH  27  29
HETATM   29  C   UNL     1      44.192 -30.786  -2.004  1.00  0.00     0.117 C 
HETATM   30  C   UNL     1      44.406 -31.630  -0.760  1.00  0.00     0.026 C 
ENDBRANCH  27  29
ENDBRANCH  25  27
ENDBRANCH  23  25
ENDBRANCH  21  23
ENDBRANCH   1  21
BRANCH   2  31
HETATM   31  C   UNL     1      44.978 -28.971   2.799  1.00  0.00     0.173 C 
BRANCH  31  32
HETATM   32  C   UNL     1      43.890 -30.006   2.584  1.00  0.00    -0.040 A 
HETATM   33  C   UNL     1      44.007 -31.346   2.979  1.00  0.00     0.009 A 
HETATM   34  C   UNL     1      42.979 -32.256   2.721  1.00  0.00     0.001 A 
HETATM   35  C   UNL     1      41.825 -31.844   2.059  1.00  0.00     0.000 A 
HETATM   36  C   UNL     1      41.696 -30.518   1.655  1.00  0.00     0.001 A 
HETATM   37  C   UNL     1      42.719 -29.606   1.916  1.00  0.00     0.009 A 
ENDBRANCH  31  32
ENDBRANCH   2  31
TORSDOF 7
ENDMDL
MODEL 6
REMARK VINA RESULT:      -8.3      3.559      6.977
REMARK  7 active torsions:
REMARK  status: ('A' for Active; 'I' for Inactive)
REMARK    1  A    between atoms: C_2  and  N_3 
REMARK    2  A    between atoms: N_3  and  C_4 
REMARK    3  A    between atoms: C_4  and  N_5 
REMARK    4  A    between atoms: N_5  and  N_6 
REMARK    5  A    between atoms: N_6  and  C_7 
REMARK    6  A    between atoms: N_8  and  C_9 
REMARK    7  A    between atoms: C_9  and  C_10 
ROOT
HETATM    1  C   UNL     1      40.028 -13.151   3.385  1.00  0.00     0.204 C 
HETATM    2  N   UNL     1      40.102 -11.921   4.002  1.00  0.00    -0.283 N 
HETATM    3  C   UNL     1      41.246 -11.554   4.681  1.00  0.00     0.259 C 
HETATM    4  O   UNL     1      41.531 -10.379   4.896  1.00  0.00    -0.267 OA
HETATM    5  C   UNL     1      42.142 -12.655   5.122  1.00  0.00     0.049 C 
HETATM    6  C   UNL     1      41.897 -13.849   4.547  1.00  0.00     0.083 C 
HETATM    7  C   UNL     1      42.755 -15.013   4.900  1.00  0.00    -0.000 A 
HETATM    8  C   UNL     1      43.588 -14.955   6.027  1.00  0.00    -0.044 A 
HETATM    9  C   UNL     1      44.363 -16.066   6.397  1.00  0.00     0.008 A 
HETATM   10  C   UNL     1      44.328 -17.232   5.638  1.00  0.00     0.001 A 
HETATM   11  C   UNL     1      43.512 -17.300   4.513  1.00  0.00     0.001 A 
HETATM   12  C   UNL     1      42.730 -16.199   4.151  1.00  0.00     0.014 A 
HETATM   13  C   UNL     1      43.573 -13.727   6.893  1.00  0.00     0.054 C 
HETATM   14  C   UNL     1      43.293 -12.402   6.116  1.00  0.00    -0.002 C 
HETATM   15  C   UNL     1      44.535 -11.960   5.290  1.00  0.00     0.015 C 
HETATM   16  C   UNL     1      45.750 -11.579   6.139  1.00  0.00     0.001 C 
HETATM   17  C   UNL     1      45.406 -10.544   7.202  1.00  0.00     0.000 C 
HETATM   18  C   UNL     1      44.222 -10.973   8.062  1.00  0.00     0.001 C 
HETATM   19  C   UNL     1      43.003 -11.317   7.200  1.00  0.00     0.015 C 
HETATM   20  N   UNL     1      40.915 -14.076   3.617  1.00  0.00    -0.217 NA
ENDROOT
BRANCH   1  21
HETATM   21  N   UNL     1      39.013 -13.407   2.479  1.00  0.00    -0.171 NA
HETATM   22  H   UNL     1      38.297 -12.696   2.347  1.00  0.00     0.156 HD
BRANCH  21  23
HETATM   23  N   UNL     1      39.449 -13.946   1.247  1.00  0.00    -0.291 N 
HETATM   24  H   UNL     1      39.083 -14.886   1.094  1.00  0.00     0.183 HD
BRANCH  23  25
HETATM   25  C   UNL     1      39.583 -13.123   0.157  1.00  0.00     0.182 C 
HETATM   26  S   UNL     1      40.949 -12.251  -0.255  1.00  0.00    -0.040 SA
BRANCH  25  27
HETATM   27  N   UNL     1      38.515 -13.082  -0.696  1.00  0.00    -0.367 N 
HETATM   28  H   UNL     1      37.697 -12.638  -0.291  1.00  0.00     0.161 HD
BRANCH  27  29
HETATM   29  C   UNL     1      38.544 -13.180  -2.148  1.00  0.00     0.117 C 
HETATM   30  C   UNL     1      38.874 -14.593  -2.596  1.00  0.00     0.026 C 
ENDBRANCH  27  29
ENDBRANCH  25  27
ENDBRANCH  23  25
ENDBRANCH  21  23
ENDBRANCH   1  21
BRANCH   2  31
HETATM   31  C   UNL     1      39.066 -10.903   3.852  1.00  0.00     0.173 C 
BRANCH  31  32
HETATM   32  C   UNL     1      39.007 -10.193   2.513  1.00  0.00    -0.040 A 
HETATM   33  C   UNL     1      40.038  -9.381   2.020  1.00  0.00     0.009 A 
HETATM   34  C   UNL     1      39.905  -8.729   0.792  1.00  0.00     0.001 A 
HETATM   35  C   UNL     1      38.739  -8.872   0.043  1.00  0.00     0.000 A 
HETATM   36  C   UNL     1      37.703  -9.670   0.522  1.00  0.00     0.001 A 
HETATM   37  C   UNL     1      37.836 -10.326   1.746  1.00  0.00     0.009 A 
ENDBRANCH  31  32
ENDBRANCH   2  31
TORSDOF 7
ENDMDL
MODEL 7
REMARK VINA RESULT:      -8.3      3.024      6.772
REMARK  7 active torsions:
REMARK  status: ('A' for Active; 'I' for Inactive)
REMARK    1  A    between atoms: C_2  and  N_3 
REMARK    2  A    between atoms: N_3  and  C_4 
REMARK    3  A    between atoms: C_4  and  N_5 
REMARK    4  A    between atoms: N_5  and  N_6 
REMARK    5  A    between atoms: N_6  and  C_7 
REMARK    6  A    between atoms: N_8  and  C_9 
REMARK    7  A    between atoms: C_9  and  C_10 
ROOT
HETATM    1  C   UNL     1      40.045 -13.620   3.939  1.00  0.00     0.204 C 
HETATM    2  N   UNL     1      40.104 -14.617   2.988  1.00  0.00    -0.283 N 
HETATM    3  C   UNL     1      40.241 -14.294   1.653  1.00  0.00     0.259 C 
HETATM    4  O   UNL     1      40.688 -15.088   0.830  1.00  0.00    -0.267 OA
HETATM    5  C   UNL     1      39.842 -12.918   1.255  1.00  0.00     0.049 C 
HETATM    6  C   UNL     1      39.688 -12.054   2.279  1.00  0.00     0.083 C 
HETATM    7  C   UNL     1      39.315 -10.644   1.987  1.00  0.00    -0.000 A 
HETATM    8  C   UNL     1      38.829 -10.294   0.718  1.00  0.00    -0.044 A 
HETATM    9  C   UNL     1      38.428  -8.976   0.449  1.00  0.00     0.008 A 
HETATM   10  C   UNL     1      38.526  -7.995   1.433  1.00  0.00     0.001 A 
HETATM   11  C   UNL     1      39.014  -8.328   2.693  1.00  0.00     0.001 A 
HETATM   12  C   UNL     1      39.402  -9.643   2.966  1.00  0.00     0.014 A 
HETATM   13  C   UNL     1      38.650 -11.362  -0.324  1.00  0.00     0.054 C 
HETATM   14  C   UNL     1      39.686 -12.527  -0.227  1.00  0.00    -0.002 C 
HETATM   15  C   UNL     1      41.084 -12.080  -0.743  1.00  0.00     0.015 C 
HETATM   16  C   UNL     1      41.126 -11.741  -2.234  1.00  0.00     0.001 C 
HETATM   17  C   UNL     1      40.562 -12.865  -3.094  1.00  0.00     0.000 C 
HETATM   18  C   UNL     1      39.168 -13.291  -2.645  1.00  0.00     0.001 C 
HETATM   19  C   UNL     1      39.151 -13.660  -1.158  1.00  0.00     0.015 C 
HETATM   20  N   UNL     1      39.880 -12.374   3.598  1.00  0.00    -0.217 NA
ENDROOT
BRANCH   1  21
HETATM   21  N   UNL     1      40.192 -13.936   5.278  1.00  0.00    -0.171 NA
HETATM   22  H   UNL     1      40.551 -14.858   5.516  1.00  0.00     0.156 HD
BRANCH  21  23
HETATM   23  N   UNL     1      40.794 -12.922   6.057  1.00  0.00    -0.291 N 
HETATM   24  H   UNL     1      40.355 -12.839   6.974  1.00  0.00     0.183 HD
BRANCH  23  25
HETATM   25  C   UNL     1      42.148 -12.716   5.971  1.00  0.00     0.182 C 
HETATM   26  S   UNL     1      43.332 -13.630   6.718  1.00  0.00    -0.040 SA
BRANCH  25  27
HETATM   27  N   UNL     1      42.548 -11.708   5.136  1.00  0.00    -0.367 N 
HETATM   28  H   UNL     1      42.251 -10.789   5.449  1.00  0.00     0.161 HD
BRANCH  27  29
HETATM   29  C   UNL     1      43.641 -11.742   4.177  1.00  0.00     0.117 C 
HETATM   30  C   UNL     1      43.365 -12.740   3.065  1.00  0.00     0.026 C 
ENDBRANCH  27  29
ENDBRANCH  25  27
ENDBRANCH  23  25
ENDBRANCH  21  23
ENDBRANCH   1  21
BRANCH   2  31
HETATM   31  C   UNL     1      40.174 -16.032   3.338  1.00  0.00     0.173 C 
BRANCH  31  32
HETATM   32  C   UNL     1      41.564 -16.619   3.492  1.00  0.00    -0.040 A 
HETATM   33  C   UNL     1      42.248 -17.275   2.459  1.00  0.00     0.009 A 
HETATM   34  C   UNL     1      43.514 -17.823   2.680  1.00  0.00     0.001 A 
HETATM   35  C   UNL     1      44.111 -17.731   3.935  1.00  0.00     0.000 A 
HETATM   36  C   UNL     1      43.442 -17.089   4.974  1.00  0.00     0.001 A 
HETATM   37  C   UNL     1      42.180 -16.536   4.754  1.00  0.00     0.009 A 
ENDBRANCH  31  32
ENDBRANCH   2  31
TORSDOF 7
ENDMDL
MODEL 8
REMARK VINA RESULT:      -8.0      2.762      5.290
REMARK  7 active torsions:
REMARK  status: ('A' for Active; 'I' for Inactive)
REMARK    1  A    between atoms: C_2  and  N_3 
REMARK    2  A    between atoms: N_3  and  C_4 
REMARK    3  A    between atoms: C_4  and  N_5 
REMARK    4  A    between atoms: N_5  and  N_6 
REMARK    5  A    between atoms: N_6  and  C_7 
REMARK    6  A    between atoms: N_8  and  C_9 
REMARK    7  A    between atoms: C_9  and  C_10 
ROOT
HETATM    1  C   UNL     1      42.041 -10.279   4.105  1.00  0.00     0.204 C 
HETATM    2  N   UNL     1      42.193 -11.340   4.972  1.00  0.00    -0.283 N 
HETATM    3  C   UNL     1      42.399 -12.613   4.478  1.00  0.00     0.259 C 
HETATM    4  O   UNL     1      42.925 -13.498   5.148  1.00  0.00    -0.267 OA
HETATM    5  C   UNL     1      41.976 -12.861   3.074  1.00  0.00     0.049 C 
HETATM    6  C   UNL     1      41.729 -11.750   2.353  1.00  0.00     0.083 C 
HETATM    7  C   UNL     1      41.324 -11.887   0.927  1.00  0.00    -0.000 A 
HETATM    8  C   UNL     1      40.904 -13.130   0.433  1.00  0.00    -0.044 A 
HETATM    9  C   UNL     1      40.472 -13.259  -0.897  1.00  0.00     0.008 A 
HETATM   10  C   UNL     1      40.475 -12.156  -1.747  1.00  0.00     0.001 A 
HETATM   11  C   UNL     1      40.897 -10.918  -1.271  1.00  0.00     0.001 A 
HETATM   12  C   UNL     1      41.315 -10.786   0.056  1.00  0.00     0.014 A 
HETATM   13  C   UNL     1      40.827 -14.307   1.365  1.00  0.00     0.054 C 
HETATM   14  C   UNL     1      41.896 -14.290   2.503  1.00  0.00    -0.002 C 
HETATM   15  C   UNL     1      43.306 -14.654   1.955  1.00  0.00     0.015 C 
HETATM   16  C   UNL     1      43.426 -16.085   1.429  1.00  0.00     0.001 C 
HETATM   17  C   UNL     1      42.956 -17.114   2.450  1.00  0.00     0.000 C 
HETATM   18  C   UNL     1      41.554 -16.812   2.968  1.00  0.00     0.001 C 
HETATM   19  C   UNL     1      41.460 -15.387   3.523  1.00  0.00     0.015 C 
HETATM   20  N   UNL     1      41.852 -10.471   2.831  1.00  0.00    -0.217 NA
ENDROOT
BRANCH   1  21
HETATM   21  N   UNL     1      42.118  -8.982   4.585  1.00  0.00    -0.171 NA
HETATM   22  H   UNL     1      43.036  -8.611   4.817  1.00  0.00     0.156 HD
BRANCH  21  23
HETATM   23  N   UNL     1      41.338  -8.046   3.869  1.00  0.00    -0.291 N 
HETATM   24  H   UNL     1      41.398  -8.195   2.862  1.00  0.00     0.183 HD
BRANCH  23  25
HETATM   25  C   UNL     1      40.138  -7.627   4.386  1.00  0.00     0.182 C 
HETATM   26  S   UNL     1      38.662  -8.385   4.184  1.00  0.00    -0.040 SA
BRANCH  25  27
HETATM   27  N   UNL     1      40.188  -6.525   5.196  1.00  0.00    -0.367 N 
HETATM   28  H   UNL     1      39.774  -5.701   4.774  1.00  0.00     0.161 HD
BRANCH  27  29
HETATM   29  C   UNL     1      40.340  -6.504   6.643  1.00  0.00     0.117 C 
HETATM   30  C   UNL     1      41.796  -6.328   7.040  1.00  0.00     0.026 C 
ENDBRANCH  27  29
ENDBRANCH  25  27
ENDBRANCH  23  25
ENDBRANCH  21  23
ENDBRANCH   1  21
BRANCH   2  31
HETATM   31  C   UNL     1      42.294 -11.167   6.417  1.00  0.00     0.173 C 
BRANCH  31  32
HETATM   32  C   UNL     1      43.625 -10.668   6.945  1.00  0.00    -0.040 A 
HETATM   33  C   UNL     1      44.849 -11.296   6.678  1.00  0.00     0.009 A 
HETATM   34  C   UNL     1      46.036 -10.802   7.224  1.00  0.00     0.001 A 
HETATM   35  C   UNL     1      46.017  -9.680   8.050  1.00  0.00     0.000 A 
HETATM   36  C   UNL     1      44.808  -9.048   8.330  1.00  0.00     0.001 A 
HETATM   37  C   UNL     1      43.622  -9.537   7.782  1.00  0.00     0.009 A 
ENDBRANCH  31  32
ENDBRANCH   2  31
TORSDOF 7
ENDMDL
MODEL 9
REMARK VINA RESULT:      -7.9      3.477      6.636
REMARK  7 active torsions:
REMARK  status: ('A' for Active; 'I' for Inactive)
REMARK    1  A    between atoms: C_2  and  N_3 
REMARK    2  A    between atoms: N_3  and  C_4 
REMARK    3  A    between atoms: C_4  and  N_5 
REMARK    4  A    between atoms: N_5  and  N_6 
REMARK    5  A    between atoms: N_6  and  C_7 
REMARK    6  A    between atoms: N_8  and  C_9 
REMARK    7  A    between atoms: C_9  and  C_10 
ROOT
HETATM    1  C   UNL     1      41.959 -11.087   2.295  1.00  0.00     0.204 C 
HETATM    2  N   UNL     1      41.017 -12.091   2.373  1.00  0.00    -0.283 N 
HETATM    3  C   UNL     1      40.419 -12.570   1.224  1.00  0.00     0.259 C 
HETATM    4  O   UNL     1      39.901 -13.682   1.171  1.00  0.00    -0.267 OA
HETATM    5  C   UNL     1      40.451 -11.679   0.034  1.00  0.00     0.049 C 
HETATM    6  C   UNL     1      41.319 -10.651   0.119  1.00  0.00     0.083 C 
HETATM    7  C   UNL     1      41.448  -9.715  -1.030  1.00  0.00    -0.000 A 
HETATM    8  C   UNL     1      40.477  -9.707  -2.042  1.00  0.00    -0.044 A 
HETATM    9  C   UNL     1      40.563  -8.793  -3.104  1.00  0.00     0.008 A 
HETATM   10  C   UNL     1      41.625  -7.895  -3.175  1.00  0.00     0.001 A 
HETATM   11  C   UNL     1      42.599  -7.898  -2.181  1.00  0.00     0.001 A 
HETATM   12  C   UNL     1      42.508  -8.799  -1.117  1.00  0.00     0.014 A 
HETATM   13  C   UNL     1      39.289 -10.621  -1.931  1.00  0.00     0.054 C 
HETATM   14  C   UNL     1      39.589 -11.972  -1.209  1.00  0.00    -0.002 C 
HETATM   15  C   UNL     1      40.402 -12.931  -2.126  1.00  0.00     0.015 C 
HETATM   16  C   UNL     1      39.649 -13.399  -3.373  1.00  0.00     0.001 C 
HETATM   17  C   UNL     1      38.289 -13.994  -3.032  1.00  0.00     0.000 C 
HETATM   18  C   UNL     1      37.447 -13.054  -2.176  1.00  0.00     0.001 C 
HETATM   19  C   UNL     1      38.202 -12.623  -0.914  1.00  0.00     0.015 C 
HETATM   20  N   UNL     1      42.134 -10.411   1.196  1.00  0.00    -0.217 NA
ENDROOT
BRANCH   1  21
HETATM   21  N   UNL     1      42.756 -10.805   3.391  1.00  0.00    -0.171 NA
HETATM   22  H   UNL     1      43.752 -10.662   3.235  1.00  0.00     0.156 HD
BRANCH  21  23
HETATM   23  N   UNL     1      42.219  -9.841   4.274  1.00  0.00    -0.291 N 
HETATM   24  H   UNL     1      41.400  -9.380   3.877  1.00  0.00     0.183 HD
BRANCH  23  25
HETATM   25  C   UNL     1      42.232 -10.078   5.625  1.00  0.00     0.182 C 
HETATM   26  S   UNL     1      40.931  -9.925   6.663  1.00  0.00    -0.040 SA
BRANCH  25  27
HETATM   27  N   UNL     1      43.410 -10.550   6.139  1.00  0.00    -0.367 N 
HETATM   28  H   UNL     1      44.178  -9.895   6.042  1.00  0.00     0.161 HD
BRANCH  27  29
HETATM   29  C   UNL     1      43.578 -11.603   7.129  1.00  0.00     0.117 C 
HETATM   30  C   UNL     1      43.755 -12.958   6.466  1.00  0.00     0.026 C 
ENDBRANCH  27  29
ENDBRANCH  25  27
ENDBRANCH  23  25
ENDBRANCH  21  23
ENDBRANCH   1  21
BRANCH   2  31
HETATM   31  C   UNL     1      40.716 -12.792   3.617  1.00  0.00     0.173 C 
BRANCH  31  32
HETATM   32  C   UNL     1      41.432 -14.111   3.838  1.00  0.00    -0.040 A 
HETATM   33  C   UNL     1      42.642 -14.449   3.217  1.00  0.00     0.009 A 
HETATM   34  C   UNL     1      43.232 -15.696   3.439  1.00  0.00     0.001 A 
HETATM   35  C   UNL     1      42.617 -16.624   4.277  1.00  0.00     0.000 A 
HETATM   36  C   UNL     1      41.412 -16.306   4.896  1.00  0.00     0.001 A 
HETATM   37  C   UNL     1      40.824 -15.059   4.680  1.00  0.00     0.009 A 
ENDBRANCH  31  32
ENDBRANCH   2  31
TORSDOF 7
ENDMDL
MODEL 10
REMARK VINA RESULT:      -7.9      9.556     13.449
REMARK  7 active torsions:
REMARK  status: ('A' for Active; 'I' for Inactive)
REMARK    1  A    between atoms: C_2  and  N_3 
REMARK    2  A    between atoms: N_3  and  C_4 
REMARK    3  A    between atoms: C_4  and  N_5 
REMARK    4  A    between atoms: N_5  and  N_6 
REMARK    5  A    between atoms: N_6  and  C_7 
REMARK    6  A    between atoms: N_8  and  C_9 
REMARK    7  A    between atoms: C_9  and  C_10 
ROOT
HETATM    1  C   UNL     1      40.877  -4.963  16.248  1.00  0.00     0.204 C 
HETATM    2  N   UNL     1      40.489  -6.286  16.259  1.00  0.00    -0.283 N 
HETATM    3  C   UNL     1      40.964  -7.155  15.297  1.00  0.00     0.259 C 
HETATM    4  O   UNL     1      40.991  -8.371  15.469  1.00  0.00    -0.267 OA
HETATM    5  C   UNL     1      41.473  -6.545  14.040  1.00  0.00     0.049 C 
HETATM    6  C   UNL     1      41.697  -5.218  14.104  1.00  0.00     0.083 C 
HETATM    7  C   UNL     1      42.232  -4.515  12.906  1.00  0.00    -0.000 A 
HETATM    8  C   UNL     1      42.206  -5.143  11.653  1.00  0.00    -0.044 A 
HETATM    9  C   UNL     1      42.662  -4.469  10.509  1.00  0.00     0.008 A 
HETATM   10  C   UNL     1      43.163  -3.173  10.609  1.00  0.00     0.001 A 
HETATM   11  C   UNL     1      43.201  -2.542  11.848  1.00  0.00     0.001 A 
HETATM   12  C   UNL     1      42.736  -3.207  12.986  1.00  0.00     0.014 A 
HETATM   13  C   UNL     1      41.597  -6.512  11.526  1.00  0.00     0.054 C 
HETATM   14  C   UNL     1      41.768  -7.405  12.795  1.00  0.00    -0.002 C 
HETATM   15  C   UNL     1      43.228  -7.928  12.923  1.00  0.00     0.015 C 
HETATM   16  C   UNL     1      43.655  -8.880  11.805  1.00  0.00     0.001 C 
HETATM   17  C   UNL     1      42.677 -10.034  11.629  1.00  0.00     0.000 C 
HETATM   18  C   UNL     1      41.242  -9.551  11.449  1.00  0.00     0.001 C 
HETATM   19  C   UNL     1      40.818  -8.627  12.595  1.00  0.00     0.015 C 
HETATM   20  N   UNL     1      41.494  -4.450  15.222  1.00  0.00    -0.217 NA
ENDROOT
BRANCH   1  21
HETATM   21  N   UNL     1      40.636  -4.166  17.354  1.00  0.00    -0.171 NA
HETATM   22  H   UNL     1      40.047  -4.540  18.095  1.00  0.00     0.156 HD
BRANCH  21  23
HETATM   23  N   UNL     1      41.781  -3.519  17.870  1.00  0.00    -0.291 N 
HETATM   24  H   UNL     1      41.951  -2.625  17.408  1.00  0.00     0.183 HD
BRANCH  23  25
HETATM   25  C   UNL     1      42.069  -3.615  19.209  1.00  0.00     0.182 C 
HETATM   26  S   UNL     1      43.501  -3.161  19.942  1.00  0.00    -0.040 SA
BRANCH  25  27
HETATM   27  N   UNL     1      41.051  -4.059  20.008  1.00  0.00    -0.367 N 
HETATM   28  H   UNL     1      40.200  -4.262  19.495  1.00  0.00     0.161 HD
BRANCH  27  29
HETATM   29  C   UNL     1      41.169  -4.659  21.329  1.00  0.00     0.117 C 
HETATM   30  C   UNL     1      40.034  -5.634  21.592  1.00  0.00     0.026 C 
ENDBRANCH  27  29
ENDBRANCH  25  27
ENDBRANCH  23  25
ENDBRANCH  21  23
ENDBRANCH   1  21
BRANCH   2  31
HETATM   31  C   UNL     1      39.699  -6.864  17.341  1.00  0.00     0.173 C 
BRANCH  31  32
HETATM   32  C   UNL     1      40.473  -7.556  18.446  1.00  0.00    -0.040 A 
HETATM   33  C   UNL     1      41.829  -7.316  18.709  1.00  0.00     0.009 A 
HETATM   34  C   UNL     1      42.492  -8.013  19.723  1.00  0.00     0.001 A 
HETATM   35  C   UNL     1      41.812  -8.963  20.482  1.00  0.00     0.000 A 
HETATM   36  C   UNL     1      40.467  -9.218  20.229  1.00  0.00     0.001 A 
HETATM   37  C   UNL     1      39.803  -8.519  19.220  1.00  0.00     0.009 A 
ENDBRANCH  31  32
ENDBRANCH   2  31
TORSDOF 7
ENDMDL
