MODEL 1
REMARK VINA RESULT:      -9.5      0.000      0.000
REMARK  8 active torsions:
REMARK  status: ('A' for Active; 'I' for Inactive)
REMARK       I    between atoms: C_2  and  N_3 
REMARK    1  A    between atoms: N_6  and  C_7 
REMARK    2  A    between atoms: C_8  and  N_9 
REMARK    3  A    between atoms: N_9  and  C_10 
REMARK    4  A    between atoms: C_10  and  N_11 
REMARK       I    between atoms: N_11  and  C_12 
REMARK    5  A    between atoms: C_12  and  C_13 
REMARK    6  A    between atoms: C_15  and  O_16 
REMARK    7  A    between atoms: O_16  and  C_17 
REMARK    8  A    between atoms: C_17  and  C_18 
ROOT
HETATM    1  C   UNL     1      41.749 -10.821   6.385  1.00  0.00     0.179 C 
HETATM    2  S   UNL     1      40.788  -9.453   6.365  1.00  0.00    -0.040 SA
ENDROOT
BRANCH   1   3
HETATM    3  N   UNL     1      42.517 -11.083   7.463  1.00  0.00    -0.331 N 
HETATM    4  H   UNL     1      42.043 -11.485   8.268  1.00  0.00     0.168 HD
BRANCH   3   5
HETATM    5  C   UNL     1      43.820 -10.642   7.795  1.00  0.00     0.061 A 
HETATM    6  C   UNL     1      43.908  -9.631   8.794  1.00  0.00     0.057 A 
HETATM    7  C   UNL     1      45.152  -9.014   8.983  1.00  0.00     0.031 A 
HETATM    8  C   UNL     1      46.279  -9.417   8.260  1.00  0.00     0.002 A 
HETATM    9  C   UNL     1      46.184 -10.443   7.325  1.00  0.00     0.002 A 
HETATM   10  C   UNL     1      44.954 -11.052   7.085  1.00  0.00     0.032 A 
BRANCH   6  11
HETATM   11  N   UNL     1      42.760  -9.299   9.546  1.00  0.00    -0.376 N 
HETATM   12  C   UNL     1      42.734  -9.943  10.896  1.00  0.00     0.143 C 
HETATM   13  C   UNL     1      43.367  -9.035  11.968  1.00  0.00     0.145 C 
HETATM   14  N   UNL     1      42.707  -7.724  11.968  1.00  0.00    -0.349 N 
HETATM   15  C   UNL     1      41.666  -7.382  12.816  1.00  0.00     0.215 C 
HETATM   16  C   UNL     1      42.812  -7.039  10.677  1.00  0.00     0.145 C 
HETATM   17  C   UNL     1      41.509  -8.197  14.074  1.00  0.00     0.117 C 
HETATM   18  O   UNL     1      40.895  -6.452  12.580  1.00  0.00    -0.274 OA
HETATM   19  C   UNL     1      42.237  -7.909   9.538  1.00  0.00     0.143 C 
ENDBRANCH   6  11
ENDBRANCH   3   5
ENDBRANCH   1   3
BRANCH   1  20
HETATM   20  N   UNL     1      41.679 -11.668   5.323  1.00  0.00    -0.299 N 
HETATM   21  C   UNL     1      41.829 -13.051   5.383  1.00  0.00     0.257 C 
HETATM   22  O   UNL     1      42.351 -13.702   6.278  1.00  0.00    -0.267 OA
HETATM   23  H   UNL     1      40.978 -11.356   4.663  1.00  0.00     0.171 HD
BRANCH  21  24
HETATM   24  C   UNL     1      41.198 -13.774   4.247  1.00  0.00     0.035 A 
HETATM   25  C   UNL     1      41.718 -14.983   3.778  1.00  0.00     0.053 A 
HETATM   26  C   UNL     1      41.156 -15.573   2.650  1.00  0.00     0.070 A 
HETATM   27  C   UNL     1      40.054 -15.004   2.014  1.00  0.00     0.037 A 
HETATM   28  C   UNL     1      39.516 -13.812   2.501  1.00  0.00     0.004 A 
HETATM   29  C   UNL     1      40.086 -13.196   3.618  1.00  0.00     0.017 A 
BRANCH  26  30
HETATM   30  O   UNL     1      41.677 -16.763   2.226  1.00  0.00    -0.347 OA
BRANCH  30  31
HETATM   31  C   UNL     1      43.087 -16.822   2.471  1.00  0.00     0.214 C 
BRANCH  31  32
HETATM   32  C   UNL     1      43.395 -18.197   3.008  1.00  0.00    -0.034 A 
HETATM   33  C   UNL     1      43.875 -18.357   4.315  1.00  0.00     0.009 A 
HETATM   34  C   UNL     1      44.197 -19.626   4.799  1.00  0.00     0.001 A 
HETATM   35  C   UNL     1      44.051 -20.744   3.979  1.00  0.00     0.000 A 
HETATM   36  C   UNL     1      43.585 -20.595   2.675  1.00  0.00     0.001 A 
HETATM   37  C   UNL     1      43.261 -19.328   2.189  1.00  0.00     0.009 A 
ENDBRANCH  31  32
ENDBRANCH  30  31
ENDBRANCH  26  30
ENDBRANCH  21  24
ENDBRANCH   1  20
TORSDOF 8
ENDMDL
MODEL 2
REMARK VINA RESULT:      -9.4      2.929     10.442
REMARK  8 active torsions:
REMARK  status: ('A' for Active; 'I' for Inactive)
REMARK       I    between atoms: C_2  and  N_3 
REMARK    1  A    between atoms: N_6  and  C_7 
REMARK    2  A    between atoms: C_8  and  N_9 
REMARK    3  A    between atoms: N_9  and  C_10 
REMARK    4  A    between atoms: C_10  and  N_11 
REMARK       I    between atoms: N_11  and  C_12 
REMARK    5  A    between atoms: C_12  and  C_13 
REMARK    6  A    between atoms: C_15  and  O_16 
REMARK    7  A    between atoms: O_16  and  C_17 
REMARK    8  A    between atoms: C_17  and  C_18 
ROOT
HETATM    1  C   UNL     1      43.292 -15.070   6.578  1.00  0.00     0.179 C 
HETATM    2  S   UNL     1      43.184 -16.088   7.901  1.00  0.00    -0.040 SA
ENDROOT
BRANCH   1   3
HETATM    3  N   UNL     1      42.608 -15.361   5.453  1.00  0.00    -0.331 N 
HETATM    4  H   UNL     1      41.637 -15.058   5.423  1.00  0.00     0.168 HD
BRANCH   3   5
HETATM    5  C   UNL     1      42.901 -16.265   4.404  1.00  0.00     0.061 A 
HETATM    6  C   UNL     1      42.074 -16.178   3.247  1.00  0.00     0.057 A 
HETATM    7  C   UNL     1      42.186 -17.197   2.293  1.00  0.00     0.031 A 
HETATM    8  C   UNL     1      43.118 -18.231   2.441  1.00  0.00     0.002 A 
HETATM    9  C   UNL     1      43.952 -18.269   3.553  1.00  0.00     0.002 A 
HETATM   10  C   UNL     1      43.841 -17.293   4.540  1.00  0.00     0.032 A 
BRANCH   6  11
HETATM   11  N   UNL     1      41.194 -15.084   3.107  1.00  0.00    -0.376 N 
HETATM   12  C   UNL     1      41.901 -13.777   2.927  1.00  0.00     0.143 C 
HETATM   13  C   UNL     1      42.113 -13.450   1.436  1.00  0.00     0.145 C 
HETATM   14  N   UNL     1      40.828 -13.485   0.727  1.00  0.00    -0.349 N 
HETATM   15  C   UNL     1      40.047 -12.367   0.486  1.00  0.00     0.215 C 
HETATM   16  C   UNL     1      40.171 -14.792   0.813  1.00  0.00     0.145 C 
HETATM   17  C   UNL     1      40.733 -11.026   0.536  1.00  0.00     0.117 C 
HETATM   18  O   UNL     1      38.845 -12.438   0.230  1.00  0.00    -0.274 OA
HETATM   19  C   UNL     1      39.964 -15.214   2.285  1.00  0.00     0.143 C 
ENDBRANCH   6  11
ENDBRANCH   3   5
ENDBRANCH   1   3
BRANCH   1  20
HETATM   20  N   UNL     1      44.030 -13.934   6.704  1.00  0.00    -0.299 N 
HETATM   21  C   UNL     1      43.522 -12.638   6.711  1.00  0.00     0.257 C 
HETATM   22  O   UNL     1      42.430 -12.268   6.300  1.00  0.00    -0.267 OA
HETATM   23  H   UNL     1      44.803 -14.079   7.340  1.00  0.00     0.171 HD
BRANCH  21  24
HETATM   24  C   UNL     1      44.409 -11.648   7.377  1.00  0.00     0.035 A 
HETATM   25  C   UNL     1      44.080 -11.100   8.619  1.00  0.00     0.053 A 
HETATM   26  C   UNL     1      44.889 -10.103   9.158  1.00  0.00     0.070 A 
HETATM   27  C   UNL     1      46.044  -9.681   8.502  1.00  0.00     0.037 A 
HETATM   28  C   UNL     1      46.388 -10.252   7.277  1.00  0.00     0.004 A 
HETATM   29  C   UNL     1      45.572 -11.236   6.712  1.00  0.00     0.017 A 
BRANCH  26  30
HETATM   30  O   UNL     1      44.549  -9.598  10.381  1.00  0.00    -0.347 OA
BRANCH  30  31
HETATM   31  C   UNL     1      43.383 -10.249  10.899  1.00  0.00     0.214 C 
BRANCH  31  32
HETATM   32  C   UNL     1      42.903  -9.445  12.081  1.00  0.00    -0.034 A 
HETATM   33  C   UNL     1      43.553  -8.257  12.442  1.00  0.00     0.009 A 
HETATM   34  C   UNL     1      43.133  -7.533  13.559  1.00  0.00     0.001 A 
HETATM   35  C   UNL     1      42.068  -7.994  14.330  1.00  0.00     0.000 A 
HETATM   36  C   UNL     1      41.421  -9.179  13.986  1.00  0.00     0.001 A 
HETATM   37  C   UNL     1      41.837  -9.904  12.869  1.00  0.00     0.009 A 
ENDBRANCH  31  32
ENDBRANCH  30  31
ENDBRANCH  26  30
ENDBRANCH  21  24
ENDBRANCH   1  20
TORSDOF 8
ENDMDL
MODEL 3
REMARK VINA RESULT:      -9.1      2.712     10.207
REMARK  8 active torsions:
REMARK  status: ('A' for Active; 'I' for Inactive)
REMARK       I    between atoms: C_2  and  N_3 
REMARK    1  A    between atoms: N_6  and  C_7 
REMARK    2  A    between atoms: C_8  and  N_9 
REMARK    3  A    between atoms: N_9  and  C_10 
REMARK    4  A    between atoms: C_10  and  N_11 
REMARK       I    between atoms: N_11  and  C_12 
REMARK    5  A    between atoms: C_12  and  C_13 
REMARK    6  A    between atoms: C_15  and  O_16 
REMARK    7  A    between atoms: O_16  and  C_17 
REMARK    8  A    between atoms: C_17  and  C_18 
ROOT
HETATM    1  C   UNL     1      41.826 -11.084   3.478  1.00  0.00     0.179 C 
HETATM    2  S   UNL     1      40.699  -9.848   3.479  1.00  0.00    -0.040 SA
ENDROOT
BRANCH   1   3
HETATM    3  N   UNL     1      42.061 -11.774   2.343  1.00  0.00    -0.331 N 
HETATM    4  H   UNL     1      42.886 -11.503   1.812  1.00  0.00     0.168 HD
BRANCH   3   5
HETATM    5  C   UNL     1      41.218 -12.626   1.590  1.00  0.00     0.061 A 
HETATM    6  C   UNL     1      41.562 -14.008   1.584  1.00  0.00     0.057 A 
HETATM    7  C   UNL     1      40.892 -14.837   0.675  1.00  0.00     0.031 A 
HETATM    8  C   UNL     1      39.881 -14.339  -0.153  1.00  0.00     0.002 A 
HETATM    9  C   UNL     1      39.524 -12.996  -0.095  1.00  0.00     0.002 A 
HETATM   10  C   UNL     1      40.196 -12.135   0.770  1.00  0.00     0.032 A 
BRANCH   6  11
HETATM   11  N   UNL     1      42.542 -14.481   2.482  1.00  0.00    -0.376 N 
HETATM   12  C   UNL     1      42.005 -14.758   3.850  1.00  0.00     0.143 C 
HETATM   13  C   UNL     1      41.553 -16.224   3.995  1.00  0.00     0.145 C 
HETATM   14  N   UNL     1      42.656 -17.125   3.642  1.00  0.00    -0.349 N 
HETATM   15  C   UNL     1      43.524 -17.684   4.567  1.00  0.00     0.215 C 
HETATM   16  C   UNL     1      43.127 -16.932   2.268  1.00  0.00     0.145 C 
HETATM   17  C   UNL     1      43.056 -17.747   5.998  1.00  0.00     0.117 C 
HETATM   18  O   UNL     1      44.630 -18.126   4.257  1.00  0.00    -0.274 OA
HETATM   19  C   UNL     1      43.557 -15.467   2.030  1.00  0.00     0.143 C 
ENDBRANCH   6  11
ENDBRANCH   3   5
ENDBRANCH   1   3
BRANCH   1  20
HETATM   20  N   UNL     1      42.522 -11.316   4.624  1.00  0.00    -0.299 N 
HETATM   21  C   UNL     1      43.909 -11.375   4.727  1.00  0.00     0.257 C 
HETATM   22  O   UNL     1      44.713 -11.553   3.822  1.00  0.00    -0.267 OA
HETATM   23  H   UNL     1      42.066 -10.878   5.413  1.00  0.00     0.171 HD
BRANCH  21  24
HETATM   24  C   UNL     1      44.422 -11.105   6.097  1.00  0.00     0.035 A 
HETATM   25  C   UNL     1      43.563 -10.720   7.129  1.00  0.00     0.053 A 
HETATM   26  C   UNL     1      44.099 -10.381   8.369  1.00  0.00     0.070 A 
HETATM   27  C   UNL     1      45.470 -10.469   8.608  1.00  0.00     0.037 A 
HETATM   28  C   UNL     1      46.322 -10.883   7.585  1.00  0.00     0.004 A 
HETATM   29  C   UNL     1      45.801 -11.203   6.329  1.00  0.00     0.017 A 
BRANCH  26  30
HETATM   30  O   UNL     1      43.232 -10.023   9.361  1.00  0.00    -0.347 OA
BRANCH  30  31
HETATM   31  C   UNL     1      43.520 -10.729  10.574  1.00  0.00     0.214 C 
BRANCH  31  32
HETATM   32  C   UNL     1      43.217  -9.799  11.722  1.00  0.00    -0.034 A 
HETATM   33  C   UNL     1      42.420 -10.228  12.791  1.00  0.00     0.009 A 
HETATM   34  C   UNL     1      42.107  -9.354  13.834  1.00  0.00     0.001 A 
HETATM   35  C   UNL     1      42.580  -8.044  13.813  1.00  0.00     0.000 A 
HETATM   36  C   UNL     1      43.364  -7.604  12.749  1.00  0.00     0.001 A 
HETATM   37  C   UNL     1      43.680  -8.475  11.706  1.00  0.00     0.009 A 
ENDBRANCH  31  32
ENDBRANCH  30  31
ENDBRANCH  26  30
ENDBRANCH  21  24
ENDBRANCH   1  20
TORSDOF 8
ENDMDL
MODEL 4
REMARK VINA RESULT:      -8.7      2.269     10.157
REMARK  8 active torsions:
REMARK  status: ('A' for Active; 'I' for Inactive)
REMARK       I    between atoms: C_2  and  N_3 
REMARK    1  A    between atoms: N_6  and  C_7 
REMARK    2  A    between atoms: C_8  and  N_9 
REMARK    3  A    between atoms: N_9  and  C_10 
REMARK    4  A    between atoms: C_10  and  N_11 
REMARK       I    between atoms: N_11  and  C_12 
REMARK    5  A    between atoms: C_12  and  C_13 
REMARK    6  A    between atoms: C_15  and  O_16 
REMARK    7  A    between atoms: O_16  and  C_17 
REMARK    8  A    between atoms: C_17  and  C_18 
ROOT
HETATM    1  C   UNL     1      39.948 -12.137   5.924  1.00  0.00     0.179 C 
HETATM    2  S   UNL     1      38.838 -11.013   6.475  1.00  0.00    -0.040 SA
ENDROOT
BRANCH   1   3
HETATM    3  N   UNL     1      39.586 -13.026   4.977  1.00  0.00    -0.331 N 
HETATM    4  H   UNL     1      39.477 -13.991   5.280  1.00  0.00     0.168 HD
BRANCH   3   5
HETATM    5  C   UNL     1      39.599 -12.925   3.565  1.00  0.00     0.061 A 
HETATM    6  C   UNL     1      40.321 -13.935   2.868  1.00  0.00     0.057 A 
HETATM    7  C   UNL     1      40.546 -13.741   1.498  1.00  0.00     0.031 A 
HETATM    8  C   UNL     1      40.029 -12.627   0.828  1.00  0.00     0.002 A 
HETATM    9  C   UNL     1      39.282 -11.678   1.518  1.00  0.00     0.002 A 
HETATM   10  C   UNL     1      39.072 -11.820   2.888  1.00  0.00     0.032 A 
BRANCH   6  11
HETATM   11  N   UNL     1      40.770 -15.075   3.569  1.00  0.00    -0.376 N 
HETATM   12  C   UNL     1      40.771 -16.317   2.736  1.00  0.00     0.143 C 
HETATM   13  C   UNL     1      42.134 -16.537   2.050  1.00  0.00     0.145 C 
HETATM   14  N   UNL     1      43.204 -16.544   3.054  1.00  0.00    -0.349 N 
HETATM   15  C   UNL     1      43.719 -17.695   3.628  1.00  0.00     0.215 C 
HETATM   16  C   UNL     1      43.277 -15.291   3.811  1.00  0.00     0.145 C 
HETATM   17  C   UNL     1      43.509 -18.987   2.882  1.00  0.00     0.117 C 
HETATM   18  O   UNL     1      44.333 -17.688   4.695  1.00  0.00    -0.274 OA
HETATM   19  C   UNL     1      41.928 -14.976   4.494  1.00  0.00     0.143 C 
ENDBRANCH   6  11
ENDBRANCH   3   5
ENDBRANCH   1   3
BRANCH   1  20
HETATM   20  N   UNL     1      41.216 -12.078   6.415  1.00  0.00    -0.299 N 
HETATM   21  C   UNL     1      42.320 -11.567   5.737  1.00  0.00     0.257 C 
HETATM   22  O   UNL     1      42.434 -11.392   4.532  1.00  0.00    -0.267 OA
HETATM   23  H   UNL     1      41.206 -11.872   7.405  1.00  0.00     0.171 HD
BRANCH  21  24
HETATM   24  C   UNL     1      43.423 -11.127   6.632  1.00  0.00     0.035 A 
HETATM   25  C   UNL     1      43.176 -10.316   7.742  1.00  0.00     0.053 A 
HETATM   26  C   UNL     1      44.250  -9.846   8.493  1.00  0.00     0.070 A 
HETATM   27  C   UNL     1      45.559 -10.213   8.184  1.00  0.00     0.037 A 
HETATM   28  C   UNL     1      45.801 -11.048   7.094  1.00  0.00     0.004 A 
HETATM   29  C   UNL     1      44.735 -11.507   6.316  1.00  0.00     0.017 A 
BRANCH  26  30
HETATM   30  O   UNL     1      43.975  -9.068   9.582  1.00  0.00    -0.347 OA
BRANCH  30  31
HETATM   31  C   UNL     1      44.407  -9.704  10.790  1.00  0.00     0.214 C 
BRANCH  31  32
HETATM   32  C   UNL     1      43.450  -9.297  11.882  1.00  0.00    -0.034 A 
HETATM   33  C   UNL     1      43.642  -8.099  12.584  1.00  0.00     0.009 A 
HETATM   34  C   UNL     1      42.779  -7.742  13.621  1.00  0.00     0.001 A 
HETATM   35  C   UNL     1      41.723  -8.581  13.972  1.00  0.00     0.000 A 
HETATM   36  C   UNL     1      41.530  -9.779  13.288  1.00  0.00     0.001 A 
HETATM   37  C   UNL     1      42.390 -10.138  12.250  1.00  0.00     0.009 A 
ENDBRANCH  31  32
ENDBRANCH  30  31
ENDBRANCH  26  30
ENDBRANCH  21  24
ENDBRANCH   1  20
TORSDOF 8
ENDMDL
MODEL 5
REMARK VINA RESULT:      -8.4      1.824      2.765
REMARK  8 active torsions:
REMARK  status: ('A' for Active; 'I' for Inactive)
REMARK       I    between atoms: C_2  and  N_3 
REMARK    1  A    between atoms: N_6  and  C_7 
REMARK    2  A    between atoms: C_8  and  N_9 
REMARK    3  A    between atoms: N_9  and  C_10 
REMARK    4  A    between atoms: C_10  and  N_11 
REMARK       I    between atoms: N_11  and  C_12 
REMARK    5  A    between atoms: C_12  and  C_13 
REMARK    6  A    between atoms: C_15  and  O_16 
REMARK    7  A    between atoms: O_16  and  C_17 
REMARK    8  A    between atoms: C_17  and  C_18 
ROOT
HETATM    1  C   UNL     1      40.303  -9.459   8.644  1.00  0.00     0.179 C 
HETATM    2  S   UNL     1      39.077  -9.274   9.767  1.00  0.00    -0.040 SA
ENDROOT
BRANCH   1   3
HETATM    3  N   UNL     1      41.496  -8.865   8.852  1.00  0.00    -0.331 N 
HETATM    4  H   UNL     1      41.635  -7.962   8.405  1.00  0.00     0.168 HD
BRANCH   3   5
HETATM    5  C   UNL     1      42.712  -9.391   9.350  1.00  0.00     0.061 A 
HETATM    6  C   UNL     1      43.061  -9.020  10.680  1.00  0.00     0.057 A 
HETATM    7  C   UNL     1      44.354  -9.331  11.121  1.00  0.00     0.031 A 
HETATM    8  C   UNL     1      45.249 -10.032  10.306  1.00  0.00     0.002 A 
HETATM    9  C   UNL     1      44.871 -10.430   9.028  1.00  0.00     0.002 A 
HETATM   10  C   UNL     1      43.606 -10.104   8.544  1.00  0.00     0.032 A 
BRANCH   6  11
HETATM   11  N   UNL     1      42.105  -8.371  11.491  1.00  0.00    -0.376 N 
HETATM   12  C   UNL     1      41.592  -9.232  12.602  1.00  0.00     0.143 C 
HETATM   13  C   UNL     1      42.416  -9.043  13.891  1.00  0.00     0.145 C 
HETATM   14  N   UNL     1      42.448  -7.623  14.261  1.00  0.00    -0.349 N 
HETATM   15  C   UNL     1      41.577  -7.041  15.168  1.00  0.00     0.215 C 
HETATM   16  C   UNL     1      43.040  -6.780  13.220  1.00  0.00     0.145 C 
HETATM   17  C   UNL     1      40.883  -7.959  16.141  1.00  0.00     0.117 C 
HETATM   18  O   UNL     1      41.368  -5.828  15.203  1.00  0.00    -0.274 OA
HETATM   19  C   UNL     1      42.295  -6.949  11.877  1.00  0.00     0.143 C 
ENDBRANCH   6  11
ENDBRANCH   3   5
ENDBRANCH   1   3
BRANCH   1  20
HETATM   20  N   UNL     1      40.071 -10.263   7.571  1.00  0.00    -0.299 N 
HETATM   21  C   UNL     1      40.654 -10.120   6.314  1.00  0.00     0.257 C 
HETATM   22  O   UNL     1      41.191  -9.120   5.856  1.00  0.00    -0.267 OA
HETATM   23  H   UNL     1      39.952 -11.224   7.864  1.00  0.00     0.171 HD
BRANCH  21  24
HETATM   24  C   UNL     1      40.670 -11.372   5.513  1.00  0.00     0.035 A 
HETATM   25  C   UNL     1      41.777 -12.225   5.523  1.00  0.00     0.053 A 
HETATM   26  C   UNL     1      41.788 -13.333   4.681  1.00  0.00     0.070 A 
HETATM   27  C   UNL     1      40.695 -13.631   3.868  1.00  0.00     0.037 A 
HETATM   28  C   UNL     1      39.579 -12.795   3.882  1.00  0.00     0.004 A 
HETATM   29  C   UNL     1      39.564 -11.665   4.704  1.00  0.00     0.017 A 
BRANCH  26  30
HETATM   30  O   UNL     1      42.878 -14.156   4.726  1.00  0.00    -0.347 OA
BRANCH  30  31
HETATM   31  C   UNL     1      42.565 -15.387   5.388  1.00  0.00     0.214 C 
BRANCH  31  32
HETATM   32  C   UNL     1      43.050 -16.511   4.508  1.00  0.00    -0.034 A 
HETATM   33  C   UNL     1      42.548 -16.663   3.208  1.00  0.00     0.009 A 
HETATM   34  C   UNL     1      42.968 -17.726   2.408  1.00  0.00     0.001 A 
HETATM   35  C   UNL     1      43.887 -18.650   2.900  1.00  0.00     0.000 A 
HETATM   36  C   UNL     1      44.385 -18.515   4.195  1.00  0.00     0.001 A 
HETATM   37  C   UNL     1      43.967 -17.453   4.997  1.00  0.00     0.009 A 
ENDBRANCH  31  32
ENDBRANCH  30  31
ENDBRANCH  26  30
ENDBRANCH  21  24
ENDBRANCH   1  20
TORSDOF 8
ENDMDL
MODEL 6
REMARK VINA RESULT:      -8.2      5.462      9.128
REMARK  8 active torsions:
REMARK  status: ('A' for Active; 'I' for Inactive)
REMARK       I    between atoms: C_2  and  N_3 
REMARK    1  A    between atoms: N_6  and  C_7 
REMARK    2  A    between atoms: C_8  and  N_9 
REMARK    3  A    between atoms: N_9  and  C_10 
REMARK    4  A    between atoms: C_10  and  N_11 
REMARK       I    between atoms: N_11  and  C_12 
REMARK    5  A    between atoms: C_12  and  C_13 
REMARK    6  A    between atoms: C_15  and  O_16 
REMARK    7  A    between atoms: O_16  and  C_17 
REMARK    8  A    between atoms: C_17  and  C_18 
ROOT
HETATM    1  C   UNL     1      39.207 -10.223   3.299  1.00  0.00     0.179 C 
HETATM    2  S   UNL     1      40.315  -8.970   3.290  1.00  0.00    -0.040 SA
ENDROOT
BRANCH   1   3
HETATM    3  N   UNL     1      38.079 -10.123   2.567  1.00  0.00    -0.331 N 
HETATM    4  H   UNL     1      37.470 -10.939   2.562  1.00  0.00     0.168 HD
BRANCH   3   5
HETATM    5  C   UNL     1      37.708  -9.193   1.567  1.00  0.00     0.061 A 
HETATM    6  C   UNL     1      38.149  -9.482   0.244  1.00  0.00     0.057 A 
HETATM    7  C   UNL     1      37.998  -8.478  -0.722  1.00  0.00     0.031 A 
HETATM    8  C   UNL     1      37.384  -7.259  -0.413  1.00  0.00     0.002 A 
HETATM    9  C   UNL     1      36.913  -7.017   0.874  1.00  0.00     0.002 A 
HETATM   10  C   UNL     1      37.081  -7.979   1.868  1.00  0.00     0.032 A 
BRANCH   6  11
HETATM   11  N   UNL     1      38.705 -10.747  -0.040  1.00  0.00    -0.376 N 
HETATM   12  C   UNL     1      37.693 -11.745  -0.507  1.00  0.00     0.143 C 
HETATM   13  C   UNL     1      37.574 -11.753  -2.044  1.00  0.00     0.145 C 
HETATM   14  N   UNL     1      38.893 -11.980  -2.647  1.00  0.00    -0.349 N 
HETATM   15  C   UNL     1      39.359 -13.224  -3.041  1.00  0.00     0.215 C 
HETATM   16  C   UNL     1      39.869 -10.952  -2.275  1.00  0.00     0.145 C 
HETATM   17  C   UNL     1      38.330 -14.297  -3.288  1.00  0.00     0.117 C 
HETATM   18  O   UNL     1      40.556 -13.465  -3.199  1.00  0.00    -0.274 OA
HETATM   19  C   UNL     1      40.011 -10.850  -0.741  1.00  0.00     0.143 C 
ENDBRANCH   6  11
ENDBRANCH   3   5
ENDBRANCH   1   3
BRANCH   1  20
HETATM   20  N   UNL     1      39.514 -11.343   4.008  1.00  0.00    -0.299 N 
HETATM   21  C   UNL     1      39.370 -12.651   3.552  1.00  0.00     0.257 C 
HETATM   22  O   UNL     1      38.675 -13.039   2.623  1.00  0.00    -0.267 OA
HETATM   23  H   UNL     1      40.337 -11.191   4.576  1.00  0.00     0.171 HD
BRANCH  21  24
HETATM   24  C   UNL     1      40.239 -13.631   4.255  1.00  0.00     0.035 A 
HETATM   25  C   UNL     1      40.976 -14.584   3.547  1.00  0.00     0.053 A 
HETATM   26  C   UNL     1      41.697 -15.546   4.250  1.00  0.00     0.070 A 
HETATM   27  C   UNL     1      41.734 -15.540   5.644  1.00  0.00     0.037 A 
HETATM   28  C   UNL     1      41.022 -14.569   6.348  1.00  0.00     0.004 A 
HETATM   29  C   UNL     1      40.274 -13.614   5.656  1.00  0.00     0.017 A 
BRANCH  26  30
HETATM   30  O   UNL     1      42.420 -16.453   3.530  1.00  0.00    -0.347 OA
BRANCH  30  31
HETATM   31  C   UNL     1      43.595 -16.856   4.242  1.00  0.00     0.214 C 
BRANCH  31  32
HETATM   32  C   UNL     1      43.754 -18.343   4.049  1.00  0.00    -0.034 A 
HETATM   33  C   UNL     1      43.589 -18.916   2.781  1.00  0.00     0.009 A 
HETATM   34  C   UNL     1      43.697 -20.297   2.610  1.00  0.00     0.001 A 
HETATM   35  C   UNL     1      43.962 -21.118   3.705  1.00  0.00     0.000 A 
HETATM   36  C   UNL     1      44.117 -20.560   4.972  1.00  0.00     0.001 A 
HETATM   37  C   UNL     1      44.011 -19.179   5.146  1.00  0.00     0.009 A 
ENDBRANCH  31  32
ENDBRANCH  30  31
ENDBRANCH  26  30
ENDBRANCH  21  24
ENDBRANCH   1  20
TORSDOF 8
ENDMDL
MODEL 7
REMARK VINA RESULT:      -8.2     18.483     20.666
REMARK  8 active torsions:
REMARK  status: ('A' for Active; 'I' for Inactive)
REMARK       I    between atoms: C_2  and  N_3 
REMARK    1  A    between atoms: N_6  and  C_7 
REMARK    2  A    between atoms: C_8  and  N_9 
REMARK    3  A    between atoms: N_9  and  C_10 
REMARK    4  A    between atoms: C_10  and  N_11 
REMARK       I    between atoms: N_11  and  C_12 
REMARK    5  A    between atoms: C_12  and  C_13 
REMARK    6  A    between atoms: C_15  and  O_16 
REMARK    7  A    between atoms: O_16  and  C_17 
REMARK    8  A    between atoms: C_17  and  C_18 
ROOT
HETATM    1  C   UNL     1      48.090 -29.000  -0.468  1.00  0.00     0.179 C 
HETATM    2  S   UNL     1      48.901 -29.579  -1.811  1.00  0.00    -0.040 SA
ENDROOT
BRANCH   1   3
HETATM    3  N   UNL     1      46.933 -28.326  -0.625  1.00  0.00    -0.331 N 
HETATM    4  H   UNL     1      46.657 -27.716   0.141  1.00  0.00     0.168 HD
BRANCH   3   5
HETATM    5  C   UNL     1      45.871 -28.519  -1.541  1.00  0.00     0.061 A 
HETATM    6  C   UNL     1      44.899 -29.498  -1.183  1.00  0.00     0.057 A 
HETATM    7  C   UNL     1      43.970 -29.875  -2.161  1.00  0.00     0.031 A 
HETATM    8  C   UNL     1      43.958 -29.270  -3.423  1.00  0.00     0.002 A 
HETATM    9  C   UNL     1      44.883 -28.279  -3.735  1.00  0.00     0.002 A 
HETATM   10  C   UNL     1      45.846 -27.908  -2.799  1.00  0.00     0.032 A 
BRANCH   6  11
HETATM   11  N   UNL     1      44.907 -30.035   0.122  1.00  0.00    -0.376 N 
HETATM   12  C   UNL     1      44.091 -29.241   1.091  1.00  0.00     0.143 C 
HETATM   13  C   UNL     1      42.644 -29.765   1.176  1.00  0.00     0.145 C 
HETATM   14  N   UNL     1      42.648 -31.197   1.499  1.00  0.00    -0.349 N 
HETATM   15  C   UNL     1      42.517 -31.700   2.783  1.00  0.00     0.215 C 
HETATM   16  C   UNL     1      43.361 -32.000   0.502  1.00  0.00     0.145 C 
HETATM   17  C   UNL     1      41.897 -30.795   3.816  1.00  0.00     0.117 C 
HETATM   18  O   UNL     1      42.876 -32.837   3.091  1.00  0.00    -0.274 OA
HETATM   19  C   UNL     1      44.814 -31.504   0.326  1.00  0.00     0.143 C 
ENDBRANCH   6  11
ENDBRANCH   3   5
ENDBRANCH   1   3
BRANCH   1  20
HETATM   20  N   UNL     1      48.602 -29.284   0.760  1.00  0.00    -0.299 N 
HETATM   21  C   UNL     1      48.078 -28.846   1.973  1.00  0.00     0.257 C 
HETATM   22  O   UNL     1      47.308 -27.913   2.155  1.00  0.00    -0.267 OA
HETATM   23  H   UNL     1      48.971 -30.226   0.784  1.00  0.00     0.171 HD
BRANCH  21  24
HETATM   24  C   UNL     1      48.464 -29.692   3.134  1.00  0.00     0.035 A 
HETATM   25  C   UNL     1      49.788 -29.757   3.575  1.00  0.00     0.053 A 
HETATM   26  C   UNL     1      50.120 -30.638   4.601  1.00  0.00     0.070 A 
HETATM   27  C   UNL     1      49.146 -31.415   5.226  1.00  0.00     0.037 A 
HETATM   28  C   UNL     1      47.819 -31.325   4.805  1.00  0.00     0.004 A 
HETATM   29  C   UNL     1      47.475 -30.464   3.760  1.00  0.00     0.017 A 
BRANCH  26  30
HETATM   30  O   UNL     1      51.420 -30.667   5.019  1.00  0.00    -0.347 OA
BRANCH  30  31
HETATM   31  C   UNL     1      51.821 -31.999   5.358  1.00  0.00     0.214 C 
BRANCH  31  32
HETATM   32  C   UNL     1      52.394 -31.959   6.752  1.00  0.00    -0.034 A 
HETATM   33  C   UNL     1      51.896 -32.807   7.750  1.00  0.00     0.009 A 
HETATM   34  C   UNL     1      52.399 -32.742   9.050  1.00  0.00     0.001 A 
HETATM   35  C   UNL     1      53.398 -31.824   9.367  1.00  0.00     0.000 A 
HETATM   36  C   UNL     1      53.894 -30.968   8.385  1.00  0.00     0.001 A 
HETATM   37  C   UNL     1      53.393 -31.031   7.084  1.00  0.00     0.009 A 
ENDBRANCH  31  32
ENDBRANCH  30  31
ENDBRANCH  26  30
ENDBRANCH  21  24
ENDBRANCH   1  20
TORSDOF 8
ENDMDL
MODEL 8
REMARK VINA RESULT:      -8.2      4.639      7.384
REMARK  8 active torsions:
REMARK  status: ('A' for Active; 'I' for Inactive)
REMARK       I    between atoms: C_2  and  N_3 
REMARK    1  A    between atoms: N_6  and  C_7 
REMARK    2  A    between atoms: C_8  and  N_9 
REMARK    3  A    between atoms: N_9  and  C_10 
REMARK    4  A    between atoms: C_10  and  N_11 
REMARK       I    between atoms: N_11  and  C_12 
REMARK    5  A    between atoms: C_12  and  C_13 
REMARK    6  A    between atoms: C_15  and  O_16 
REMARK    7  A    between atoms: O_16  and  C_17 
REMARK    8  A    between atoms: C_17  and  C_18 
ROOT
HETATM    1  C   UNL     1      41.003 -12.533   3.136  1.00  0.00     0.179 C 
HETATM    2  S   UNL     1      39.526 -12.053   3.759  1.00  0.00    -0.040 SA
ENDROOT
BRANCH   1   3
HETATM    3  N   UNL     1      42.060 -12.678   3.961  1.00  0.00    -0.331 N 
HETATM    4  H   UNL     1      42.948 -12.312   3.625  1.00  0.00     0.168 HD
BRANCH   3   5
HETATM    5  C   UNL     1      42.236 -13.502   5.098  1.00  0.00     0.061 A 
HETATM    6  C   UNL     1      43.131 -13.018   6.095  1.00  0.00     0.057 A 
HETATM    7  C   UNL     1      43.501 -13.903   7.116  1.00  0.00     0.031 A 
HETATM    8  C   UNL     1      42.967 -15.193   7.188  1.00  0.00     0.002 A 
HETATM    9  C   UNL     1      42.054 -15.629   6.233  1.00  0.00     0.002 A 
HETATM   10  C   UNL     1      41.693 -14.789   5.182  1.00  0.00     0.032 A 
BRANCH   6  11
HETATM   11  N   UNL     1      43.597 -11.688   6.020  1.00  0.00    -0.376 N 
HETATM   12  C   UNL     1      42.765 -10.727   6.809  1.00  0.00     0.143 C 
HETATM   13  C   UNL     1      43.309 -10.550   8.240  1.00  0.00     0.145 C 
HETATM   14  N   UNL     1      44.720 -10.151   8.194  1.00  0.00    -0.349 N 
HETATM   15  C   UNL     1      45.155  -8.837   8.258  1.00  0.00     0.215 C 
HETATM   16  C   UNL     1      45.564 -11.134   7.509  1.00  0.00     0.145 C 
HETATM   17  C   UNL     1      44.206  -7.828   8.851  1.00  0.00     0.117 C 
HETATM   18  O   UNL     1      46.267  -8.485   7.865  1.00  0.00    -0.274 OA
HETATM   19  C   UNL     1      45.053 -11.402   6.075  1.00  0.00     0.143 C 
ENDBRANCH   6  11
ENDBRANCH   3   5
ENDBRANCH   1   3
BRANCH   1  20
HETATM   20  N   UNL     1      41.074 -12.822   1.809  1.00  0.00    -0.299 N 
HETATM   21  C   UNL     1      40.437 -13.889   1.181  1.00  0.00     0.257 C 
HETATM   22  O   UNL     1      39.993 -14.901   1.706  1.00  0.00    -0.267 OA
HETATM   23  H   UNL     1      41.099 -11.973   1.259  1.00  0.00     0.171 HD
BRANCH  21  24
HETATM   24  C   UNL     1      40.228 -13.689  -0.278  1.00  0.00     0.035 A 
HETATM   25  C   UNL     1      40.649 -12.521  -0.917  1.00  0.00     0.053 A 
HETATM   26  C   UNL     1      40.343 -12.334  -2.263  1.00  0.00     0.070 A 
HETATM   27  C   UNL     1      39.668 -13.314  -2.990  1.00  0.00     0.037 A 
HETATM   28  C   UNL     1      39.275 -14.493  -2.357  1.00  0.00     0.004 A 
HETATM   29  C   UNL     1      39.554 -14.683  -1.002  1.00  0.00     0.017 A 
BRANCH  26  30
HETATM   30  O   UNL     1      40.783 -11.188  -2.863  1.00  0.00    -0.347 OA
BRANCH  30  31
HETATM   31  C   UNL     1      40.418 -10.034  -2.096  1.00  0.00     0.214 C 
BRANCH  31  32
HETATM   32  C   UNL     1      41.446  -8.966  -2.372  1.00  0.00    -0.034 A 
HETATM   33  C   UNL     1      42.330  -8.555  -1.366  1.00  0.00     0.009 A 
HETATM   34  C   UNL     1      43.255  -7.539  -1.609  1.00  0.00     0.001 A 
HETATM   35  C   UNL     1      43.298  -6.918  -2.856  1.00  0.00     0.000 A 
HETATM   36  C   UNL     1      42.416  -7.310  -3.860  1.00  0.00     0.001 A 
HETATM   37  C   UNL     1      41.491  -8.327  -3.620  1.00  0.00     0.009 A 
ENDBRANCH  31  32
ENDBRANCH  30  31
ENDBRANCH  26  30
ENDBRANCH  21  24
ENDBRANCH   1  20
TORSDOF 8
ENDMDL
MODEL 9
REMARK VINA RESULT:      -8.1      5.168      8.882
REMARK  8 active torsions:
REMARK  status: ('A' for Active; 'I' for Inactive)
REMARK       I    between atoms: C_2  and  N_3 
REMARK    1  A    between atoms: N_6  and  C_7 
REMARK    2  A    between atoms: C_8  and  N_9 
REMARK    3  A    between atoms: N_9  and  C_10 
REMARK    4  A    between atoms: C_10  and  N_11 
REMARK       I    between atoms: N_11  and  C_12 
REMARK    5  A    between atoms: C_12  and  C_13 
REMARK    6  A    between atoms: C_15  and  O_16 
REMARK    7  A    between atoms: O_16  and  C_17 
REMARK    8  A    between atoms: C_17  and  C_18 
ROOT
HETATM    1  C   UNL     1      40.228  -9.495   2.754  1.00  0.00     0.179 C 
HETATM    2  S   UNL     1      40.570  -8.346   3.920  1.00  0.00    -0.040 SA
ENDROOT
BRANCH   1   3
HETATM    3  N   UNL     1      39.880  -9.104   1.511  1.00  0.00    -0.331 N 
HETATM    4  H   UNL     1      38.915  -9.274   1.237  1.00  0.00     0.168 HD
BRANCH   3   5
HETATM    5  C   UNL     1      40.680  -8.750   0.398  1.00  0.00     0.061 A 
HETATM    6  C   UNL     1      40.934  -9.783  -0.549  1.00  0.00     0.057 A 
HETATM    7  C   UNL     1      41.900  -9.535  -1.533  1.00  0.00     0.031 A 
HETATM    8  C   UNL     1      42.547  -8.297  -1.619  1.00  0.00     0.002 A 
HETATM    9  C   UNL     1      42.247  -7.284  -0.716  1.00  0.00     0.002 A 
HETATM   10  C   UNL     1      41.320  -7.510   0.299  1.00  0.00     0.032 A 
BRANCH   6  11
HETATM   11  N   UNL     1      40.212 -10.992  -0.464  1.00  0.00    -0.376 N 
HETATM   12  C   UNL     1      38.830 -10.895  -1.029  1.00  0.00     0.143 C 
HETATM   13  C   UNL     1      38.797 -11.293  -2.517  1.00  0.00     0.145 C 
HETATM   14  N   UNL     1      39.371 -12.633  -2.690  1.00  0.00    -0.349 N 
HETATM   15  C   UNL     1      38.619 -13.796  -2.738  1.00  0.00     0.215 C 
HETATM   16  C   UNL     1      40.760 -12.717  -2.231  1.00  0.00     0.145 C 
HETATM   17  C   UNL     1      37.159 -13.656  -3.086  1.00  0.00     0.117 C 
HETATM   18  O   UNL     1      39.100 -14.908  -2.520  1.00  0.00    -0.274 OA
HETATM   19  C   UNL     1      40.884 -12.286  -0.753  1.00  0.00     0.143 C 
ENDBRANCH   6  11
ENDBRANCH   3   5
ENDBRANCH   1   3
BRANCH   1  20
HETATM   20  N   UNL     1      40.372 -10.807   3.086  1.00  0.00    -0.299 N 
HETATM   21  C   UNL     1      41.537 -11.554   2.932  1.00  0.00     0.257 C 
HETATM   22  O   UNL     1      42.492 -11.299   2.211  1.00  0.00    -0.267 OA
HETATM   23  H   UNL     1      39.850 -11.022   3.925  1.00  0.00     0.171 HD
BRANCH  21  24
HETATM   24  C   UNL     1      41.611 -12.741   3.826  1.00  0.00     0.035 A 
HETATM   25  C   UNL     1      41.959 -14.000   3.330  1.00  0.00     0.053 A 
HETATM   26  C   UNL     1      41.919 -15.100   4.183  1.00  0.00     0.070 A 
HETATM   27  C   UNL     1      41.587 -14.956   5.529  1.00  0.00     0.037 A 
HETATM   28  C   UNL     1      41.270 -13.693   6.028  1.00  0.00     0.004 A 
HETATM   29  C   UNL     1      41.282 -12.584   5.179  1.00  0.00     0.017 A 
BRANCH  26  30
HETATM   30  O   UNL     1      42.279 -16.315   3.672  1.00  0.00    -0.347 OA
BRANCH  30  31
HETATM   31  C   UNL     1      43.595 -16.682   4.101  1.00  0.00     0.214 C 
BRANCH  31  32
HETATM   32  C   UNL     1      43.735 -18.171   3.909  1.00  0.00    -0.034 A 
HETATM   33  C   UNL     1      43.521 -18.747   2.649  1.00  0.00     0.009 A 
HETATM   34  C   UNL     1      43.612 -20.130   2.480  1.00  0.00     0.001 A 
HETATM   35  C   UNL     1      43.909 -20.949   3.567  1.00  0.00     0.000 A 
HETATM   36  C   UNL     1      44.113 -20.388   4.826  1.00  0.00     0.001 A 
HETATM   37  C   UNL     1      44.024 -19.006   4.998  1.00  0.00     0.009 A 
ENDBRANCH  31  32
ENDBRANCH  30  31
ENDBRANCH  26  30
ENDBRANCH  21  24
ENDBRANCH   1  20
TORSDOF 8
ENDMDL
MODEL 10
REMARK VINA RESULT:      -8.0      2.571     10.910
REMARK  8 active torsions:
REMARK  status: ('A' for Active; 'I' for Inactive)
REMARK       I    between atoms: C_2  and  N_3 
REMARK    1  A    between atoms: N_6  and  C_7 
REMARK    2  A    between atoms: C_8  and  N_9 
REMARK    3  A    between atoms: N_9  and  C_10 
REMARK    4  A    between atoms: C_10  and  N_11 
REMARK       I    between atoms: N_11  and  C_12 
REMARK    5  A    between atoms: C_12  and  C_13 
REMARK    6  A    between atoms: C_15  and  O_16 
REMARK    7  A    between atoms: O_16  and  C_17 
REMARK    8  A    between atoms: C_17  and  C_18 
ROOT
HETATM    1  C   UNL     1      43.492 -11.954   6.845  1.00  0.00     0.179 C 
HETATM    2  S   UNL     1      44.833 -11.581   5.918  1.00  0.00    -0.040 SA
ENDROOT
BRANCH   1   3
HETATM    3  N   UNL     1      42.865 -13.135   6.668  1.00  0.00    -0.331 N 
HETATM    4  H   UNL     1      42.024 -13.288   7.221  1.00  0.00     0.168 HD
BRANCH   3   5
HETATM    5  C   UNL     1      43.310 -14.334   6.060  1.00  0.00     0.061 A 
HETATM    6  C   UNL     1      42.785 -14.618   4.767  1.00  0.00     0.057 A 
HETATM    7  C   UNL     1      43.022 -15.893   4.239  1.00  0.00     0.031 A 
HETATM    8  C   UNL     1      43.798 -16.832   4.928  1.00  0.00     0.002 A 
HETATM    9  C   UNL     1      44.345 -16.516   6.167  1.00  0.00     0.002 A 
HETATM   10  C   UNL     1      44.096 -15.271   6.739  1.00  0.00     0.032 A 
BRANCH   6  11
HETATM   11  N   UNL     1      42.062 -13.620   4.079  1.00  0.00    -0.376 N 
HETATM   12  C   UNL     1      42.753 -13.140   2.842  1.00  0.00     0.143 C 
HETATM   13  C   UNL     1      42.308 -13.937   1.600  1.00  0.00     0.145 C 
HETATM   14  N   UNL     1      40.847 -13.889   1.471  1.00  0.00    -0.349 N 
HETATM   15  C   UNL     1      40.170 -12.978   0.677  1.00  0.00     0.215 C 
HETATM   16  C   UNL     1      40.158 -14.448   2.637  1.00  0.00     0.145 C 
HETATM   17  C   UNL     1      40.950 -12.322  -0.434  1.00  0.00     0.117 C 
HETATM   18  O   UNL     1      38.981 -12.704   0.845  1.00  0.00    -0.274 OA
HETATM   19  C   UNL     1      40.588 -13.729   3.935  1.00  0.00     0.143 C 
ENDBRANCH   6  11
ENDBRANCH   3   5
ENDBRANCH   1   3
BRANCH   1  20
HETATM   20  N   UNL     1      43.108 -11.067   7.802  1.00  0.00    -0.299 N 
HETATM   21  C   UNL     1      43.955 -10.462   8.727  1.00  0.00     0.257 C 
HETATM   22  O   UNL     1      45.072 -10.831   9.062  1.00  0.00    -0.267 OA
HETATM   23  H   UNL     1      42.375 -10.462   7.455  1.00  0.00     0.171 HD
BRANCH  21  24
HETATM   24  C   UNL     1      43.428  -9.186   9.279  1.00  0.00     0.035 A 
HETATM   25  C   UNL     1      42.275  -9.159  10.069  1.00  0.00     0.053 A 
HETATM   26  C   UNL     1      41.762  -7.932  10.481  1.00  0.00     0.070 A 
HETATM   27  C   UNL     1      42.407  -6.738  10.160  1.00  0.00     0.037 A 
HETATM   28  C   UNL     1      43.574  -6.769   9.397  1.00  0.00     0.004 A 
HETATM   29  C   UNL     1      44.087  -7.991   8.956  1.00  0.00     0.017 A 
BRANCH  26  30
HETATM   30  O   UNL     1      40.644  -7.940  11.265  1.00  0.00    -0.347 OA
BRANCH  30  31
HETATM   31  C   UNL     1      40.773  -8.883  12.335  1.00  0.00     0.214 C 
BRANCH  31  32
HETATM   32  C   UNL     1      40.717  -8.111  13.628  1.00  0.00    -0.034 A 
HETATM   33  C   UNL     1      41.475  -8.521  14.734  1.00  0.00     0.009 A 
HETATM   34  C   UNL     1      41.393  -7.828  15.943  1.00  0.00     0.001 A 
HETATM   35  C   UNL     1      40.548  -6.726  16.061  1.00  0.00     0.000 A 
HETATM   36  C   UNL     1      39.782  -6.316  14.971  1.00  0.00     0.001 A 
HETATM   37  C   UNL     1      39.863  -7.006  13.761  1.00  0.00     0.009 A 
ENDBRANCH  31  32
ENDBRANCH  30  31
ENDBRANCH  26  30
ENDBRANCH  21  24
ENDBRANCH   1  20
TORSDOF 8
ENDMDL
