MODEL 1
REMARK VINA RESULT:      -8.5      0.000      0.000
REMARK  2 active torsions:
REMARK  status: ('A' for Active; 'I' for Inactive)
REMARK    1  A    between atoms: O_2  and  C_3 
REMARK    2  A    between atoms: C_9  and  N_10 
REMARK       I    between atoms: N_10  and  C_11 
REMARK       I    between atoms: C_11  and  N_12 
ROOT
HETATM    1  N   UNL     1      43.675 -12.716   6.485  1.00  0.00    -0.306 N 
HETATM    2  C   UNL     1      43.413 -13.910   7.109  1.00  0.00     0.323 C 
HETATM    3  N   UNL     1      43.026 -14.942   6.261  1.00  0.00    -0.328 N 
HETATM    4  C   UNL     1      42.870 -16.269   6.874  1.00  0.00     0.185 C 
HETATM    5  C   UNL     1      43.145 -17.301   5.836  1.00  0.00     0.035 A 
HETATM    6  C   UNL     1      43.278 -17.099   4.476  1.00  0.00    -0.020 A 
HETATM    7  C   UNL     1      43.163 -15.736   3.888  1.00  0.00     0.061 C 
HETATM    8  C   UNL     1      42.471 -14.794   4.894  1.00  0.00     0.132 C 
HETATM    9  N   UNL     1      43.316 -18.634   6.086  1.00  0.00    -0.357 N 
HETATM   10  H   UNL     1      43.282 -19.073   6.995  1.00  0.00     0.166 HD
HETATM   11  C   UNL     1      43.572 -19.302   4.906  1.00  0.00     0.043 A 
HETATM   12  C   UNL     1      43.556 -18.356   3.877  1.00  0.00    -0.001 A 
HETATM   13  C   UNL     1      43.821 -20.660   4.678  1.00  0.00     0.030 A 
HETATM   14  C   UNL     1      44.066 -21.062   3.362  1.00  0.00     0.002 A 
HETATM   15  C   UNL     1      44.059 -20.142   2.316  1.00  0.00     0.001 A 
HETATM   16  C   UNL     1      43.805 -18.786   2.559  1.00  0.00     0.014 A 
HETATM   17  O   UNL     1      43.516 -14.095   8.320  1.00  0.00    -0.247 OA
HETATM   18  H   UNL     1      43.780 -12.734   5.482  1.00  0.00     0.171 HD
ENDROOT
BRANCH   1  19
HETATM   19  C   UNL     1      44.091 -11.493   7.063  1.00  0.00     0.071 A 
HETATM   20  C   UNL     1      43.116 -10.488   7.211  1.00  0.00     0.116 A 
HETATM   21  C   UNL     1      43.468  -9.217   7.683  1.00  0.00     0.069 A 
HETATM   22 CL   UNL     1      42.313  -7.939   7.798  1.00  0.00    -0.081 Cl
HETATM   23  C   UNL     1      44.782  -8.959   8.069  1.00  0.00     0.027 A 
HETATM   24  C   UNL     1      45.742  -9.966   7.975  1.00  0.00     0.004 A 
HETATM   25  C   UNL     1      45.399 -11.226   7.475  1.00  0.00     0.032 A 
BRANCH  20  26
HETATM   26  O   UNL     1      41.820 -10.765   6.830  1.00  0.00    -0.352 OA
HETATM   27  C   UNL     1      41.603 -10.328   5.485  1.00  0.00     0.210 C 
ENDBRANCH  20  26
ENDBRANCH   1  19
TORSDOF 2
ENDMDL
MODEL 2
REMARK VINA RESULT:      -8.3      1.801      3.280
REMARK  2 active torsions:
REMARK  status: ('A' for Active; 'I' for Inactive)
REMARK    1  A    between atoms: O_2  and  C_3 
REMARK    2  A    between atoms: C_9  and  N_10 
REMARK       I    between atoms: N_10  and  C_11 
REMARK       I    between atoms: C_11  and  N_12 
ROOT
HETATM    1  N   UNL     1      41.638 -12.743   5.710  1.00  0.00    -0.306 N 
HETATM    2  C   UNL     1      41.954 -13.256   4.477  1.00  0.00     0.323 C 
HETATM    3  N   UNL     1      42.783 -14.372   4.501  1.00  0.00    -0.328 N 
HETATM    4  C   UNL     1      43.032 -15.030   3.211  1.00  0.00     0.185 C 
HETATM    5  C   UNL     1      43.299 -16.474   3.463  1.00  0.00     0.035 A 
HETATM    6  C   UNL     1      43.530 -17.076   4.684  1.00  0.00    -0.020 A 
HETATM    7  C   UNL     1      43.519 -16.284   5.945  1.00  0.00     0.061 C 
HETATM    8  C   UNL     1      43.669 -14.784   5.616  1.00  0.00     0.132 C 
HETATM    9  N   UNL     1      43.350 -17.440   2.498  1.00  0.00    -0.357 N 
HETATM   10  H   UNL     1      43.210 -17.293   1.507  1.00  0.00     0.166 HD
HETATM   11  C   UNL     1      43.600 -18.667   3.077  1.00  0.00     0.043 A 
HETATM   12  C   UNL     1      43.714 -18.465   4.455  1.00  0.00    -0.001 A 
HETATM   13  C   UNL     1      43.724 -19.930   2.487  1.00  0.00     0.030 A 
HETATM   14  C   UNL     1      43.967 -21.018   3.330  1.00  0.00     0.002 A 
HETATM   15  C   UNL     1      44.083 -20.848   4.708  1.00  0.00     0.001 A 
HETATM   16  C   UNL     1      43.959 -19.577   5.283  1.00  0.00     0.014 A 
HETATM   17  O   UNL     1      41.543 -12.800   3.412  1.00  0.00    -0.247 OA
HETATM   18  H   UNL     1      41.837 -13.320   6.513  1.00  0.00     0.171 HD
ENDROOT
BRANCH   1  19
HETATM   19  C   UNL     1      40.820 -11.630   6.018  1.00  0.00     0.071 A 
HETATM   20  C   UNL     1      41.471 -10.413   6.296  1.00  0.00     0.116 A 
HETATM   21  C   UNL     1      40.739  -9.290   6.704  1.00  0.00     0.069 A 
HETATM   22 CL   UNL     1      41.514  -7.808   7.132  1.00  0.00    -0.081 Cl
HETATM   23  C   UNL     1      39.348  -9.356   6.778  1.00  0.00     0.027 A 
HETATM   24  C   UNL     1      38.694 -10.543   6.452  1.00  0.00     0.004 A 
HETATM   25  C   UNL     1      39.425 -11.674   6.074  1.00  0.00     0.032 A 
BRANCH  20  26
HETATM   26  O   UNL     1      42.847 -10.365   6.210  1.00  0.00    -0.352 OA
HETATM   27  C   UNL     1      43.422 -10.553   7.507  1.00  0.00     0.210 C 
ENDBRANCH  20  26
ENDBRANCH   1  19
TORSDOF 2
ENDMDL
MODEL 3
REMARK VINA RESULT:      -7.9      5.575      7.154
REMARK  2 active torsions:
REMARK  status: ('A' for Active; 'I' for Inactive)
REMARK    1  A    between atoms: O_2  and  C_3 
REMARK    2  A    between atoms: C_9  and  N_10 
REMARK       I    between atoms: N_10  and  C_11 
REMARK       I    between atoms: C_11  and  N_12 
ROOT
HETATM    1  N   UNL     1      39.211 -12.882   0.470  1.00  0.00    -0.306 N 
HETATM    2  C   UNL     1      39.722 -12.842   1.743  1.00  0.00     0.323 C 
HETATM    3  N   UNL     1      40.093 -14.076   2.265  1.00  0.00    -0.328 N 
HETATM    4  C   UNL     1      40.770 -14.059   3.569  1.00  0.00     0.185 C 
HETATM    5  C   UNL     1      41.668 -15.245   3.649  1.00  0.00     0.035 A 
HETATM    6  C   UNL     1      41.701 -16.323   2.787  1.00  0.00    -0.020 A 
HETATM    7  C   UNL     1      40.788 -16.395   1.612  1.00  0.00     0.061 C 
HETATM    8  C   UNL     1      39.622 -15.403   1.802  1.00  0.00     0.132 C 
HETATM    9  N   UNL     1      42.619 -15.441   4.610  1.00  0.00    -0.357 N 
HETATM   10  H   UNL     1      42.829 -14.810   5.372  1.00  0.00     0.166 HD
HETATM   11  C   UNL     1      43.281 -16.630   4.378  1.00  0.00     0.043 A 
HETATM   12  C   UNL     1      42.722 -17.203   3.232  1.00  0.00    -0.001 A 
HETATM   13  C   UNL     1      44.328 -17.229   5.087  1.00  0.00     0.030 A 
HETATM   14  C   UNL     1      44.821 -18.446   4.609  1.00  0.00     0.002 A 
HETATM   15  C   UNL     1      44.286 -19.040   3.468  1.00  0.00     0.001 A 
HETATM   16  C   UNL     1      43.237 -18.430   2.770  1.00  0.00     0.014 A 
HETATM   17  O   UNL     1      39.870 -11.812   2.397  1.00  0.00    -0.247 OA
HETATM   18  H   UNL     1      39.345 -13.734  -0.053  1.00  0.00     0.171 HD
ENDROOT
BRANCH   1  19
HETATM   19  C   UNL     1      38.755 -11.808  -0.330  1.00  0.00     0.071 A 
HETATM   20  C   UNL     1      39.577 -11.409  -1.401  1.00  0.00     0.116 A 
HETATM   21  C   UNL     1      39.244 -10.293  -2.179  1.00  0.00     0.069 A 
HETATM   22 CL   UNL     1      40.273  -9.730  -3.446  1.00  0.00    -0.081 Cl
HETATM   23  C   UNL     1      38.058  -9.604  -1.934  1.00  0.00     0.027 A 
HETATM   24  C   UNL     1      37.212 -10.025  -0.908  1.00  0.00     0.004 A 
HETATM   25  C   UNL     1      37.558 -11.121  -0.110  1.00  0.00     0.032 A 
BRANCH  20  26
HETATM   26  O   UNL     1      40.744 -12.108  -1.632  1.00  0.00    -0.352 OA
HETATM   27  C   UNL     1      40.542 -13.057  -2.684  1.00  0.00     0.210 C 
ENDBRANCH  20  26
ENDBRANCH   1  19
TORSDOF 2
ENDMDL
MODEL 4
REMARK VINA RESULT:      -7.9      3.359      4.977
REMARK  2 active torsions:
REMARK  status: ('A' for Active; 'I' for Inactive)
REMARK    1  A    between atoms: O_2  and  C_3 
REMARK    2  A    between atoms: C_9  and  N_10 
REMARK       I    between atoms: N_10  and  C_11 
REMARK       I    between atoms: C_11  and  N_12 
ROOT
HETATM    1  N   UNL     1      40.991 -12.810   2.760  1.00  0.00    -0.306 N 
HETATM    2  C   UNL     1      41.466 -13.761   1.892  1.00  0.00     0.323 C 
HETATM    3  N   UNL     1      42.356 -14.672   2.450  1.00  0.00    -0.328 N 
HETATM    4  C   UNL     1      42.779 -15.785   1.588  1.00  0.00     0.185 C 
HETATM    5  C   UNL     1      43.109 -16.951   2.455  1.00  0.00     0.035 A 
HETATM    6  C   UNL     1      43.249 -16.953   3.829  1.00  0.00    -0.020 A 
HETATM    7  C   UNL     1      43.057 -15.708   4.622  1.00  0.00     0.061 C 
HETATM    8  C   UNL     1      43.145 -14.482   3.690  1.00  0.00     0.132 C 
HETATM    9  N   UNL     1      43.321 -18.224   2.005  1.00  0.00    -0.357 N 
HETATM   10  H   UNL     1      43.276 -18.525   1.041  1.00  0.00     0.166 HD
HETATM   11  C   UNL     1      43.586 -19.059   3.071  1.00  0.00     0.043 A 
HETATM   12  C   UNL     1      43.543 -18.283   4.232  1.00  0.00    -0.001 A 
HETATM   13  C   UNL     1      43.850 -20.433   3.092  1.00  0.00     0.030 A 
HETATM   14  C   UNL     1      44.071 -21.032   4.335  1.00  0.00     0.002 A 
HETATM   15  C   UNL     1      44.032 -20.284   5.510  1.00  0.00     0.001 A 
HETATM   16  C   UNL     1      43.769 -18.909   5.473  1.00  0.00     0.014 A 
HETATM   17  O   UNL     1      41.140 -13.842   0.709  1.00  0.00    -0.247 OA
HETATM   18  H   UNL     1      41.142 -12.970   3.745  1.00  0.00     0.171 HD
ENDROOT
BRANCH   1  19
HETATM   19  C   UNL     1      40.078 -11.760   2.503  1.00  0.00     0.071 A 
HETATM   20  C   UNL     1      40.573 -10.444   2.582  1.00  0.00     0.116 A 
HETATM   21  C   UNL     1      39.711  -9.349   2.438  1.00  0.00     0.069 A 
HETATM   22 CL   UNL     1      40.271  -7.725   2.612  1.00  0.00    -0.081 Cl
HETATM   23  C   UNL     1      38.363  -9.558   2.152  1.00  0.00     0.027 A 
HETATM   24  C   UNL     1      37.877 -10.858   2.019  1.00  0.00     0.004 A 
HETATM   25  C   UNL     1      38.729 -11.954   2.193  1.00  0.00     0.032 A 
BRANCH  20  26
HETATM   26  O   UNL     1      41.911 -10.258   2.859  1.00  0.00    -0.352 OA
HETATM   27  C   UNL     1      42.101 -10.113   4.270  1.00  0.00     0.210 C 
ENDBRANCH  20  26
ENDBRANCH   1  19
TORSDOF 2
ENDMDL
MODEL 5
REMARK VINA RESULT:      -7.9      2.979      4.816
REMARK  2 active torsions:
REMARK  status: ('A' for Active; 'I' for Inactive)
REMARK    1  A    between atoms: O_2  and  C_3 
REMARK    2  A    between atoms: C_9  and  N_10 
REMARK       I    between atoms: N_10  and  C_11 
REMARK       I    between atoms: C_11  and  N_12 
ROOT
HETATM    1  N   UNL     1      42.471 -10.278   8.550  1.00  0.00    -0.306 N 
HETATM    2  C   UNL     1      42.696 -10.107   7.207  1.00  0.00     0.323 C 
HETATM    3  N   UNL     1      43.215 -11.220   6.554  1.00  0.00    -0.328 N 
HETATM    4  C   UNL     1      43.341 -11.122   5.093  1.00  0.00     0.185 C 
HETATM    5  C   UNL     1      43.225 -12.491   4.518  1.00  0.00     0.035 A 
HETATM    6  C   UNL     1      43.248 -13.688   5.207  1.00  0.00    -0.020 A 
HETATM    7  C   UNL     1      43.387 -13.717   6.689  1.00  0.00     0.061 C 
HETATM    8  C   UNL     1      43.923 -12.359   7.186  1.00  0.00     0.132 C 
HETATM    9  N   UNL     1      43.069 -12.770   3.189  1.00  0.00    -0.357 N 
HETATM   10  H   UNL     1      43.010 -12.088   2.445  1.00  0.00     0.166 HD
HETATM   11  C   UNL     1      42.978 -14.135   3.005  1.00  0.00     0.043 A 
HETATM   12  C   UNL     1      43.085 -14.735   4.263  1.00  0.00    -0.001 A 
HETATM   13  C   UNL     1      42.802 -14.873   1.829  1.00  0.00     0.030 A 
HETATM   14  C   UNL     1      42.729 -16.264   1.942  1.00  0.00     0.002 A 
HETATM   15  C   UNL     1      42.830 -16.891   3.183  1.00  0.00     0.001 A 
HETATM   16  C   UNL     1      43.008 -16.139   4.350  1.00  0.00     0.014 A 
HETATM   17  O   UNL     1      42.456  -9.071   6.591  1.00  0.00    -0.247 OA
HETATM   18  H   UNL     1      42.486 -11.222   8.903  1.00  0.00     0.171 HD
ENDROOT
BRANCH   1  19
HETATM   19  C   UNL     1      41.950  -9.348   9.480  1.00  0.00     0.071 A 
HETATM   20  C   UNL     1      42.738  -9.057  10.610  1.00  0.00     0.116 A 
HETATM   21  C   UNL     1      42.251  -8.223  11.624  1.00  0.00     0.069 A 
HETATM   22 CL   UNL     1      43.160  -7.914  13.060  1.00  0.00    -0.081 Cl
HETATM   23  C   UNL     1      41.000  -7.624  11.490  1.00  0.00     0.027 A 
HETATM   24  C   UNL     1      40.236  -7.864  10.350  1.00  0.00     0.004 A 
HETATM   25  C   UNL     1      40.707  -8.722   9.349  1.00  0.00     0.032 A 
BRANCH  20  26
HETATM   26  O   UNL     1      43.977  -9.654  10.721  1.00  0.00    -0.352 OA
HETATM   27  C   UNL     1      43.870 -10.858  11.487  1.00  0.00     0.210 C 
ENDBRANCH  20  26
ENDBRANCH   1  19
TORSDOF 2
ENDMDL
MODEL 6
REMARK VINA RESULT:      -7.8      3.834      8.470
REMARK  2 active torsions:
REMARK  status: ('A' for Active; 'I' for Inactive)
REMARK    1  A    between atoms: O_2  and  C_3 
REMARK    2  A    between atoms: C_9  and  N_10 
REMARK       I    between atoms: N_10  and  C_11 
REMARK       I    between atoms: C_11  and  N_12 
ROOT
HETATM    1  N   UNL     1      43.154 -16.661   5.324  1.00  0.00    -0.306 N 
HETATM    2  C   UNL     1      41.963 -16.143   5.766  1.00  0.00     0.323 C 
HETATM    3  N   UNL     1      41.951 -14.763   5.936  1.00  0.00    -0.328 N 
HETATM    4  C   UNL     1      40.656 -14.157   6.276  1.00  0.00     0.185 C 
HETATM    5  C   UNL     1      40.639 -12.761   5.757  1.00  0.00     0.035 A 
HETATM    6  C   UNL     1      41.711 -12.044   5.264  1.00  0.00    -0.020 A 
HETATM    7  C   UNL     1      43.071 -12.647   5.191  1.00  0.00     0.061 C 
HETATM    8  C   UNL     1      43.136 -13.888   6.106  1.00  0.00     0.132 C 
HETATM    9  N   UNL     1      39.529 -11.967   5.685  1.00  0.00    -0.357 N 
HETATM   10  H   UNL     1      38.595 -12.231   5.969  1.00  0.00     0.166 HD
HETATM   11  C   UNL     1      39.863 -10.744   5.140  1.00  0.00     0.043 A 
HETATM   12  C   UNL     1      41.233 -10.769   4.863  1.00  0.00    -0.001 A 
HETATM   13  C   UNL     1      39.058  -9.632   4.867  1.00  0.00     0.030 A 
HETATM   14  C   UNL     1      39.669  -8.515   4.291  1.00  0.00     0.002 A 
HETATM   15  C   UNL     1      41.032  -8.511   4.001  1.00  0.00     0.001 A 
HETATM   16  C   UNL     1      41.825  -9.631   4.283  1.00  0.00     0.014 A 
HETATM   17  O   UNL     1      40.958 -16.814   5.992  1.00  0.00    -0.247 OA
HETATM   18  H   UNL     1      43.832 -16.009   4.957  1.00  0.00     0.171 HD
ENDROOT
BRANCH   1  19
HETATM   19  C   UNL     1      43.481 -18.010   5.051  1.00  0.00     0.071 A 
HETATM   20  C   UNL     1      43.619 -18.377   3.699  1.00  0.00     0.116 A 
HETATM   21  C   UNL     1      43.845 -19.713   3.342  1.00  0.00     0.069 A 
HETATM   22 CL   UNL     1      43.936 -20.208   1.690  1.00  0.00    -0.081 Cl
HETATM   23  C   UNL     1      43.996 -20.681   4.333  1.00  0.00     0.027 A 
HETATM   24  C   UNL     1      43.914 -20.316   5.676  1.00  0.00     0.004 A 
HETATM   25  C   UNL     1      43.658 -18.988   6.034  1.00  0.00     0.032 A 
BRANCH  20  26
HETATM   26  O   UNL     1      43.473 -17.404   2.733  1.00  0.00    -0.352 OA
HETATM   27  C   UNL     1      42.111 -17.351   2.296  1.00  0.00     0.210 C 
ENDBRANCH  20  26
ENDBRANCH   1  19
TORSDOF 2
ENDMDL
MODEL 7
REMARK VINA RESULT:      -7.6      3.299      4.552
REMARK  2 active torsions:
REMARK  status: ('A' for Active; 'I' for Inactive)
REMARK    1  A    between atoms: O_2  and  C_3 
REMARK    2  A    between atoms: C_9  and  N_10 
REMARK       I    between atoms: N_10  and  C_11 
REMARK       I    between atoms: C_11  and  N_12 
ROOT
HETATM    1  N   UNL     1      42.377  -9.153   6.931  1.00  0.00    -0.306 N 
HETATM    2  C   UNL     1      41.300  -9.957   6.657  1.00  0.00     0.323 C 
HETATM    3  N   UNL     1      41.415 -10.716   5.498  1.00  0.00    -0.328 N 
HETATM    4  C   UNL     1      40.343 -11.689   5.244  1.00  0.00     0.185 C 
HETATM    5  C   UNL     1      40.909 -12.817   4.453  1.00  0.00     0.035 A 
HETATM    6  C   UNL     1      42.143 -12.862   3.834  1.00  0.00    -0.020 A 
HETATM    7  C   UNL     1      43.087 -11.714   3.920  1.00  0.00     0.061 C 
HETATM    8  C   UNL     1      42.324 -10.447   4.358  1.00  0.00     0.132 C 
HETATM    9  N   UNL     1      40.275 -14.006   4.222  1.00  0.00    -0.357 N 
HETATM   10  H   UNL     1      39.358 -14.261   4.561  1.00  0.00     0.166 HD
HETATM   11  C   UNL     1      41.087 -14.831   3.471  1.00  0.00     0.043 A 
HETATM   12  C   UNL     1      42.272 -14.134   3.216  1.00  0.00    -0.001 A 
HETATM   13  C   UNL     1      40.864 -16.133   3.010  1.00  0.00     0.030 A 
HETATM   14  C   UNL     1      41.882 -16.742   2.271  1.00  0.00     0.002 A 
HETATM   15  C   UNL     1      43.074 -16.073   2.003  1.00  0.00     0.001 A 
HETATM   16  C   UNL     1      43.282 -14.769   2.469  1.00  0.00     0.014 A 
HETATM   17  O   UNL     1      40.299 -10.037   7.366  1.00  0.00    -0.247 OA
HETATM   18  H   UNL     1      43.227  -9.331   6.417  1.00  0.00     0.171 HD
ENDROOT
BRANCH   1  19
HETATM   19  C   UNL     1      42.567  -8.276   8.025  1.00  0.00     0.071 A 
HETATM   20  C   UNL     1      43.112  -8.824   9.202  1.00  0.00     0.116 A 
HETATM   21  C   UNL     1      43.240  -8.046  10.359  1.00  0.00     0.069 A 
HETATM   22 CL   UNL     1      43.828  -8.711  11.840  1.00  0.00    -0.081 Cl
HETATM   23  C   UNL     1      42.882  -6.699  10.334  1.00  0.00     0.027 A 
HETATM   24  C   UNL     1      42.390  -6.135   9.157  1.00  0.00     0.004 A 
HETATM   25  C   UNL     1      42.233  -6.919   8.009  1.00  0.00     0.032 A 
BRANCH  20  26
HETATM   26  O   UNL     1      43.467 -10.157   9.205  1.00  0.00    -0.352 OA
HETATM   27  C   UNL     1      44.865 -10.289   8.930  1.00  0.00     0.210 C 
ENDBRANCH  20  26
ENDBRANCH   1  19
TORSDOF 2
ENDMDL
MODEL 8
REMARK VINA RESULT:      -7.6      5.703      8.811
REMARK  2 active torsions:
REMARK  status: ('A' for Active; 'I' for Inactive)
REMARK    1  A    between atoms: O_2  and  C_3 
REMARK    2  A    between atoms: C_9  and  N_10 
REMARK       I    between atoms: N_10  and  C_11 
REMARK       I    between atoms: C_11  and  N_12 
ROOT
HETATM    1  N   UNL     1      42.261 -15.459   2.764  1.00  0.00    -0.306 N 
HETATM    2  C   UNL     1      41.207 -15.381   1.889  1.00  0.00     0.323 C 
HETATM    3  N   UNL     1      40.873 -14.093   1.486  1.00  0.00    -0.328 N 
HETATM    4  C   UNL     1      39.841 -13.979   0.446  1.00  0.00     0.185 C 
HETATM    5  C   UNL     1      40.087 -12.729  -0.327  1.00  0.00     0.035 A 
HETATM    6  C   UNL     1      40.959 -11.709  -0.002  1.00  0.00    -0.020 A 
HETATM    7  C   UNL     1      41.798 -11.777   1.227  1.00  0.00     0.061 C 
HETATM    8  C   UNL     1      41.220 -12.835   2.190  1.00  0.00     0.132 C 
HETATM    9  N   UNL     1      39.474 -12.405  -1.503  1.00  0.00    -0.357 N 
HETATM   10  H   UNL     1      38.790 -12.969  -1.989  1.00  0.00     0.166 HD
HETATM   11  C   UNL     1      39.945 -11.190  -1.957  1.00  0.00     0.043 A 
HETATM   12  C   UNL     1      40.885 -10.732  -1.029  1.00  0.00    -0.001 A 
HETATM   13  C   UNL     1      39.617 -10.474  -3.113  1.00  0.00     0.030 A 
HETATM   14  C   UNL     1      40.270  -9.257  -3.330  1.00  0.00     0.002 A 
HETATM   15  C   UNL     1      41.213  -8.777  -2.424  1.00  0.00     0.001 A 
HETATM   16  C   UNL     1      41.530  -9.504  -1.270  1.00  0.00     0.014 A 
HETATM   17  O   UNL     1      40.590 -16.355   1.460  1.00  0.00    -0.247 OA
HETATM   18  H   UNL     1      42.833 -14.635   2.870  1.00  0.00     0.171 HD
ENDROOT
BRANCH   1  19
HETATM   19  C   UNL     1      42.839 -16.612   3.346  1.00  0.00     0.071 A 
HETATM   20  C   UNL     1      42.768 -16.729   4.747  1.00  0.00     0.116 A 
HETATM   21  C   UNL     1      43.401 -17.790   5.407  1.00  0.00     0.069 A 
HETATM   22 CL   UNL     1      43.402 -17.916   7.129  1.00  0.00    -0.081 Cl
HETATM   23  C   UNL     1      44.056 -18.775   4.670  1.00  0.00     0.027 A 
HETATM   24  C   UNL     1      44.085 -18.694   3.279  1.00  0.00     0.004 A 
HETATM   25  C   UNL     1      43.480 -17.619   2.619  1.00  0.00     0.032 A 
BRANCH  20  26
HETATM   26  O   UNL     1      42.109 -15.748   5.458  1.00  0.00    -0.352 OA
HETATM   27  C   UNL     1      40.756 -16.149   5.701  1.00  0.00     0.210 C 
ENDBRANCH  20  26
ENDBRANCH   1  19
TORSDOF 2
ENDMDL
MODEL 9
REMARK VINA RESULT:      -7.5      3.715      9.147
REMARK  2 active torsions:
REMARK  status: ('A' for Active; 'I' for Inactive)
REMARK    1  A    between atoms: O_2  and  C_3 
REMARK    2  A    between atoms: C_9  and  N_10 
REMARK       I    between atoms: N_10  and  C_11 
REMARK       I    between atoms: C_11  and  N_12 
ROOT
HETATM    1  N   UNL     1      42.767 -11.810   5.545  1.00  0.00    -0.306 N 
HETATM    2  C   UNL     1      43.759 -11.330   6.362  1.00  0.00     0.323 C 
HETATM    3  N   UNL     1      43.371 -10.300   7.212  1.00  0.00    -0.328 N 
HETATM    4  C   UNL     1      44.367  -9.853   8.196  1.00  0.00     0.185 C 
HETATM    5  C   UNL     1      43.646  -9.320   9.386  1.00  0.00     0.035 A 
HETATM    6  C   UNL     1      42.297  -9.044   9.486  1.00  0.00    -0.020 A 
HETATM    7  C   UNL     1      41.377  -9.283   8.340  1.00  0.00     0.061 C 
HETATM    8  C   UNL     1      42.195  -9.414   7.038  1.00  0.00     0.132 C 
HETATM    9  N   UNL     1      44.230  -9.024  10.585  1.00  0.00    -0.357 N 
HETATM   10  H   UNL     1      45.210  -9.134  10.809  1.00  0.00     0.166 HD
HETATM   11  C   UNL     1      43.274  -8.570  11.471  1.00  0.00     0.043 A 
HETATM   12  C   UNL     1      42.047  -8.577  10.803  1.00  0.00    -0.001 A 
HETATM   13  C   UNL     1      43.406  -8.166  12.805  1.00  0.00     0.030 A 
HETATM   14  C   UNL     1      42.248  -7.761  13.476  1.00  0.00     0.002 A 
HETATM   15  C   UNL     1      41.010  -7.759  12.837  1.00  0.00     0.001 A 
HETATM   16  C   UNL     1      40.896  -8.164  11.501  1.00  0.00     0.014 A 
HETATM   17  O   UNL     1      44.910 -11.762   6.381  1.00  0.00    -0.247 OA
HETATM   18  H   UNL     1      41.819 -11.547   5.768  1.00  0.00     0.171 HD
ENDROOT
BRANCH   1  19
HETATM   19  C   UNL     1      42.842 -12.848   4.586  1.00  0.00     0.071 A 
HETATM   20  C   UNL     1      42.466 -14.138   5.004  1.00  0.00     0.116 A 
HETATM   21  C   UNL     1      42.604 -15.236   4.144  1.00  0.00     0.069 A 
HETATM   22 CL   UNL     1      42.229 -16.842   4.654  1.00  0.00    -0.081 Cl
HETATM   23  C   UNL     1      43.059 -15.044   2.840  1.00  0.00     0.027 A 
HETATM   24  C   UNL     1      43.384 -13.761   2.402  1.00  0.00     0.004 A 
HETATM   25  C   UNL     1      43.276 -12.668   3.270  1.00  0.00     0.032 A 
BRANCH  20  26
HETATM   26  O   UNL     1      42.010 -14.307   6.295  1.00  0.00    -0.352 OA
HETATM   27  C   UNL     1      40.579 -14.331   6.306  1.00  0.00     0.210 C 
ENDBRANCH  20  26
ENDBRANCH   1  19
TORSDOF 2
ENDMDL
MODEL 10
REMARK VINA RESULT:      -7.3      5.623      8.297
REMARK  2 active torsions:
REMARK  status: ('A' for Active; 'I' for Inactive)
REMARK    1  A    between atoms: O_2  and  C_3 
REMARK    2  A    between atoms: C_9  and  N_10 
REMARK       I    between atoms: N_10  and  C_11 
REMARK       I    between atoms: C_11  and  N_12 
ROOT
HETATM    1  N   UNL     1      42.066 -14.784   4.177  1.00  0.00    -0.306 N 
HETATM    2  C   UNL     1      40.871 -14.785   3.504  1.00  0.00     0.323 C 
HETATM    3  N   UNL     1      40.626 -13.649   2.740  1.00  0.00    -0.328 N 
HETATM    4  C   UNL     1      39.422 -13.673   1.898  1.00  0.00     0.185 C 
HETATM    5  C   UNL     1      39.658 -12.799   0.715  1.00  0.00     0.035 A 
HETATM    6  C   UNL     1      40.701 -11.913   0.530  1.00  0.00    -0.020 A 
HETATM    7  C   UNL     1      41.763 -11.750   1.562  1.00  0.00     0.061 C 
HETATM    8  C   UNL     1      41.270 -12.324   2.907  1.00  0.00     0.132 C 
HETATM    9  N   UNL     1      38.858 -12.749  -0.392  1.00  0.00    -0.357 N 
HETATM   10  H   UNL     1      38.022 -13.297  -0.541  1.00  0.00     0.166 HD
HETATM   11  C   UNL     1      39.375 -11.849  -1.302  1.00  0.00     0.043 A 
HETATM   12  C   UNL     1      40.538 -11.311  -0.745  1.00  0.00    -0.001 A 
HETATM   13  C   UNL     1      38.905 -11.483  -2.568  1.00  0.00     0.030 A 
HETATM   14  C   UNL     1      39.648 -10.543  -3.288  1.00  0.00     0.002 A 
HETATM   15  C   UNL     1      40.813  -9.991  -2.760  1.00  0.00     0.001 A 
HETATM   16  C   UNL     1      41.269 -10.365  -1.490  1.00  0.00     0.014 A 
HETATM   17  O   UNL     1      40.059 -15.709   3.537  1.00  0.00    -0.247 OA
HETATM   18  H   UNL     1      42.748 -14.092   3.904  1.00  0.00     0.171 HD
ENDROOT
BRANCH   1  19
HETATM   19  C   UNL     1      42.602 -15.784   5.023  1.00  0.00     0.071 A 
HETATM   20  C   UNL     1      43.331 -16.821   4.409  1.00  0.00     0.116 A 
HETATM   21  C   UNL     1      43.810 -17.899   5.165  1.00  0.00     0.069 A 
HETATM   22 CL   UNL     1      44.635 -19.227   4.430  1.00  0.00    -0.081 Cl
HETATM   23  C   UNL     1      43.620 -17.920   6.545  1.00  0.00     0.027 A 
HETATM   24  C   UNL     1      42.945 -16.869   7.167  1.00  0.00     0.004 A 
HETATM   25  C   UNL     1      42.439 -15.807   6.410  1.00  0.00     0.032 A 
BRANCH  20  26
HETATM   26  O   UNL     1      43.515 -16.779   3.043  1.00  0.00    -0.352 OA
HETATM   27  C   UNL     1      42.686 -17.758   2.410  1.00  0.00     0.210 C 
ENDBRANCH  20  26
ENDBRANCH   1  19
TORSDOF 2
ENDMDL
