MODEL 1
REMARK VINA RESULT:      -8.3      0.000      0.000
REMARK  2 active torsions:
REMARK  status: ('A' for Active; 'I' for Inactive)
REMARK    1  A    between atoms: C_2  and  C_3 
REMARK    2  A    between atoms: C_6  and  C_7 
ROOT
HETATM    1  C   UNL     1      41.076 -13.745   4.379  1.00  0.00     0.197 C 
HETATM    2  N   UNL     1      40.979 -13.654   2.914  1.00  0.00    -0.345 N 
HETATM    3  C   UNL     1      41.574 -14.548   2.130  1.00  0.00     0.113 C 
HETATM    4  N   UNL     1      41.490 -14.452   0.810  1.00  0.00    -0.376 N 
HETATM    5  H   UNL     1      41.913 -15.186   0.255  1.00  0.00     0.161 HD
HETATM    6  C   UNL     1      42.301 -15.675   2.737  1.00  0.00     0.029 A 
HETATM    7  C   UNL     1      41.985 -15.958   4.071  1.00  0.00     0.025 A 
HETATM    8  N   UNL     1      41.034 -15.157   4.721  1.00  0.00    -0.267 NA
HETATM    9  C   UNL     1      43.254 -16.461   2.072  1.00  0.00     0.019 A 
HETATM   10  C   UNL     1      43.835 -17.555   2.720  1.00  0.00     0.025 A 
HETATM   11  C   UNL     1      43.457 -17.872   4.022  1.00  0.00     0.035 A 
HETATM   12 CL   UNL     1      44.152 -19.234   4.805  1.00  0.00    -0.084 Cl
HETATM   13  C   UNL     1      42.525 -17.086   4.696  1.00  0.00     0.048 A 
HETATM   14  C   UNL     1      40.203 -12.536   2.357  1.00  0.00     0.128 C 
HETATM   15  C   UNL     1      39.629 -12.920   1.012  1.00  0.00     0.039 C 
HETATM   16  C   UNL     1      40.767 -13.378   0.135  1.00  0.00     0.123 C 
HETATM   17  H   UNL     1      41.059 -15.295   5.729  1.00  0.00     0.130 HD
ENDROOT
BRANCH   1  18
HETATM   18  C   UNL     1      42.298 -13.042   4.950  1.00  0.00    -0.021 A 
HETATM   19  C   UNL     1      43.078 -12.134   4.216  1.00  0.00     0.011 A 
HETATM   20  C   UNL     1      44.211 -11.538   4.778  1.00  0.00     0.007 A 
HETATM   21  C   UNL     1      44.597 -11.836   6.088  1.00  0.00    -0.059 A 
HETATM   22  C   UNL     1      43.816 -12.720   6.838  1.00  0.00     0.007 A 
HETATM   23  C   UNL     1      42.683 -13.314   6.277  1.00  0.00     0.011 A 
BRANCH  21  24
HETATM   24  C   UNL     1      45.823 -11.196   6.691  1.00  0.00     0.034 C 
HETATM   25  C   UNL     1      45.561 -10.680   8.097  1.00  0.00     0.010 C 
ENDBRANCH  21  24
ENDBRANCH   1  18
TORSDOF 2
ENDMDL
MODEL 2
REMARK VINA RESULT:      -8.1      2.530      5.986
REMARK  2 active torsions:
REMARK  status: ('A' for Active; 'I' for Inactive)
REMARK    1  A    between atoms: C_2  and  C_3 
REMARK    2  A    between atoms: C_6  and  C_7 
ROOT
HETATM    1  C   UNL     1      41.822 -14.727   5.414  1.00  0.00     0.197 C 
HETATM    2  N   UNL     1      42.785 -13.635   5.626  1.00  0.00    -0.345 N 
HETATM    3  C   UNL     1      42.926 -12.663   4.730  1.00  0.00     0.113 C 
HETATM    4  N   UNL     1      43.804 -11.688   4.924  1.00  0.00    -0.376 N 
HETATM    5  H   UNL     1      43.839 -10.939   4.241  1.00  0.00     0.161 HD
HETATM    6  C   UNL     1      42.073 -12.651   3.531  1.00  0.00     0.029 A 
HETATM    7  C   UNL     1      40.907 -13.422   3.604  1.00  0.00     0.025 A 
HETATM    8  N   UNL     1      40.652 -14.145   4.779  1.00  0.00    -0.267 NA
HETATM    9  C   UNL     1      42.348 -11.924   2.362  1.00  0.00     0.019 A 
HETATM   10  C   UNL     1      41.433 -11.926   1.305  1.00  0.00     0.025 A 
HETATM   11  C   UNL     1      40.242 -12.637   1.419  1.00  0.00     0.035 A 
HETATM   12 CL   UNL     1      39.106 -12.614   0.129  1.00  0.00    -0.084 Cl
HETATM   13  C   UNL     1      39.969 -13.374   2.569  1.00  0.00     0.048 A 
HETATM   14  C   UNL     1      43.582 -13.667   6.861  1.00  0.00     0.128 C 
HETATM   15  C   UNL     1      43.969 -12.263   7.267  1.00  0.00     0.039 C 
HETATM   16  C   UNL     1      44.669 -11.617   6.098  1.00  0.00     0.123 C 
HETATM   17  H   UNL     1      39.923 -14.841   4.635  1.00  0.00     0.130 HD
ENDROOT
BRANCH   1  18
HETATM   18  C   UNL     1      42.395 -15.895   4.625  1.00  0.00    -0.021 A 
HETATM   19  C   UNL     1      41.832 -16.366   3.428  1.00  0.00     0.011 A 
HETATM   20  C   UNL     1      42.380 -17.465   2.758  1.00  0.00     0.007 A 
HETATM   21  C   UNL     1      43.502 -18.123   3.267  1.00  0.00    -0.059 A 
HETATM   22  C   UNL     1      44.087 -17.649   4.445  1.00  0.00     0.007 A 
HETATM   23  C   UNL     1      43.541 -16.551   5.114  1.00  0.00     0.011 A 
BRANCH  21  24
HETATM   24  C   UNL     1      44.089 -19.311   2.545  1.00  0.00     0.034 C 
HETATM   25  C   UNL     1      43.012 -20.183   1.920  1.00  0.00     0.010 C 
ENDBRANCH  21  24
ENDBRANCH   1  18
TORSDOF 2
ENDMDL
MODEL 3
REMARK VINA RESULT:      -7.9      2.639      5.784
REMARK  2 active torsions:
REMARK  status: ('A' for Active; 'I' for Inactive)
REMARK    1  A    between atoms: C_2  and  C_3 
REMARK    2  A    between atoms: C_6  and  C_7 
ROOT
HETATM    1  C   UNL     1      40.947 -14.556   4.560  1.00  0.00     0.197 C 
HETATM    2  N   UNL     1      41.732 -13.326   4.751  1.00  0.00    -0.345 N 
HETATM    3  C   UNL     1      41.902 -12.460   3.757  1.00  0.00     0.113 C 
HETATM    4  N   UNL     1      42.619 -11.359   3.935  1.00  0.00    -0.376 N 
HETATM    5  H   UNL     1      42.676 -10.702   3.165  1.00  0.00     0.161 HD
HETATM    6  C   UNL     1      41.255 -12.710   2.458  1.00  0.00     0.029 A 
HETATM    7  C   UNL     1      40.189 -13.618   2.472  1.00  0.00     0.025 A 
HETATM    8  N   UNL     1      39.834 -14.219   3.689  1.00  0.00    -0.267 NA
HETATM    9  C   UNL     1      41.628 -12.101   1.250  1.00  0.00     0.019 A 
HETATM   10  C   UNL     1      40.900 -12.355   0.084  1.00  0.00     0.025 A 
HETATM   11  C   UNL     1      39.795 -13.202   0.126  1.00  0.00     0.035 A 
HETATM   12 CL   UNL     1      38.885 -13.489  -1.303  1.00  0.00    -0.084 Cl
HETATM   13  C   UNL     1      39.429 -13.824   1.317  1.00  0.00     0.048 A 
HETATM   14  C   UNL     1      42.320 -13.100   6.080  1.00  0.00     0.128 C 
HETATM   15  C   UNL     1      42.473 -11.617   6.335  1.00  0.00     0.039 C 
HETATM   16  C   UNL     1      43.271 -11.029   5.199  1.00  0.00     0.123 C 
HETATM   17  H   UNL     1      39.223 -15.020   3.542  1.00  0.00     0.130 HD
ENDROOT
BRANCH   1  18
HETATM   18  C   UNL     1      41.769 -15.723   4.034  1.00  0.00    -0.021 A 
HETATM   19  C   UNL     1      41.453 -16.420   2.857  1.00  0.00     0.011 A 
HETATM   20  C   UNL     1      42.224 -17.507   2.433  1.00  0.00     0.007 A 
HETATM   21  C   UNL     1      43.330 -17.928   3.176  1.00  0.00    -0.059 A 
HETATM   22  C   UNL     1      43.670 -17.229   4.338  1.00  0.00     0.007 A 
HETATM   23  C   UNL     1      42.901 -16.142   4.761  1.00  0.00     0.011 A 
BRANCH  21  24
HETATM   24  C   UNL     1      44.158 -19.105   2.721  1.00  0.00     0.034 C 
HETATM   25  C   UNL     1      43.302 -20.190   2.088  1.00  0.00     0.010 C 
ENDBRANCH  21  24
ENDBRANCH   1  18
TORSDOF 2
ENDMDL
MODEL 4
REMARK VINA RESULT:      -7.4     15.535     17.573
REMARK  2 active torsions:
REMARK  status: ('A' for Active; 'I' for Inactive)
REMARK    1  A    between atoms: C_2  and  C_3 
REMARK    2  A    between atoms: C_6  and  C_7 
ROOT
HETATM    1  C   UNL     1      44.583 -28.464  -0.389  1.00  0.00     0.197 C 
HETATM    2  N   UNL     1      44.027 -29.356   0.641  1.00  0.00    -0.345 N 
HETATM    3  C   UNL     1      44.784 -30.277   1.230  1.00  0.00     0.113 C 
HETATM    4  N   UNL     1      44.272 -31.084   2.150  1.00  0.00    -0.376 N 
HETATM    5  H   UNL     1      44.898 -31.734   2.611  1.00  0.00     0.161 HD
HETATM    6  C   UNL     1      46.210 -30.376   0.883  1.00  0.00     0.029 A 
HETATM    7  C   UNL     1      46.767 -29.250   0.266  1.00  0.00     0.025 A 
HETATM    8  N   UNL     1      45.942 -28.144   0.015  1.00  0.00    -0.267 NA
HETATM    9  C   UNL     1      47.019 -31.494   1.138  1.00  0.00     0.019 A 
HETATM   10  C   UNL     1      48.382 -31.457   0.832  1.00  0.00     0.025 A 
HETATM   11  C   UNL     1      48.941 -30.304   0.287  1.00  0.00     0.035 A 
HETATM   12 CL   UNL     1      50.622 -30.251  -0.061  1.00  0.00    -0.084 Cl
HETATM   13  C   UNL     1      48.142 -29.195   0.015  1.00  0.00     0.048 A 
HETATM   14  C   UNL     1      42.608 -29.188   0.985  1.00  0.00     0.128 C 
HETATM   15  C   UNL     1      42.365 -29.620   2.414  1.00  0.00     0.039 C 
HETATM   16  C   UNL     1      42.873 -31.032   2.565  1.00  0.00     0.123 C 
HETATM   17  H   UNL     1      46.379 -27.495  -0.637  1.00  0.00     0.130 HD
ENDROOT
BRANCH   1  18
HETATM   18  C   UNL     1      44.512 -29.043  -1.794  1.00  0.00    -0.021 A 
HETATM   19  C   UNL     1      44.064 -30.345  -2.069  1.00  0.00     0.011 A 
HETATM   20  C   UNL     1      44.047 -30.839  -3.377  1.00  0.00     0.007 A 
HETATM   21  C   UNL     1      44.480 -30.048  -4.444  1.00  0.00    -0.059 A 
HETATM   22  C   UNL     1      44.907 -28.742  -4.187  1.00  0.00     0.007 A 
HETATM   23  C   UNL     1      44.922 -28.246  -2.880  1.00  0.00     0.011 A 
BRANCH  21  24
HETATM   24  C   UNL     1      44.467 -30.585  -5.854  1.00  0.00     0.034 C 
HETATM   25  C   UNL     1      44.255 -32.090  -5.886  1.00  0.00     0.010 C 
ENDBRANCH  21  24
ENDBRANCH   1  18
TORSDOF 2
ENDMDL
MODEL 5
REMARK VINA RESULT:      -7.4     15.244     17.264
REMARK  2 active torsions:
REMARK  status: ('A' for Active; 'I' for Inactive)
REMARK    1  A    between atoms: C_2  and  C_3 
REMARK    2  A    between atoms: C_6  and  C_7 
ROOT
HETATM    1  C   UNL     1      46.562 -28.768   2.362  1.00  0.00     0.197 C 
HETATM    2  N   UNL     1      47.864 -29.437   2.201  1.00  0.00    -0.345 N 
HETATM    3  C   UNL     1      48.331 -29.744   0.995  1.00  0.00     0.113 C 
HETATM    4  N   UNL     1      49.500 -30.355   0.860  1.00  0.00    -0.376 N 
HETATM    5  H   UNL     1      49.842 -30.520  -0.080  1.00  0.00     0.161 HD
HETATM    6  C   UNL     1      47.560 -29.366  -0.201  1.00  0.00     0.029 A 
HETATM    7  C   UNL     1      46.598 -28.366  -0.016  1.00  0.00     0.025 A 
HETATM    8  N   UNL     1      46.432 -27.822   1.267  1.00  0.00    -0.267 NA
HETATM    9  C   UNL     1      47.738 -29.926  -1.475  1.00  0.00     0.019 A 
HETATM   10  C   UNL     1      47.001 -29.444  -2.561  1.00  0.00     0.025 A 
HETATM   11  C   UNL     1      46.100 -28.398  -2.379  1.00  0.00     0.035 A 
HETATM   12 CL   UNL     1      45.217 -27.789  -3.720  1.00  0.00    -0.084 Cl
HETATM   13  C   UNL     1      45.905 -27.848  -1.114  1.00  0.00     0.048 A 
HETATM   14  C   UNL     1      48.617 -29.752   3.424  1.00  0.00     0.128 C 
HETATM   15  C   UNL     1      50.100 -29.775   3.130  1.00  0.00     0.039 C 
HETATM   16  C   UNL     1      50.334 -30.740   1.995  1.00  0.00     0.123 C 
HETATM   17  H   UNL     1      45.566 -27.293   1.335  1.00  0.00     0.130 HD
ENDROOT
BRANCH   1  18
HETATM   18  C   UNL     1      45.391 -29.735   2.442  1.00  0.00    -0.021 A 
HETATM   19  C   UNL     1      45.538 -31.130   2.388  1.00  0.00     0.011 A 
HETATM   20  C   UNL     1      44.423 -31.974   2.435  1.00  0.00     0.007 A 
HETATM   21  C   UNL     1      43.133 -31.447   2.534  1.00  0.00    -0.059 A 
HETATM   22  C   UNL     1      42.975 -30.060   2.612  1.00  0.00     0.007 A 
HETATM   23  C   UNL     1      44.087 -29.216   2.567  1.00  0.00     0.011 A 
BRANCH  21  24
HETATM   24  C   UNL     1      41.932 -32.359   2.578  1.00  0.00     0.034 C 
HETATM   25  C   UNL     1      40.755 -31.785   1.806  1.00  0.00     0.010 C 
ENDBRANCH  21  24
ENDBRANCH   1  18
TORSDOF 2
ENDMDL
MODEL 6
REMARK VINA RESULT:      -7.3      2.121      2.499
REMARK  2 active torsions:
REMARK  status: ('A' for Active; 'I' for Inactive)
REMARK    1  A    between atoms: C_2  and  C_3 
REMARK    2  A    between atoms: C_6  and  C_7 
ROOT
HETATM    1  C   UNL     1      39.325 -13.454   2.681  1.00  0.00     0.197 C 
HETATM    2  N   UNL     1      39.719 -13.229   1.281  1.00  0.00    -0.345 N 
HETATM    3  C   UNL     1      40.759 -13.866   0.752  1.00  0.00     0.113 C 
HETATM    4  N   UNL     1      41.114 -13.649  -0.508  1.00  0.00    -0.376 N 
HETATM    5  H   UNL     1      41.879 -14.197  -0.885  1.00  0.00     0.161 HD
HETATM    6  C   UNL     1      41.499 -14.847   1.562  1.00  0.00     0.029 A 
HETATM    7  C   UNL     1      40.826 -15.341   2.686  1.00  0.00     0.025 A 
HETATM    8  N   UNL     1      39.536 -14.864   2.961  1.00  0.00    -0.267 NA
HETATM    9  C   UNL     1      42.792 -15.308   1.273  1.00  0.00     0.019 A 
HETATM   10  C   UNL     1      43.377 -16.297   2.069  1.00  0.00     0.025 A 
HETATM   11  C   UNL     1      42.670 -16.834   3.141  1.00  0.00     0.035 A 
HETATM   12 CL   UNL     1      43.380 -18.070   4.101  1.00  0.00    -0.084 Cl
HETATM   13  C   UNL     1      41.392 -16.370   3.445  1.00  0.00     0.048 A 
HETATM   14  C   UNL     1      38.920 -12.273   0.500  1.00  0.00     0.128 C 
HETATM   15  C   UNL     1      38.968 -12.633  -0.968  1.00  0.00     0.039 C 
HETATM   16  C   UNL     1      40.416 -12.710  -1.382  1.00  0.00     0.123 C 
HETATM   17  H   UNL     1      39.247 -15.101   3.907  1.00  0.00     0.130 HD
ENDROOT
BRANCH   1  18
HETATM   18  C   UNL     1      40.046 -12.548   3.667  1.00  0.00    -0.021 A 
HETATM   19  C   UNL     1      40.984 -11.578   3.277  1.00  0.00     0.011 A 
HETATM   20  C   UNL     1      41.643 -10.791   4.227  1.00  0.00     0.007 A 
HETATM   21  C   UNL     1      41.385 -10.954   5.591  1.00  0.00    -0.059 A 
HETATM   22  C   UNL     1      40.436 -11.899   5.990  1.00  0.00     0.007 A 
HETATM   23  C   UNL     1      39.775 -12.684   5.042  1.00  0.00     0.011 A 
BRANCH  21  24
HETATM   24  C   UNL     1      42.101 -10.108   6.614  1.00  0.00     0.034 C 
HETATM   25  C   UNL     1      41.142  -9.524   7.640  1.00  0.00     0.010 C 
ENDBRANCH  21  24
ENDBRANCH   1  18
TORSDOF 2
ENDMDL
MODEL 7
REMARK VINA RESULT:      -7.3      2.535      5.647
REMARK  2 active torsions:
REMARK  status: ('A' for Active; 'I' for Inactive)
REMARK    1  A    between atoms: C_2  and  C_3 
REMARK    2  A    between atoms: C_6  and  C_7 
ROOT
HETATM    1  C   UNL     1      42.501 -12.397   2.593  1.00  0.00     0.197 C 
HETATM    2  N   UNL     1      41.251 -11.881   3.174  1.00  0.00    -0.345 N 
HETATM    3  C   UNL     1      41.213 -11.426   4.423  1.00  0.00     0.113 C 
HETATM    4  N   UNL     1      40.079 -10.973   4.942  1.00  0.00    -0.376 N 
HETATM    5  H   UNL     1      40.110 -10.586   5.878  1.00  0.00     0.161 HD
HETATM    6  C   UNL     1      42.449 -11.391   5.221  1.00  0.00     0.029 A 
HETATM    7  C   UNL     1      43.645 -11.457   4.497  1.00  0.00     0.025 A 
HETATM    8  N   UNL     1      43.579 -11.565   3.100  1.00  0.00    -0.267 NA
HETATM    9  C   UNL     1      42.493 -11.288   6.620  1.00  0.00     0.019 A 
HETATM   10  C   UNL     1      43.724 -11.191   7.276  1.00  0.00     0.025 A 
HETATM   11  C   UNL     1      44.905 -11.182   6.539  1.00  0.00     0.035 A 
HETATM   12 CL   UNL     1      46.414 -11.033   7.346  1.00  0.00    -0.084 Cl
HETATM   13  C   UNL     1      44.870 -11.301   5.151  1.00  0.00     0.048 A 
HETATM   14  C   UNL     1      40.053 -11.895   2.321  1.00  0.00     0.128 C 
HETATM   15  C   UNL     1      39.107 -10.791   2.736  1.00  0.00     0.039 C 
HETATM   16  C   UNL     1      38.818 -10.953   4.207  1.00  0.00     0.123 C 
HETATM   17  H   UNL     1      44.477 -11.842   2.707  1.00  0.00     0.130 HD
ENDROOT
BRANCH   1  18
HETATM   18  C   UNL     1      42.728 -13.876   2.860  1.00  0.00    -0.021 A 
HETATM   19  C   UNL     1      42.479 -14.482   4.102  1.00  0.00     0.011 A 
HETATM   20  C   UNL     1      42.735 -15.842   4.305  1.00  0.00     0.007 A 
HETATM   21  C   UNL     1      43.248 -16.632   3.273  1.00  0.00    -0.059 A 
HETATM   22  C   UNL     1      43.478 -16.047   2.024  1.00  0.00     0.007 A 
HETATM   23  C   UNL     1      43.221 -14.689   1.821  1.00  0.00     0.011 A 
BRANCH  21  24
HETATM   24  C   UNL     1      43.529 -18.098   3.495  1.00  0.00     0.034 C 
HETATM   25  C   UNL     1      43.165 -18.936   2.279  1.00  0.00     0.010 C 
ENDBRANCH  21  24
ENDBRANCH   1  18
TORSDOF 2
ENDMDL
MODEL 8
REMARK VINA RESULT:      -7.2     15.337     16.766
REMARK  2 active torsions:
REMARK  status: ('A' for Active; 'I' for Inactive)
REMARK    1  A    between atoms: C_2  and  C_3 
REMARK    2  A    between atoms: C_6  and  C_7 
ROOT
HETATM    1  C   UNL     1      45.219 -28.354  -0.447  1.00  0.00     0.197 C 
HETATM    2  N   UNL     1      45.148 -28.917  -1.805  1.00  0.00    -0.345 N 
HETATM    3  C   UNL     1      44.589 -30.103  -2.027  1.00  0.00     0.113 C 
HETATM    4  N   UNL     1      44.539 -30.607  -3.252  1.00  0.00    -0.376 N 
HETATM    5  H   UNL     1      44.055 -31.489  -3.381  1.00  0.00     0.161 HD
HETATM    6  C   UNL     1      43.988 -30.843  -0.905  1.00  0.00     0.029 A 
HETATM    7  C   UNL     1      43.685 -30.086   0.233  1.00  0.00     0.025 A 
HETATM    8  N   UNL     1      43.984 -28.716   0.228  1.00  0.00    -0.267 NA
HETATM    9  C   UNL     1      43.701 -32.216  -0.917  1.00  0.00     0.019 A 
HETATM   10  C   UNL     1      43.063 -32.808   0.176  1.00  0.00     0.025 A 
HETATM   11  C   UNL     1      42.700 -32.031   1.273  1.00  0.00     0.035 A 
HETATM   12 CL   UNL     1      41.890 -32.755   2.603  1.00  0.00    -0.084 Cl
HETATM   13  C   UNL     1      42.996 -30.670   1.300  1.00  0.00     0.048 A 
HETATM   14  C   UNL     1      45.722 -28.118  -2.899  1.00  0.00     0.128 C 
HETATM   15  C   UNL     1      45.016 -28.434  -4.198  1.00  0.00     0.039 C 
HETATM   16  C   UNL     1      45.090 -29.924  -4.418  1.00  0.00     0.123 C 
HETATM   17  H   UNL     1      43.947 -28.325   1.167  1.00  0.00     0.130 HD
ENDROOT
BRANCH   1  18
HETATM   18  C   UNL     1      46.456 -28.787   0.324  1.00  0.00    -0.021 A 
HETATM   19  C   UNL     1      47.483 -29.562  -0.239  1.00  0.00     0.011 A 
HETATM   20  C   UNL     1      48.586 -29.960   0.524  1.00  0.00     0.007 A 
HETATM   21  C   UNL     1      48.690 -29.597   1.869  1.00  0.00    -0.059 A 
HETATM   22  C   UNL     1      47.686 -28.806   2.436  1.00  0.00     0.007 A 
HETATM   23  C   UNL     1      46.585 -28.406   1.674  1.00  0.00     0.011 A 
BRANCH  21  24
HETATM   24  C   UNL     1      49.877 -30.033   2.692  1.00  0.00     0.034 C 
HETATM   25  C   UNL     1      49.616 -29.893   4.183  1.00  0.00     0.010 C 
ENDBRANCH  21  24
ENDBRANCH   1  18
TORSDOF 2
ENDMDL
MODEL 9
REMARK VINA RESULT:      -7.2     15.303     16.703
REMARK  2 active torsions:
REMARK  status: ('A' for Active; 'I' for Inactive)
REMARK    1  A    between atoms: C_2  and  C_3 
REMARK    2  A    between atoms: C_6  and  C_7 
ROOT
HETATM    1  C   UNL     1      46.996 -28.198   1.298  1.00  0.00     0.197 C 
HETATM    2  N   UNL     1      46.695 -28.610  -0.083  1.00  0.00    -0.345 N 
HETATM    3  C   UNL     1      45.799 -29.559  -0.334  1.00  0.00     0.113 C 
HETATM    4  N   UNL     1      45.542 -29.932  -1.581  1.00  0.00    -0.376 N 
HETATM    5  H   UNL     1      44.813 -30.620  -1.728  1.00  0.00     0.161 HD
HETATM    6  C   UNL     1      45.060 -30.174   0.780  1.00  0.00     0.029 A 
HETATM    7  C   UNL     1      45.051 -29.451   1.979  1.00  0.00     0.025 A 
HETATM    8  N   UNL     1      45.743 -28.232   2.034  1.00  0.00    -0.267 NA
HETATM    9  C   UNL     1      44.377 -31.398   0.707  1.00  0.00     0.019 A 
HETATM   10  C   UNL     1      43.645 -31.858   1.805  1.00  0.00     0.025 A 
HETATM   11  C   UNL     1      43.583 -31.094   2.968  1.00  0.00     0.035 A 
HETATM   12 CL   UNL     1      42.659 -31.649   4.306  1.00  0.00    -0.084 Cl
HETATM   13  C   UNL     1      44.271 -29.886   3.054  1.00  0.00     0.048 A 
HETATM   14  C   UNL     1      47.427 -27.934  -1.164  1.00  0.00     0.128 C 
HETATM   15  C   UNL     1      46.598 -27.928  -2.429  1.00  0.00     0.039 C 
HETATM   16  C   UNL     1      46.215 -29.353  -2.740  1.00  0.00     0.123 C 
HETATM   17  H   UNL     1      45.869 -27.920   2.994  1.00  0.00     0.130 HD
ENDROOT
BRANCH   1  18
HETATM   18  C   UNL     1      48.083 -29.033   1.956  1.00  0.00    -0.021 A 
HETATM   19  C   UNL     1      48.766 -30.068   1.296  1.00  0.00     0.011 A 
HETATM   20  C   UNL     1      49.737 -30.826   1.958  1.00  0.00     0.007 A 
HETATM   21  C   UNL     1      50.050 -30.573   3.296  1.00  0.00    -0.059 A 
HETATM   22  C   UNL     1      49.395 -29.530   3.957  1.00  0.00     0.007 A 
HETATM   23  C   UNL     1      48.426 -28.770   3.297  1.00  0.00     0.011 A 
BRANCH  21  24
HETATM   24  C   UNL     1      51.094 -31.396   4.009  1.00  0.00     0.034 C 
HETATM   25  C   UNL     1      51.357 -30.883   5.416  1.00  0.00     0.010 C 
ENDBRANCH  21  24
ENDBRANCH   1  18
TORSDOF 2
ENDMDL
MODEL 10
REMARK VINA RESULT:      -7.1      5.719      8.543
REMARK  2 active torsions:
REMARK  status: ('A' for Active; 'I' for Inactive)
REMARK    1  A    between atoms: C_2  and  C_3 
REMARK    2  A    between atoms: C_6  and  C_7 
ROOT
HETATM    1  C   UNL     1      44.168  -8.452   8.749  1.00  0.00     0.197 C 
HETATM    2  N   UNL     1      44.283  -9.724   8.017  1.00  0.00    -0.345 N 
HETATM    3  C   UNL     1      43.247 -10.227   7.352  1.00  0.00     0.113 C 
HETATM    4  N   UNL     1      43.357 -11.379   6.704  1.00  0.00    -0.376 N 
HETATM    5  H   UNL     1      42.559 -11.696   6.166  1.00  0.00     0.161 HD
HETATM    6  C   UNL     1      41.981  -9.479   7.305  1.00  0.00     0.029 A 
HETATM    7  C   UNL     1      42.066  -8.116   7.616  1.00  0.00     0.025 A 
HETATM    8  N   UNL     1      43.317  -7.581   7.956  1.00  0.00    -0.267 NA
HETATM    9  C   UNL     1      40.737 -10.033   6.967  1.00  0.00     0.019 A 
HETATM   10  C   UNL     1      39.606  -9.217   6.883  1.00  0.00     0.025 A 
HETATM   11  C   UNL     1      39.716  -7.850   7.122  1.00  0.00     0.035 A 
HETATM   12 CL   UNL     1      38.329  -6.845   6.990  1.00  0.00    -0.084 Cl
HETATM   13  C   UNL     1      40.944  -7.294   7.475  1.00  0.00     0.048 A 
HETATM   14  C   UNL     1      45.582 -10.410   8.056  1.00  0.00     0.128 C 
HETATM   15  C   UNL     1      45.769 -11.241   6.807  1.00  0.00     0.039 C 
HETATM   16  C   UNL     1      44.585 -12.167   6.682  1.00  0.00     0.123 C 
HETATM   17  H   UNL     1      43.223  -6.663   8.386  1.00  0.00     0.130 HD
ENDROOT
BRANCH   1  18
HETATM   18  C   UNL     1      43.668  -8.617  10.176  1.00  0.00    -0.021 A 
HETATM   19  C   UNL     1      43.684  -9.843  10.861  1.00  0.00     0.011 A 
HETATM   20  C   UNL     1      43.183  -9.948  12.163  1.00  0.00     0.007 A 
HETATM   21  C   UNL     1      42.651  -8.832  12.813  1.00  0.00    -0.059 A 
HETATM   22  C   UNL     1      42.650  -7.600  12.151  1.00  0.00     0.007 A 
HETATM   23  C   UNL     1      43.152  -7.495  10.852  1.00  0.00     0.011 A 
BRANCH  21  24
HETATM   24  C   UNL     1      42.106  -8.948  14.215  1.00  0.00     0.034 C 
HETATM   25  C   UNL     1      42.151  -7.620  14.953  1.00  0.00     0.010 C 
ENDBRANCH  21  24
ENDBRANCH   1  18
TORSDOF 2
ENDMDL
