MODEL 1
REMARK VINA RESULT:      -8.6      0.000      0.000
REMARK  3 active torsions:
REMARK  status: ('A' for Active; 'I' for Inactive)
REMARK    1  A    between atoms: O_2  and  C_3 
REMARK    2  A    between atoms: C_9  and  C_10 
REMARK       I    between atoms: C_10  and  N_11 
REMARK    3  A    between atoms: N_11  and  C_12 
ROOT
HETATM    1  C   UNL     1      42.687 -16.902   2.656  1.00  0.00     0.068 A 
HETATM    2  C   UNL     1      42.885 -16.738   4.029  1.00  0.00     0.044 A 
HETATM    3  C   UNL     1      43.063 -15.461   4.579  1.00  0.00    -0.043 A 
HETATM    4  C   UNL     1      43.017 -14.328   3.734  1.00  0.00    -0.001 A 
HETATM    5  C   UNL     1      43.221 -13.039   4.371  1.00  0.00     0.069 A 
HETATM    6  C   UNL     1      43.661 -12.876   5.665  1.00  0.00     0.007 A 
HETATM    7  C   UNL     1      43.748 -11.479   5.870  1.00  0.00     0.153 A 
HETATM    8  N   UNL     1      43.348 -10.807   4.764  1.00  0.00    -0.168 NA
HETATM    9  N   UNL     1      43.037 -11.783   3.881  1.00  0.00    -0.276 N 
HETATM   10  H   UNL     1      42.704 -11.513   2.962  1.00  0.00     0.189 HD
HETATM   11  C   UNL     1      43.984 -14.038   6.535  1.00  0.00     0.048 C 
HETATM   12  C   UNL     1      43.204 -15.297   6.089  1.00  0.00     0.044 C 
HETATM   13  C   UNL     1      42.824 -14.495   2.362  1.00  0.00     0.017 A 
HETATM   14  C   UNL     1      42.661 -15.779   1.826  1.00  0.00     0.037 A 
ENDROOT
BRANCH   7  15
HETATM   15  C   UNL     1      44.234 -10.778   7.074  1.00  0.00     0.277 C 
HETATM   16  N   UNL     1      43.220 -10.555   7.989  1.00  0.00    -0.320 N 
HETATM   17  H   UNL     1      42.299 -10.692   7.578  1.00  0.00     0.169 HD
HETATM   18  O   UNL     1      45.389 -10.380   7.164  1.00  0.00    -0.266 OA
BRANCH  16  19
HETATM   19  C   UNL     1      43.330  -9.826   9.191  1.00  0.00     0.057 A 
HETATM   20  C   UNL     1      43.041  -8.456   9.354  1.00  0.00     0.063 A 
HETATM   21 CL   UNL     1      42.794  -7.367   8.032  1.00  0.00    -0.082 Cl
HETATM   22  C   UNL     1      43.112  -7.869  10.622  1.00  0.00     0.068 A 
HETATM   23  C   UNL     1      43.508  -8.628  11.713  1.00  0.00     0.118 A 
HETATM   24  F   UNL     1      43.578  -8.059  12.923  1.00  0.00    -0.206 F 
HETATM   25  C   UNL     1      43.864  -9.961  11.563  1.00  0.00     0.044 A 
HETATM   26  C   UNL     1      43.787 -10.555  10.302  1.00  0.00     0.034 A 
ENDBRANCH  16  19
ENDBRANCH   7  15
BRANCH   1  27
HETATM   27  O   UNL     1      42.534 -18.201   2.258  1.00  0.00    -0.356 OA
HETATM   28  C   UNL     1      43.568 -19.111   2.609  1.00  0.00     0.210 C 
ENDBRANCH   1  27
TORSDOF 3
ENDMDL
MODEL 2
REMARK VINA RESULT:      -8.5      6.820      9.225
REMARK  3 active torsions:
REMARK  status: ('A' for Active; 'I' for Inactive)
REMARK    1  A    between atoms: O_2  and  C_3 
REMARK    2  A    between atoms: C_9  and  C_10 
REMARK       I    between atoms: C_10  and  N_11 
REMARK    3  A    between atoms: N_11  and  C_12 
ROOT
HETATM    1  C   UNL     1      39.970 -10.775  -2.530  1.00  0.00     0.068 A 
HETATM    2  C   UNL     1      39.533 -12.064  -2.215  1.00  0.00     0.044 A 
HETATM    3  C   UNL     1      39.984 -12.710  -1.056  1.00  0.00    -0.043 A 
HETATM    4  C   UNL     1      40.871 -12.036  -0.186  1.00  0.00    -0.001 A 
HETATM    5  C   UNL     1      41.305 -12.770   0.990  1.00  0.00     0.069 A 
HETATM    6  C   UNL     1      41.086 -14.114   1.187  1.00  0.00     0.007 A 
HETATM    7  C   UNL     1      41.690 -14.426   2.429  1.00  0.00     0.153 A 
HETATM    8  N   UNL     1      42.228 -13.317   2.991  1.00  0.00    -0.168 NA
HETATM    9  N   UNL     1      41.975 -12.337   2.093  1.00  0.00    -0.276 N 
HETATM   10  H   UNL     1      42.290 -11.397   2.304  1.00  0.00     0.189 HD
HETATM   11  C   UNL     1      40.381 -14.950   0.178  1.00  0.00     0.048 C 
HETATM   12  C   UNL     1      39.438 -14.087  -0.691  1.00  0.00     0.044 C 
HETATM   13  C   UNL     1      41.310 -10.750  -0.504  1.00  0.00     0.017 A 
HETATM   14  C   UNL     1      40.862 -10.123  -1.674  1.00  0.00     0.037 A 
ENDROOT
BRANCH   7  15
HETATM   15  C   UNL     1      41.794 -15.751   3.067  1.00  0.00     0.277 C 
HETATM   16  N   UNL     1      42.977 -16.392   2.742  1.00  0.00    -0.320 N 
HETATM   17  H   UNL     1      43.441 -15.954   1.949  1.00  0.00     0.169 HD
HETATM   18  O   UNL     1      40.875 -16.221   3.726  1.00  0.00    -0.266 OA
BRANCH  16  19
HETATM   19  C   UNL     1      43.337 -17.706   3.105  1.00  0.00     0.057 A 
HETATM   20  C   UNL     1      43.916 -18.093   4.330  1.00  0.00     0.063 A 
HETATM   21 CL   UNL     1      44.566 -16.973   5.478  1.00  0.00    -0.082 Cl
HETATM   22  C   UNL     1      44.151 -19.446   4.600  1.00  0.00     0.068 A 
HETATM   23  C   UNL     1      43.851 -20.403   3.642  1.00  0.00     0.118 A 
HETATM   24  F   UNL     1      44.081 -21.696   3.904  1.00  0.00    -0.206 F 
HETATM   25  C   UNL     1      43.345 -20.038   2.403  1.00  0.00     0.044 A 
HETATM   26  C   UNL     1      43.101 -18.690   2.130  1.00  0.00     0.034 A 
ENDBRANCH  16  19
ENDBRANCH   7  15
BRANCH   1  27
HETATM   27  O   UNL     1      39.455 -10.271  -3.692  1.00  0.00    -0.356 OA
HETATM   28  C   UNL     1      38.253  -9.518  -3.594  1.00  0.00     0.210 C 
ENDBRANCH   1  27
TORSDOF 3
ENDMDL
MODEL 3
REMARK VINA RESULT:      -8.5      6.641      8.615
REMARK  3 active torsions:
REMARK  status: ('A' for Active; 'I' for Inactive)
REMARK    1  A    between atoms: O_2  and  C_3 
REMARK    2  A    between atoms: C_9  and  C_10 
REMARK       I    between atoms: C_10  and  N_11 
REMARK    3  A    between atoms: N_11  and  C_12 
ROOT
HETATM    1  C   UNL     1      43.946 -18.664   4.622  1.00  0.00     0.068 A 
HETATM    2  C   UNL     1      43.814 -18.258   3.292  1.00  0.00     0.044 A 
HETATM    3  C   UNL     1      43.270 -17.006   2.975  1.00  0.00    -0.043 A 
HETATM    4  C   UNL     1      42.874 -16.137   4.018  1.00  0.00    -0.001 A 
HETATM    5  C   UNL     1      42.308 -14.861   3.617  1.00  0.00     0.069 A 
HETATM    6  C   UNL     1      41.944 -14.548   2.327  1.00  0.00     0.007 A 
HETATM    7  C   UNL     1      41.418 -13.235   2.382  1.00  0.00     0.153 A 
HETATM    8  N   UNL     1      41.485 -12.745   3.643  1.00  0.00    -0.168 NA
HETATM    9  N   UNL     1      42.029 -13.756   4.360  1.00  0.00    -0.276 N 
HETATM   10  H   UNL     1      42.181 -13.615   5.353  1.00  0.00     0.189 HD
HETATM   11  C   UNL     1      42.091 -15.522   1.213  1.00  0.00     0.048 C 
HETATM   12  C   UNL     1      43.204 -16.551   1.521  1.00  0.00     0.044 C 
HETATM   13  C   UNL     1      43.001 -16.546   5.347  1.00  0.00     0.017 A 
HETATM   14  C   UNL     1      43.534 -17.807   5.646  1.00  0.00     0.037 A 
ENDROOT
BRANCH   7  15
HETATM   15  C   UNL     1      40.826 -12.459   1.276  1.00  0.00     0.277 C 
HETATM   16  N   UNL     1      39.651 -13.026   0.816  1.00  0.00    -0.320 N 
HETATM   17  H   UNL     1      39.534 -13.981   1.147  1.00  0.00     0.169 HD
HETATM   18  O   UNL     1      41.395 -11.486   0.798  1.00  0.00    -0.266 OA
BRANCH  16  19
HETATM   19  C   UNL     1      38.895 -12.589  -0.292  1.00  0.00     0.057 A 
HETATM   20  C   UNL     1      38.957 -13.123  -1.595  1.00  0.00     0.063 A 
HETATM   21 CL   UNL     1      40.199 -14.205  -2.127  1.00  0.00    -0.082 Cl
HETATM   22  C   UNL     1      38.091 -12.653  -2.589  1.00  0.00     0.068 A 
HETATM   23  C   UNL     1      37.199 -11.631  -2.300  1.00  0.00     0.118 A 
HETATM   24  F   UNL     1      36.375 -11.183  -3.256  1.00  0.00    -0.206 F 
HETATM   25  C   UNL     1      37.169 -11.045  -1.043  1.00  0.00     0.044 A 
HETATM   26  C   UNL     1      38.024 -11.514  -0.044  1.00  0.00     0.034 A 
ENDBRANCH  16  19
ENDBRANCH   7  15
BRANCH   1  27
HETATM   27  O   UNL     1      44.485 -19.910   4.783  1.00  0.00    -0.356 OA
HETATM   28  C   UNL     1      43.949 -20.955   3.982  1.00  0.00     0.210 C 
ENDBRANCH   1  27
TORSDOF 3
ENDMDL
MODEL 4
REMARK VINA RESULT:      -8.4      4.198      8.847
REMARK  3 active torsions:
REMARK  status: ('A' for Active; 'I' for Inactive)
REMARK    1  A    between atoms: O_2  and  C_3 
REMARK    2  A    between atoms: C_9  and  C_10 
REMARK       I    between atoms: C_10  and  N_11 
REMARK    3  A    between atoms: N_11  and  C_12 
ROOT
HETATM    1  C   UNL     1      43.475  -9.112   9.780  1.00  0.00     0.068 A 
HETATM    2  C   UNL     1      44.370  -9.988   9.160  1.00  0.00     0.044 A 
HETATM    3  C   UNL     1      44.007 -10.676   7.994  1.00  0.00    -0.043 A 
HETATM    4  C   UNL     1      42.729 -10.459   7.428  1.00  0.00    -0.001 A 
HETATM    5  C   UNL     1      42.418 -11.214   6.227  1.00  0.00     0.069 A 
HETATM    6  C   UNL     1      43.180 -12.255   5.748  1.00  0.00     0.007 A 
HETATM    7  C   UNL     1      42.512 -12.722   4.591  1.00  0.00     0.153 A 
HETATM    8  N   UNL     1      41.405 -11.981   4.346  1.00  0.00    -0.168 NA
HETATM    9  N   UNL     1      41.382 -11.080   5.354  1.00  0.00    -0.276 N 
HETATM   10  H   UNL     1      40.628 -10.403   5.379  1.00  0.00     0.189 HD
HETATM   11  C   UNL     1      44.409 -12.713   6.449  1.00  0.00     0.048 C 
HETATM   12  C   UNL     1      45.023 -11.571   7.292  1.00  0.00     0.044 C 
HETATM   13  C   UNL     1      41.835  -9.586   8.051  1.00  0.00     0.017 A 
HETATM   14  C   UNL     1      42.208  -8.917   9.224  1.00  0.00     0.037 A 
ENDROOT
BRANCH   7  15
HETATM   15  C   UNL     1      42.884 -13.870   3.743  1.00  0.00     0.277 C 
HETATM   16  N   UNL     1      42.594 -15.079   4.352  1.00  0.00    -0.320 N 
HETATM   17  H   UNL     1      42.407 -14.969   5.346  1.00  0.00     0.169 HD
HETATM   18  O   UNL     1      43.462 -13.719   2.674  1.00  0.00    -0.266 OA
BRANCH  16  19
HETATM   19  C   UNL     1      42.915 -16.358   3.853  1.00  0.00     0.057 A 
HETATM   20  C   UNL     1      42.356 -16.962   2.709  1.00  0.00     0.063 A 
HETATM   21 CL   UNL     1      40.954 -16.355   1.896  1.00  0.00    -0.082 Cl
HETATM   22  C   UNL     1      42.823 -18.206   2.271  1.00  0.00     0.068 A 
HETATM   23  C   UNL     1      43.809 -18.865   2.991  1.00  0.00     0.118 A 
HETATM   24  F   UNL     1      44.249 -20.058   2.569  1.00  0.00    -0.206 F 
HETATM   25  C   UNL     1      44.324 -18.321   4.158  1.00  0.00     0.044 A 
HETATM   26  C   UNL     1      43.869 -17.076   4.596  1.00  0.00     0.034 A 
ENDBRANCH  16  19
ENDBRANCH   7  15
BRANCH   1  27
HETATM   27  O   UNL     1      43.959  -8.516  10.911  1.00  0.00    -0.356 OA
HETATM   28  C   UNL     1      43.192  -8.664  12.098  1.00  0.00     0.210 C 
ENDBRANCH   1  27
TORSDOF 3
ENDMDL
MODEL 5
REMARK VINA RESULT:      -8.3      6.832      8.593
REMARK  3 active torsions:
REMARK  status: ('A' for Active; 'I' for Inactive)
REMARK    1  A    between atoms: O_2  and  C_3 
REMARK    2  A    between atoms: C_9  and  C_10 
REMARK       I    between atoms: C_10  and  N_11 
REMARK    3  A    between atoms: N_11  and  C_12 
ROOT
HETATM    1  C   UNL     1      43.949 -18.642   4.715  1.00  0.00     0.068 A 
HETATM    2  C   UNL     1      43.921 -18.175   3.399  1.00  0.00     0.044 A 
HETATM    3  C   UNL     1      43.203 -17.020   3.064  1.00  0.00    -0.043 A 
HETATM    4  C   UNL     1      42.521 -16.307   4.078  1.00  0.00    -0.001 A 
HETATM    5  C   UNL     1      41.790 -15.125   3.656  1.00  0.00     0.069 A 
HETATM    6  C   UNL     1      41.546 -14.793   2.343  1.00  0.00     0.007 A 
HETATM    7  C   UNL     1      40.787 -13.600   2.381  1.00  0.00     0.153 A 
HETATM    8  N   UNL     1      40.598 -13.193   3.659  1.00  0.00    -0.168 NA
HETATM    9  N   UNL     1      41.218 -14.139   4.400  1.00  0.00    -0.276 N 
HETATM   10  H   UNL     1      41.211 -14.043   5.410  1.00  0.00     0.189 HD
HETATM   11  C   UNL     1      42.013 -15.649   1.219  1.00  0.00     0.048 C 
HETATM   12  C   UNL     1      43.245 -16.485   1.636  1.00  0.00     0.044 C 
HETATM   13  C   UNL     1      42.547 -16.777   5.392  1.00  0.00     0.017 A 
HETATM   14  C   UNL     1      43.257 -17.943   5.708  1.00  0.00     0.037 A 
ENDROOT
BRANCH   7  15
HETATM   15  C   UNL     1      40.212 -12.866   1.237  1.00  0.00     0.277 C 
HETATM   16  N   UNL     1      41.136 -12.683   0.223  1.00  0.00    -0.320 N 
HETATM   17  H   UNL     1      42.086 -12.866   0.536  1.00  0.00     0.169 HD
HETATM   18  O   UNL     1      39.074 -12.415   1.270  1.00  0.00    -0.266 OA
BRANCH  16  19
HETATM   19  C   UNL     1      40.936 -11.938  -0.958  1.00  0.00     0.057 A 
HETATM   20  C   UNL     1      40.407 -12.434  -2.166  1.00  0.00     0.063 A 
HETATM   21 CL   UNL     1      40.199 -14.120  -2.499  1.00  0.00    -0.082 Cl
HETATM   22  C   UNL     1      40.181 -11.569  -3.243  1.00  0.00     0.068 A 
HETATM   23  C   UNL     1      40.518 -10.228  -3.132  1.00  0.00     0.118 A 
HETATM   24  F   UNL     1      40.303  -9.406  -4.167  1.00  0.00    -0.206 F 
HETATM   25  C   UNL     1      41.104  -9.733  -1.977  1.00  0.00     0.044 A 
HETATM   26  C   UNL     1      41.324 -10.589  -0.896  1.00  0.00     0.034 A 
ENDBRANCH  16  19
ENDBRANCH   7  15
BRANCH   1  27
HETATM   27  O   UNL     1      44.681 -19.782   4.896  1.00  0.00    -0.356 OA
HETATM   28  C   UNL     1      43.971 -20.955   5.271  1.00  0.00     0.210 C 
ENDBRANCH   1  27
TORSDOF 3
ENDMDL
MODEL 6
REMARK VINA RESULT:      -8.2      4.452      9.003
REMARK  3 active torsions:
REMARK  status: ('A' for Active; 'I' for Inactive)
REMARK    1  A    between atoms: O_2  and  C_3 
REMARK    2  A    between atoms: C_9  and  C_10 
REMARK       I    between atoms: C_10  and  N_11 
REMARK    3  A    between atoms: N_11  and  C_12 
ROOT
HETATM    1  C   UNL     1      43.397  -8.459   7.929  1.00  0.00     0.068 A 
HETATM    2  C   UNL     1      44.100  -9.662   7.823  1.00  0.00     0.044 A 
HETATM    3  C   UNL     1      43.548 -10.757   7.145  1.00  0.00    -0.043 A 
HETATM    4  C   UNL     1      42.275 -10.630   6.541  1.00  0.00    -0.001 A 
HETATM    5  C   UNL     1      41.761 -11.808   5.865  1.00  0.00     0.069 A 
HETATM    6  C   UNL     1      42.320 -13.062   5.963  1.00  0.00     0.007 A 
HETATM    7  C   UNL     1      41.501 -13.912   5.182  1.00  0.00     0.153 A 
HETATM    8  N   UNL     1      40.500 -13.209   4.600  1.00  0.00    -0.168 NA
HETATM    9  N   UNL     1      40.690 -11.943   5.036  1.00  0.00    -0.276 N 
HETATM   10  H   UNL     1      40.049 -11.223   4.722  1.00  0.00     0.189 HD
HETATM   11  C   UNL     1      43.520 -13.322   6.802  1.00  0.00     0.048 C 
HETATM   12  C   UNL     1      44.361 -12.036   6.977  1.00  0.00     0.044 C 
HETATM   13  C   UNL     1      41.573  -9.429   6.652  1.00  0.00     0.017 A 
HETATM   14  C   UNL     1      42.132  -8.348   7.346  1.00  0.00     0.037 A 
ENDROOT
BRANCH   7  15
HETATM   15  C   UNL     1      41.630 -15.371   5.010  1.00  0.00     0.277 C 
HETATM   16  N   UNL     1      42.802 -15.714   4.358  1.00  0.00    -0.320 N 
HETATM   17  H   UNL     1      43.237 -14.912   3.910  1.00  0.00     0.169 HD
HETATM   18  O   UNL     1      40.735 -16.139   5.341  1.00  0.00    -0.266 OA
BRANCH  16  19
HETATM   19  C   UNL     1      43.177 -17.012   3.952  1.00  0.00     0.057 A 
HETATM   20  C   UNL     1      43.641 -18.039   4.798  1.00  0.00     0.063 A 
HETATM   21 CL   UNL     1      44.120 -17.781   6.441  1.00  0.00    -0.082 Cl
HETATM   22  C   UNL     1      43.903 -19.312   4.280  1.00  0.00     0.068 A 
HETATM   23  C   UNL     1      43.744 -19.550   2.923  1.00  0.00     0.118 A 
HETATM   24  F   UNL     1      44.000 -20.770   2.432  1.00  0.00    -0.206 F 
HETATM   25  C   UNL     1      43.355 -18.535   2.061  1.00  0.00     0.044 A 
HETATM   26  C   UNL     1      43.084 -17.265   2.573  1.00  0.00     0.034 A 
ENDBRANCH  16  19
ENDBRANCH   7  15
BRANCH   1  27
HETATM   27  O   UNL     1      44.052  -7.480   8.622  1.00  0.00    -0.356 OA
HETATM   28  C   UNL     1      43.252  -6.555   9.347  1.00  0.00     0.210 C 
ENDBRANCH   1  27
TORSDOF 3
ENDMDL
MODEL 7
REMARK VINA RESULT:      -8.1      3.893      9.935
REMARK  3 active torsions:
REMARK  status: ('A' for Active; 'I' for Inactive)
REMARK    1  A    between atoms: O_2  and  C_3 
REMARK    2  A    between atoms: C_9  and  C_10 
REMARK       I    between atoms: C_10  and  N_11 
REMARK    3  A    between atoms: N_11  and  C_12 
ROOT
HETATM    1  C   UNL     1      42.244  -5.489  13.182  1.00  0.00     0.068 A 
HETATM    2  C   UNL     1      42.170  -5.613  11.793  1.00  0.00     0.044 A 
HETATM    3  C   UNL     1      42.553  -6.801  11.158  1.00  0.00    -0.043 A 
HETATM    4  C   UNL     1      42.996  -7.894  11.938  1.00  0.00    -0.001 A 
HETATM    5  C   UNL     1      43.387  -9.090  11.213  1.00  0.00     0.069 A 
HETATM    6  C   UNL     1      43.557  -9.146   9.848  1.00  0.00     0.007 A 
HETATM    7  C   UNL     1      43.963 -10.471   9.564  1.00  0.00     0.153 A 
HETATM    8  N   UNL     1      44.010 -11.212  10.697  1.00  0.00    -0.168 NA
HETATM    9  N   UNL     1      43.655 -10.343  11.672  1.00  0.00    -0.276 N 
HETATM   10  H   UNL     1      43.616 -10.680  12.627  1.00  0.00     0.189 HD
HETATM   11  C   UNL     1      43.361  -7.951   8.984  1.00  0.00     0.048 C 
HETATM   12  C   UNL     1      42.395  -6.942   9.647  1.00  0.00     0.044 C 
HETATM   13  C   UNL     1      43.074  -7.768  13.326  1.00  0.00     0.017 A 
HETATM   14  C   UNL     1      42.701  -6.567  13.945  1.00  0.00     0.037 A 
ENDROOT
BRANCH   7  15
HETATM   15  C   UNL     1      44.338 -11.032   8.252  1.00  0.00     0.277 C 
HETATM   16  N   UNL     1      43.229 -11.316   7.473  1.00  0.00    -0.320 N 
HETATM   17  H   UNL     1      42.371 -11.317   8.020  1.00  0.00     0.169 HD
HETATM   18  O   UNL     1      45.503 -11.282   7.970  1.00  0.00    -0.266 OA
BRANCH  16  19
HETATM   19  C   UNL     1      43.239 -11.950   6.214  1.00  0.00     0.057 A 
HETATM   20  C   UNL     1      43.028 -13.324   5.980  1.00  0.00     0.063 A 
HETATM   21 CL   UNL     1      43.026 -14.518   7.234  1.00  0.00    -0.082 Cl
HETATM   22  C   UNL     1      42.980 -13.816   4.671  1.00  0.00     0.068 A 
HETATM   23  C   UNL     1      43.183 -12.954   3.603  1.00  0.00     0.118 A 
HETATM   24  F   UNL     1      43.139 -13.431   2.352  1.00  0.00    -0.206 F 
HETATM   25  C   UNL     1      43.460 -11.611   3.813  1.00  0.00     0.044 A 
HETATM   26  C   UNL     1      43.501 -11.113   5.116  1.00  0.00     0.034 A 
ENDBRANCH  16  19
ENDBRANCH   7  15
BRANCH   1  27
HETATM   27  O   UNL     1      41.846  -4.274  13.665  1.00  0.00    -0.356 OA
HETATM   28  C   UNL     1      42.458  -3.121  13.101  1.00  0.00     0.210 C 
ENDBRANCH   1  27
TORSDOF 3
ENDMDL
MODEL 8
REMARK VINA RESULT:      -7.9      3.926      8.842
REMARK  3 active torsions:
REMARK  status: ('A' for Active; 'I' for Inactive)
REMARK    1  A    between atoms: O_2  and  C_3 
REMARK    2  A    between atoms: C_9  and  C_10 
REMARK       I    between atoms: C_10  and  N_11 
REMARK    3  A    between atoms: N_11  and  C_12 
ROOT
HETATM    1  C   UNL     1      43.495  -8.527  11.235  1.00  0.00     0.068 A 
HETATM    2  C   UNL     1      44.365  -9.406  10.586  1.00  0.00     0.044 A 
HETATM    3  C   UNL     1      44.125  -9.807   9.265  1.00  0.00    -0.043 A 
HETATM    4  C   UNL     1      43.001  -9.294   8.577  1.00  0.00    -0.001 A 
HETATM    5  C   UNL     1      42.808  -9.762   7.216  1.00  0.00     0.069 A 
HETATM    6  C   UNL     1      43.505 -10.806   6.650  1.00  0.00     0.007 A 
HETATM    7  C   UNL     1      42.993 -10.946   5.339  1.00  0.00     0.153 A 
HETATM    8  N   UNL     1      42.047 -10.009   5.091  1.00  0.00    -0.168 NA
HETATM    9  N   UNL     1      41.963  -9.312   6.248  1.00  0.00    -0.276 N 
HETATM   10  H   UNL     1      41.307  -8.541   6.301  1.00  0.00     0.189 HD
HETATM   11  C   UNL     1      44.528 -11.570   7.413  1.00  0.00     0.048 C 
HETATM   12  C   UNL     1      45.126 -10.709   8.550  1.00  0.00     0.044 C 
HETATM   13  C   UNL     1      42.130  -8.420   9.228  1.00  0.00     0.017 A 
HETATM   14  C   UNL     1      42.376  -8.039  10.554  1.00  0.00     0.037 A 
ENDROOT
BRANCH   7  15
HETATM   15  C   UNL     1      43.358 -11.967   4.338  1.00  0.00     0.277 C 
HETATM   16  N   UNL     1      42.561 -13.094   4.433  1.00  0.00    -0.320 N 
HETATM   17  H   UNL     1      42.041 -13.120   5.307  1.00  0.00     0.169 HD
HETATM   18  O   UNL     1      44.320 -11.821   3.594  1.00  0.00    -0.266 OA
BRANCH  16  19
HETATM   19  C   UNL     1      42.714 -14.285   3.693  1.00  0.00     0.057 A 
HETATM   20  C   UNL     1      42.513 -14.424   2.305  1.00  0.00     0.063 A 
HETATM   21 CL   UNL     1      41.746 -13.222   1.324  1.00  0.00    -0.082 Cl
HETATM   22  C   UNL     1      42.780 -15.645   1.675  1.00  0.00     0.068 A 
HETATM   23  C   UNL     1      43.203 -16.731   2.427  1.00  0.00     0.118 A 
HETATM   24  F   UNL     1      43.453 -17.898   1.819  1.00  0.00    -0.206 F 
HETATM   25  C   UNL     1      43.340 -16.635   3.804  1.00  0.00     0.044 A 
HETATM   26  C   UNL     1      43.084 -15.417   4.437  1.00  0.00     0.034 A 
ENDBRANCH  16  19
ENDBRANCH   7  15
BRANCH   1  27
HETATM   27  O   UNL     1      43.847  -8.228  12.522  1.00  0.00    -0.356 OA
HETATM   28  C   UNL     1      42.791  -7.990  13.443  1.00  0.00     0.210 C 
ENDBRANCH   1  27
TORSDOF 3
ENDMDL
MODEL 9
REMARK VINA RESULT:      -7.6      3.717      9.183
REMARK  3 active torsions:
REMARK  status: ('A' for Active; 'I' for Inactive)
REMARK    1  A    between atoms: O_2  and  C_3 
REMARK    2  A    between atoms: C_9  and  C_10 
REMARK       I    between atoms: C_10  and  N_11 
REMARK    3  A    between atoms: N_11  and  C_12 
ROOT
HETATM    1  C   UNL     1      42.419  -6.830  12.681  1.00  0.00     0.068 A 
HETATM    2  C   UNL     1      43.288  -7.920  12.583  1.00  0.00     0.044 A 
HETATM    3  C   UNL     1      43.421  -8.624  11.378  1.00  0.00    -0.043 A 
HETATM    4  C   UNL     1      42.685  -8.207  10.245  1.00  0.00    -0.001 A 
HETATM    5  C   UNL     1      42.864  -8.990   9.035  1.00  0.00     0.069 A 
HETATM    6  C   UNL     1      43.515 -10.202   8.986  1.00  0.00     0.007 A 
HETATM    7  C   UNL     1      43.437 -10.628   7.639  1.00  0.00     0.153 A 
HETATM    8  N   UNL     1      42.796  -9.706   6.882  1.00  0.00    -0.168 NA
HETATM    9  N   UNL     1      42.465  -8.731   7.760  1.00  0.00    -0.276 N 
HETATM   10  H   UNL     1      41.969  -7.918   7.413  1.00  0.00     0.189 HD
HETATM   11  C   UNL     1      44.091 -10.831  10.205  1.00  0.00     0.048 C 
HETATM   12  C   UNL     1      44.429  -9.763  11.271  1.00  0.00     0.044 C 
HETATM   13  C   UNL     1      41.813  -7.121  10.346  1.00  0.00     0.017 A 
HETATM   14  C   UNL     1      41.681  -6.437  11.562  1.00  0.00     0.037 A 
ENDROOT
BRANCH   7  15
HETATM   15  C   UNL     1      43.924 -11.899   7.072  1.00  0.00     0.277 C 
HETATM   16  N   UNL     1      42.949 -12.881   7.085  1.00  0.00    -0.320 N 
HETATM   17  H   UNL     1      42.168 -12.633   7.689  1.00  0.00     0.169 HD
HETATM   18  O   UNL     1      45.091 -12.043   6.727  1.00  0.00    -0.266 OA
BRANCH  16  19
HETATM   19  C   UNL     1      43.121 -14.229   6.708  1.00  0.00     0.057 A 
HETATM   20  C   UNL     1      43.201 -14.712   5.387  1.00  0.00     0.063 A 
HETATM   21 CL   UNL     1      42.793 -13.765   3.996  1.00  0.00    -0.082 Cl
HETATM   22  C   UNL     1      43.457 -16.066   5.147  1.00  0.00     0.068 A 
HETATM   23  C   UNL     1      43.590 -16.942   6.215  1.00  0.00     0.118 A 
HETATM   24  F   UNL     1      43.831 -18.238   5.980  1.00  0.00    -0.206 F 
HETATM   25  C   UNL     1      43.446 -16.501   7.522  1.00  0.00     0.044 A 
HETATM   26  C   UNL     1      43.199 -15.148   7.768  1.00  0.00     0.034 A 
ENDBRANCH  16  19
ENDBRANCH   7  15
BRANCH   1  27
HETATM   27  O   UNL     1      42.385  -6.243  13.915  1.00  0.00    -0.356 OA
HETATM   28  C   UNL     1      41.268  -5.413  14.205  1.00  0.00     0.210 C 
ENDBRANCH   1  27
TORSDOF 3
ENDMDL
MODEL 10
REMARK VINA RESULT:      -7.6      3.701      9.451
REMARK  3 active torsions:
REMARK  status: ('A' for Active; 'I' for Inactive)
REMARK    1  A    between atoms: O_2  and  C_3 
REMARK    2  A    between atoms: C_9  and  C_10 
REMARK       I    between atoms: C_10  and  N_11 
REMARK    3  A    between atoms: N_11  and  C_12 
ROOT
HETATM    1  C   UNL     1      41.479  -6.985  13.277  1.00  0.00     0.068 A 
HETATM    2  C   UNL     1      40.922  -7.526  12.114  1.00  0.00     0.044 A 
HETATM    3  C   UNL     1      41.682  -8.349  11.272  1.00  0.00    -0.043 A 
HETATM    4  C   UNL     1      43.019  -8.653  11.620  1.00  0.00    -0.001 A 
HETATM    5  C   UNL     1      43.749  -9.503  10.695  1.00  0.00     0.069 A 
HETATM    6  C   UNL     1      43.305  -9.837   9.436  1.00  0.00     0.007 A 
HETATM    7  C   UNL     1      44.320 -10.645   8.871  1.00  0.00     0.153 A 
HETATM    8  N   UNL     1      45.331 -10.830   9.753  1.00  0.00    -0.168 NA
HETATM    9  N   UNL     1      44.950 -10.126  10.843  1.00  0.00    -0.276 N 
HETATM   10  H   UNL     1      45.562 -10.119  11.651  1.00  0.00     0.189 HD
HETATM   11  C   UNL     1      42.013  -9.330   8.901  1.00  0.00     0.048 C 
HETATM   12  C   UNL     1      41.035  -8.989  10.048  1.00  0.00     0.044 C 
HETATM   13  C   UNL     1      43.574  -8.109  12.779  1.00  0.00     0.017 A 
HETATM   14  C   UNL     1      42.806  -7.276  13.603  1.00  0.00     0.037 A 
ENDROOT
BRANCH   7  15
HETATM   15  C   UNL     1      44.363 -11.208   7.508  1.00  0.00     0.277 C 
HETATM   16  N   UNL     1      43.349 -12.126   7.295  1.00  0.00    -0.320 N 
HETATM   17  H   UNL     1      42.915 -12.423   8.166  1.00  0.00     0.169 HD
HETATM   18  O   UNL     1      45.264 -10.931   6.726  1.00  0.00    -0.266 OA
BRANCH  16  19
HETATM   19  C   UNL     1      43.171 -12.914   6.139  1.00  0.00     0.057 A 
HETATM   20  C   UNL     1      42.886 -12.430   4.847  1.00  0.00     0.063 A 
HETATM   21 CL   UNL     1      42.402 -10.800   4.521  1.00  0.00    -0.082 Cl
HETATM   22  C   UNL     1      42.815 -13.314   3.764  1.00  0.00     0.068 A 
HETATM   23  C   UNL     1      42.985 -14.675   3.973  1.00  0.00     0.118 A 
HETATM   24  F   UNL     1      42.912 -15.517   2.934  1.00  0.00    -0.206 F 
HETATM   25  C   UNL     1      43.197 -15.180   5.247  1.00  0.00     0.044 A 
HETATM   26  C   UNL     1      43.278 -14.302   6.330  1.00  0.00     0.034 A 
ENDBRANCH  16  19
ENDBRANCH   7  15
BRANCH   1  27
HETATM   27  O   UNL     1      40.626  -6.197  13.998  1.00  0.00    -0.356 OA
HETATM   28  C   UNL     1      41.097  -5.712  15.249  1.00  0.00     0.210 C 
ENDBRANCH   1  27
TORSDOF 3
ENDMDL
