MODEL 1
REMARK VINA RESULT:      -9.4      0.000      0.000
REMARK  4 active torsions:
REMARK  status: ('A' for Active; 'I' for Inactive)
REMARK    1  A    between atoms: C_3  and  C_4 
REMARK       I    between atoms: C_4  and  N_5 
REMARK    2  A    between atoms: N_5  and  N_6 
REMARK    3  A    between atoms: C_7  and  C_8 
REMARK    4  A    between atoms: C_23  and  C_24 
ROOT
HETATM    1  C   UNL     1      44.217 -11.344   7.807  1.00  0.00     0.290 C 
HETATM    2  N   UNL     1      43.337 -12.326   7.376  1.00  0.00    -0.242 N 
HETATM    3  O   UNL     1      45.389 -11.254   7.450  1.00  0.00    -0.264 OA
HETATM    4  H   UNL     1      42.403 -12.342   7.760  1.00  0.00     0.192 HD
ENDROOT
BRANCH   1   5
HETATM    5  C   UNL     1      43.653 -10.363   8.709  1.00  0.00     0.127 A 
HETATM    6  C   UNL     1      44.111  -9.640   9.808  1.00  0.00     0.003 A 
HETATM    7  C   UNL     1      45.477  -9.604  10.396  1.00  0.00     0.053 C 
HETATM    8  C   UNL     1      42.974  -8.876  10.245  1.00  0.00     0.095 A 
HETATM    9  N   UNL     1      41.933  -9.056   9.422  1.00  0.00    -0.173 NA
HETATM   10  N   UNL     1      42.374  -9.922   8.507  1.00  0.00    -0.272 N 
HETATM   11  H   UNL     1      41.750 -10.201   7.755  1.00  0.00     0.189 HD
BRANCH   8  12
HETATM   12  C   UNL     1      42.861  -7.974  11.392  1.00  0.00    -0.005 A 
HETATM   13  C   UNL     1      43.240  -8.387  12.677  1.00  0.00     0.014 A 
HETATM   14  C   UNL     1      43.128  -7.516  13.764  1.00  0.00     0.001 A 
HETATM   15  C   UNL     1      42.626  -6.228  13.578  1.00  0.00     0.000 A 
HETATM   16  C   UNL     1      42.232  -5.812  12.308  1.00  0.00     0.001 A 
HETATM   17  C   UNL     1      42.345  -6.682  11.221  1.00  0.00     0.014 A 
ENDBRANCH   8  12
ENDBRANCH   1   5
BRANCH   2  18
HETATM   18  N   UNL     1      43.624 -13.441   6.628  1.00  0.00    -0.183 NA
HETATM   19  C   UNL     1      42.703 -14.319   6.393  1.00  0.00     0.153 C 
BRANCH  19  20
HETATM   20  C   UNL     1      43.000 -15.469   5.552  1.00  0.00     0.018 A 
HETATM   21  C   UNL     1      43.019 -15.473   4.115  1.00  0.00     0.004 A 
HETATM   22  C   UNL     1      43.353 -16.762   3.703  1.00  0.00     0.043 A 
HETATM   23  C   UNL     1      42.783 -14.496   3.123  1.00  0.00     0.014 A 
HETATM   24  C   UNL     1      43.464 -17.127   2.356  1.00  0.00     0.030 A 
HETATM   25  N   UNL     1      43.531 -17.515   4.838  1.00  0.00    -0.358 N 
HETATM   26  C   UNL     1      43.224 -16.140   1.395  1.00  0.00     0.002 A 
HETATM   27  C   UNL     1      42.888 -14.843   1.771  1.00  0.00     0.001 A 
HETATM   28  H   UNL     1      43.784 -18.494   4.836  1.00  0.00     0.166 HD
HETATM   29  C   UNL     1      43.324 -16.756   5.963  1.00  0.00     0.018 A 
HETATM   30  C   UNL     1      43.466 -17.347   7.321  1.00  0.00     0.069 C 
ENDBRANCH  19  20
ENDBRANCH   2  18
TORSDOF 4
ENDMDL
MODEL 2
REMARK VINA RESULT:      -9.3      1.759      2.743
REMARK  4 active torsions:
REMARK  status: ('A' for Active; 'I' for Inactive)
REMARK    1  A    between atoms: C_3  and  C_4 
REMARK       I    between atoms: C_4  and  N_5 
REMARK    2  A    between atoms: N_5  and  N_6 
REMARK    3  A    between atoms: C_7  and  C_8 
REMARK    4  A    between atoms: C_23  and  C_24 
ROOT
HETATM    1  C   UNL     1      44.108 -10.663   8.218  1.00  0.00     0.290 C 
HETATM    2  N   UNL     1      43.313 -11.595   7.567  1.00  0.00    -0.242 N 
HETATM    3  O   UNL     1      45.056 -10.076   7.703  1.00  0.00    -0.264 OA
HETATM    4  H   UNL     1      42.582 -12.057   8.088  1.00  0.00     0.192 HD
ENDROOT
BRANCH   1   5
HETATM    5  C   UNL     1      43.729 -10.375   9.585  1.00  0.00     0.127 A 
HETATM    6  C   UNL     1      43.251  -9.263  10.273  1.00  0.00     0.003 A 
HETATM    7  C   UNL     1      42.882  -7.924   9.739  1.00  0.00     0.053 C 
HETATM    8  C   UNL     1      43.138  -9.697  11.639  1.00  0.00     0.095 A 
HETATM    9  N   UNL     1      43.440 -10.996  11.754  1.00  0.00    -0.173 NA
HETATM   10  N   UNL     1      43.761 -11.378  10.516  1.00  0.00    -0.272 N 
HETATM   11  H   UNL     1      44.015 -12.347  10.351  1.00  0.00     0.189 HD
BRANCH   8  12
HETATM   12  C   UNL     1      42.732  -8.926  12.815  1.00  0.00    -0.005 A 
HETATM   13  C   UNL     1      41.619  -9.305  13.579  1.00  0.00     0.014 A 
HETATM   14  C   UNL     1      41.243  -8.561  14.701  1.00  0.00     0.001 A 
HETATM   15  C   UNL     1      41.970  -7.428  15.064  1.00  0.00     0.000 A 
HETATM   16  C   UNL     1      43.070  -7.034  14.304  1.00  0.00     0.001 A 
HETATM   17  C   UNL     1      43.447  -7.777  13.183  1.00  0.00     0.014 A 
ENDBRANCH   8  12
ENDBRANCH   1   5
BRANCH   2  18
HETATM   18  N   UNL     1      43.511 -12.148   6.326  1.00  0.00    -0.183 NA
HETATM   19  C   UNL     1      42.615 -12.927   5.812  1.00  0.00     0.153 C 
BRANCH  19  20
HETATM   20  C   UNL     1      42.807 -13.463   4.473  1.00  0.00     0.018 A 
HETATM   21  C   UNL     1      42.952 -14.852   4.139  1.00  0.00     0.004 A 
HETATM   22  C   UNL     1      43.107 -14.939   2.756  1.00  0.00     0.043 A 
HETATM   23  C   UNL     1      42.964 -16.050   4.887  1.00  0.00     0.014 A 
HETATM   24  C   UNL     1      43.273 -16.155   2.083  1.00  0.00     0.030 A 
HETATM   25  N   UNL     1      43.059 -13.657   2.264  1.00  0.00    -0.358 N 
HETATM   26  C   UNL     1      43.282 -17.324   2.848  1.00  0.00     0.002 A 
HETATM   27  C   UNL     1      43.130 -17.275   4.231  1.00  0.00     0.001 A 
HETATM   28  H   UNL     1      43.143 -13.422   1.285  1.00  0.00     0.166 HD
HETATM   29  C   UNL     1      42.879 -12.752   3.280  1.00  0.00     0.018 A 
HETATM   30  C   UNL     1      42.787 -11.294   2.998  1.00  0.00     0.069 C 
ENDBRANCH  19  20
ENDBRANCH   2  18
TORSDOF 4
ENDMDL
MODEL 3
REMARK VINA RESULT:      -9.3      0.930      2.469
REMARK  4 active torsions:
REMARK  status: ('A' for Active; 'I' for Inactive)
REMARK    1  A    between atoms: C_3  and  C_4 
REMARK       I    between atoms: C_4  and  N_5 
REMARK    2  A    between atoms: N_5  and  N_6 
REMARK    3  A    between atoms: C_7  and  C_8 
REMARK    4  A    between atoms: C_23  and  C_24 
ROOT
HETATM    1  C   UNL     1      44.164 -11.469   7.560  1.00  0.00     0.290 C 
HETATM    2  N   UNL     1      43.292 -12.449   7.109  1.00  0.00    -0.242 N 
HETATM    3  O   UNL     1      45.334 -11.359   7.202  1.00  0.00    -0.264 OA
HETATM    4  H   UNL     1      42.359 -12.484   7.495  1.00  0.00     0.192 HD
ENDROOT
BRANCH   1   5
HETATM    5  C   UNL     1      43.594 -10.516   8.488  1.00  0.00     0.127 A 
HETATM    6  C   UNL     1      44.057  -9.793   9.583  1.00  0.00     0.003 A 
HETATM    7  C   UNL     1      45.436  -9.722  10.138  1.00  0.00     0.053 C 
HETATM    8  C   UNL     1      42.909  -9.068  10.058  1.00  0.00     0.095 A 
HETATM    9  N   UNL     1      41.854  -9.270   9.258  1.00  0.00    -0.173 NA
HETATM   10  N   UNL     1      42.297 -10.112   8.322  1.00  0.00    -0.272 N 
HETATM   11  H   UNL     1      41.663 -10.401   7.583  1.00  0.00     0.189 HD
BRANCH   8  12
HETATM   12  C   UNL     1      42.798  -8.184  11.219  1.00  0.00    -0.005 A 
HETATM   13  C   UNL     1      42.359  -6.860  11.079  1.00  0.00     0.014 A 
HETATM   14  C   UNL     1      42.255  -6.026  12.196  1.00  0.00     0.001 A 
HETATM   15  C   UNL     1      42.599  -6.505  13.459  1.00  0.00     0.000 A 
HETATM   16  C   UNL     1      43.051  -7.814  13.608  1.00  0.00     0.001 A 
HETATM   17  C   UNL     1      43.154  -8.649  12.492  1.00  0.00     0.014 A 
ENDBRANCH   8  12
ENDBRANCH   1   5
BRANCH   2  18
HETATM   18  N   UNL     1      43.587 -13.543   6.333  1.00  0.00    -0.183 NA
HETATM   19  C   UNL     1      42.675 -14.071   5.581  1.00  0.00     0.153 C 
BRANCH  19  20
HETATM   20  C   UNL     1      43.011 -15.193   4.719  1.00  0.00     0.018 A 
HETATM   21  C   UNL     1      43.268 -16.537   5.156  1.00  0.00     0.004 A 
HETATM   22  C   UNL     1      43.543 -17.303   4.024  1.00  0.00     0.043 A 
HETATM   23  C   UNL     1      43.290 -17.178   6.415  1.00  0.00     0.014 A 
HETATM   24  C   UNL     1      43.839 -18.669   4.081  1.00  0.00     0.030 A 
HETATM   25  N   UNL     1      43.458 -16.463   2.939  1.00  0.00    -0.358 N 
HETATM   26  C   UNL     1      43.856 -19.277   5.340  1.00  0.00     0.002 A 
HETATM   27  C   UNL     1      43.586 -18.544   6.492  1.00  0.00     0.001 A 
HETATM   28  H   UNL     1      43.609 -16.754   1.983  1.00  0.00     0.166 HD
HETATM   29  C   UNL     1      43.138 -15.188   3.335  1.00  0.00     0.018 A 
HETATM   30  C   UNL     1      42.981 -14.095   2.338  1.00  0.00     0.069 C 
ENDBRANCH  19  20
ENDBRANCH   2  18
TORSDOF 4
ENDMDL
MODEL 4
REMARK VINA RESULT:      -9.2      1.771      2.948
REMARK  4 active torsions:
REMARK  status: ('A' for Active; 'I' for Inactive)
REMARK    1  A    between atoms: C_3  and  C_4 
REMARK       I    between atoms: C_4  and  N_5 
REMARK    2  A    between atoms: N_5  and  N_6 
REMARK    3  A    between atoms: C_7  and  C_8 
REMARK    4  A    between atoms: C_23  and  C_24 
ROOT
HETATM    1  C   UNL     1      44.161 -11.611   5.948  1.00  0.00     0.290 C 
HETATM    2  N   UNL     1      43.312 -12.708   5.930  1.00  0.00    -0.242 N 
HETATM    3  O   UNL     1      44.839 -11.240   4.993  1.00  0.00    -0.264 OA
HETATM    4  H   UNL     1      42.827 -12.960   6.779  1.00  0.00     0.192 HD
ENDROOT
BRANCH   1   5
HETATM    5  C   UNL     1      44.184 -10.869   7.190  1.00  0.00     0.127 A 
HETATM    6  C   UNL     1      43.271 -10.106   7.911  1.00  0.00     0.003 A 
HETATM    7  C   UNL     1      41.831  -9.862   7.629  1.00  0.00     0.053 C 
HETATM    8  C   UNL     1      44.010  -9.624   9.047  1.00  0.00     0.095 A 
HETATM    9  N   UNL     1      45.251 -10.128   9.057  1.00  0.00    -0.173 NA
HETATM   10  N   UNL     1      45.317 -10.883   7.959  1.00  0.00    -0.272 N 
HETATM   11  H   UNL     1      46.176 -11.388   7.761  1.00  0.00     0.189 HD
BRANCH   8  12
HETATM   12  C   UNL     1      43.567  -8.731  10.119  1.00  0.00    -0.005 A 
HETATM   13  C   UNL     1      43.031  -7.469   9.833  1.00  0.00     0.014 A 
HETATM   14  C   UNL     1      42.610  -6.626  10.865  1.00  0.00     0.001 A 
HETATM   15  C   UNL     1      42.732  -7.035  12.193  1.00  0.00     0.000 A 
HETATM   16  C   UNL     1      43.277  -8.282  12.490  1.00  0.00     0.001 A 
HETATM   17  C   UNL     1      43.697  -9.125  11.458  1.00  0.00     0.014 A 
ENDBRANCH   8  12
ENDBRANCH   1   5
BRANCH   2  18
HETATM   18  N   UNL     1      43.184 -13.655   4.943  1.00  0.00    -0.183 NA
HETATM   19  C   UNL     1      42.320 -14.611   5.070  1.00  0.00     0.153 C 
BRANCH  19  20
HETATM   20  C   UNL     1      42.150 -15.577   3.995  1.00  0.00     0.018 A 
HETATM   21  C   UNL     1      42.901 -16.790   3.834  1.00  0.00     0.004 A 
HETATM   22  C   UNL     1      42.427 -17.430   2.689  1.00  0.00     0.043 A 
HETATM   23  C   UNL     1      43.944 -17.409   4.559  1.00  0.00     0.014 A 
HETATM   24  C   UNL     1      42.937 -18.650   2.231  1.00  0.00     0.030 A 
HETATM   25  N   UNL     1      41.428 -16.641   2.172  1.00  0.00    -0.358 N 
HETATM   26  C   UNL     1      43.969 -19.239   2.968  1.00  0.00     0.002 A 
HETATM   27  C   UNL     1      44.468 -18.629   4.115  1.00  0.00     0.001 A 
HETATM   28  H   UNL     1      40.903 -16.865   1.338  1.00  0.00     0.166 HD
HETATM   29  C   UNL     1      41.244 -15.520   2.943  1.00  0.00     0.018 A 
HETATM   30  C   UNL     1      40.210 -14.511   2.591  1.00  0.00     0.069 C 
ENDBRANCH  19  20
ENDBRANCH   2  18
TORSDOF 4
ENDMDL
MODEL 5
REMARK VINA RESULT:      -9.1      6.838     10.273
REMARK  4 active torsions:
REMARK  status: ('A' for Active; 'I' for Inactive)
REMARK    1  A    between atoms: C_3  and  C_4 
REMARK       I    between atoms: C_4  and  N_5 
REMARK    2  A    between atoms: N_5  and  N_6 
REMARK    3  A    between atoms: C_7  and  C_8 
REMARK    4  A    between atoms: C_23  and  C_24 
ROOT
HETATM    1  C   UNL     1      40.271 -14.824   0.667  1.00  0.00     0.290 C 
HETATM    2  N   UNL     1      41.243 -14.780   1.656  1.00  0.00    -0.242 N 
HETATM    3  O   UNL     1      39.596 -15.813   0.398  1.00  0.00    -0.264 OA
HETATM    4  H   UNL     1      41.777 -13.931   1.774  1.00  0.00     0.192 HD
ENDROOT
BRANCH   1   5
HETATM    5  C   UNL     1      40.055 -13.580  -0.041  1.00  0.00     0.127 A 
HETATM    6  C   UNL     1      40.040 -13.182  -1.375  1.00  0.00     0.003 A 
HETATM    7  C   UNL     1      40.183 -14.017  -2.598  1.00  0.00     0.053 C 
HETATM    8  C   UNL     1      39.803 -11.765  -1.334  1.00  0.00     0.095 A 
HETATM    9  N   UNL     1      39.603 -11.351  -0.075  1.00  0.00    -0.173 NA
HETATM   10  N   UNL     1      39.733 -12.453   0.666  1.00  0.00    -0.272 N 
HETATM   11  H   UNL     1      39.606 -12.386   1.671  1.00  0.00     0.189 HD
BRANCH   8  12
HETATM   12  C   UNL     1      39.737 -10.812  -2.443  1.00  0.00    -0.005 A 
HETATM   13  C   UNL     1      38.509 -10.447  -3.011  1.00  0.00     0.014 A 
HETATM   14  C   UNL     1      38.460  -9.536  -4.069  1.00  0.00     0.001 A 
HETATM   15  C   UNL     1      39.639  -8.989  -4.575  1.00  0.00     0.000 A 
HETATM   16  C   UNL     1      40.867  -9.356  -4.029  1.00  0.00     0.001 A 
HETATM   17  C   UNL     1      40.916 -10.266  -2.970  1.00  0.00     0.014 A 
ENDBRANCH   8  12
ENDBRANCH   1   5
BRANCH   2  18
HETATM   18  N   UNL     1      41.741 -15.828   2.391  1.00  0.00    -0.183 NA
HETATM   19  C   UNL     1      42.836 -15.684   3.066  1.00  0.00     0.153 C 
BRANCH  19  20
HETATM   20  C   UNL     1      43.326 -16.781   3.887  1.00  0.00     0.018 A 
HETATM   21  C   UNL     1      43.440 -18.151   3.473  1.00  0.00     0.004 A 
HETATM   22  C   UNL     1      43.955 -18.874   4.548  1.00  0.00     0.043 A 
HETATM   23  C   UNL     1      43.154 -18.847   2.278  1.00  0.00     0.014 A 
HETATM   24  C   UNL     1      44.199 -20.252   4.493  1.00  0.00     0.030 A 
HETATM   25  N   UNL     1      44.148 -17.984   5.577  1.00  0.00    -0.358 N 
HETATM   26  C   UNL     1      43.906 -20.915   3.298  1.00  0.00     0.002 A 
HETATM   27  C   UNL     1      43.390 -20.225   2.205  1.00  0.00     0.001 A 
HETATM   28  H   UNL     1      44.518 -18.237   6.483  1.00  0.00     0.166 HD
HETATM   29  C   UNL     1      43.776 -16.718   5.201  1.00  0.00     0.018 A 
HETATM   30  C   UNL     1      43.898 -15.573   6.143  1.00  0.00     0.069 C 
ENDBRANCH  19  20
ENDBRANCH   2  18
TORSDOF 4
ENDMDL
MODEL 6
REMARK VINA RESULT:      -8.9      2.363     10.449
REMARK  4 active torsions:
REMARK  status: ('A' for Active; 'I' for Inactive)
REMARK    1  A    between atoms: C_3  and  C_4 
REMARK       I    between atoms: C_4  and  N_5 
REMARK    2  A    between atoms: N_5  and  N_6 
REMARK    3  A    between atoms: C_7  and  C_8 
REMARK    4  A    between atoms: C_23  and  C_24 
ROOT
HETATM    1  C   UNL     1      41.929 -13.268   4.514  1.00  0.00     0.290 C 
HETATM    2  N   UNL     1      42.586 -12.815   5.648  1.00  0.00    -0.242 N 
HETATM    3  O   UNL     1      41.033 -12.657   3.937  1.00  0.00    -0.264 OA
HETATM    4  H   UNL     1      43.281 -13.409   6.076  1.00  0.00     0.192 HD
ENDROOT
BRANCH   1   5
HETATM    5  C   UNL     1      42.395 -14.537   3.996  1.00  0.00     0.127 A 
HETATM    6  C   UNL     1      42.282 -15.870   4.378  1.00  0.00     0.003 A 
HETATM    7  C   UNL     1      41.508 -16.455   5.507  1.00  0.00     0.053 C 
HETATM    8  C   UNL     1      43.050 -16.598   3.404  1.00  0.00     0.095 A 
HETATM    9  N   UNL     1      43.519 -15.777   2.456  1.00  0.00    -0.173 NA
HETATM   10  N   UNL     1      43.093 -14.566   2.819  1.00  0.00    -0.272 N 
HETATM   11  H   UNL     1      43.318 -13.769   2.230  1.00  0.00     0.189 HD
BRANCH   8  12
HETATM   12  C   UNL     1      43.324 -18.035   3.339  1.00  0.00    -0.005 A 
HETATM   13  C   UNL     1      43.954 -18.700   4.399  1.00  0.00     0.014 A 
HETATM   14  C   UNL     1      44.209 -20.072   4.324  1.00  0.00     0.001 A 
HETATM   15  C   UNL     1      43.845 -20.788   3.185  1.00  0.00     0.000 A 
HETATM   16  C   UNL     1      43.232 -20.135   2.118  1.00  0.00     0.001 A 
HETATM   17  C   UNL     1      42.976 -18.764   2.193  1.00  0.00     0.014 A 
ENDBRANCH   8  12
ENDBRANCH   1   5
BRANCH   2  18
HETATM   18  N   UNL     1      42.274 -11.721   6.418  1.00  0.00    -0.183 NA
HETATM   19  C   UNL     1      43.217 -10.970   6.889  1.00  0.00     0.153 C 
BRANCH  19  20
HETATM   20  C   UNL     1      42.877  -9.781   7.656  1.00  0.00     0.018 A 
HETATM   21  C   UNL     1      43.218  -9.545   9.031  1.00  0.00     0.004 A 
HETATM   22  C   UNL     1      42.715  -8.293   9.381  1.00  0.00     0.043 A 
HETATM   23  C   UNL     1      43.912 -10.283  10.015  1.00  0.00     0.014 A 
HETATM   24  C   UNL     1      42.868  -7.740  10.658  1.00  0.00     0.030 A 
HETATM   25  N   UNL     1      42.093  -7.783   8.267  1.00  0.00    -0.358 N 
HETATM   26  C   UNL     1      43.558  -8.492  11.612  1.00  0.00     0.002 A 
HETATM   27  C   UNL     1      44.073  -9.747  11.298  1.00  0.00     0.001 A 
HETATM   28  H   UNL     1      41.639  -6.881   8.234  1.00  0.00     0.166 HD
HETATM   29  C   UNL     1      42.179  -8.662   7.216  1.00  0.00     0.018 A 
HETATM   30  C   UNL     1      41.585  -8.333   5.893  1.00  0.00     0.069 C 
ENDBRANCH  19  20
ENDBRANCH   2  18
TORSDOF 4
ENDMDL
MODEL 7
REMARK VINA RESULT:      -8.4      2.390     10.336
REMARK  4 active torsions:
REMARK  status: ('A' for Active; 'I' for Inactive)
REMARK    1  A    between atoms: C_3  and  C_4 
REMARK       I    between atoms: C_4  and  N_5 
REMARK    2  A    between atoms: N_5  and  N_6 
REMARK    3  A    between atoms: C_7  and  C_8 
REMARK    4  A    between atoms: C_23  and  C_24 
ROOT
HETATM    1  C   UNL     1      42.850 -13.646   5.564  1.00  0.00     0.290 C 
HETATM    2  N   UNL     1      43.905 -12.877   6.035  1.00  0.00    -0.242 N 
HETATM    3  O   UNL     1      41.733 -13.208   5.301  1.00  0.00    -0.264 OA
HETATM    4  H   UNL     1      44.775 -13.336   6.263  1.00  0.00     0.192 HD
ENDROOT
BRANCH   1   5
HETATM    5  C   UNL     1      43.153 -15.045   5.351  1.00  0.00     0.127 A 
HETATM    6  C   UNL     1      43.181 -15.903   4.256  1.00  0.00     0.003 A 
HETATM    7  C   UNL     1      42.956 -15.589   2.819  1.00  0.00     0.053 C 
HETATM    8  C   UNL     1      43.529 -17.187   4.803  1.00  0.00     0.095 A 
HETATM    9  N   UNL     1      43.777 -17.094   6.116  1.00  0.00    -0.173 NA
HETATM   10  N   UNL     1      43.572 -15.809   6.407  1.00  0.00    -0.272 N 
HETATM   11  H   UNL     1      43.718 -15.492   7.362  1.00  0.00     0.189 HD
BRANCH   8  12
HETATM   12  C   UNL     1      43.653 -18.474   4.117  1.00  0.00    -0.005 A 
HETATM   13  C   UNL     1      43.459 -18.577   2.733  1.00  0.00     0.014 A 
HETATM   14  C   UNL     1      43.582 -19.812   2.090  1.00  0.00     0.001 A 
HETATM   15  C   UNL     1      43.891 -20.955   2.826  1.00  0.00     0.000 A 
HETATM   16  C   UNL     1      44.071 -20.867   4.205  1.00  0.00     0.001 A 
HETATM   17  C   UNL     1      43.949 -19.633   4.848  1.00  0.00     0.014 A 
ENDBRANCH   8  12
ENDBRANCH   1   5
BRANCH   2  18
HETATM   18  N   UNL     1      43.872 -11.566   6.441  1.00  0.00    -0.183 NA
HETATM   19  C   UNL     1      44.006 -11.271   7.694  1.00  0.00     0.153 C 
BRANCH  19  20
HETATM   20  C   UNL     1      44.027  -9.877   8.109  1.00  0.00     0.018 A 
HETATM   21  C   UNL     1      42.876  -9.083   8.437  1.00  0.00     0.004 A 
HETATM   22  C   UNL     1      43.328  -7.812   8.789  1.00  0.00     0.043 A 
HETATM   23  C   UNL     1      41.486  -9.329   8.470  1.00  0.00     0.014 A 
HETATM   24  C   UNL     1      42.468  -6.776   9.170  1.00  0.00     0.030 A 
HETATM   25  N   UNL     1      44.698  -7.827   8.680  1.00  0.00    -0.358 N 
HETATM   26  C   UNL     1      41.097  -7.046   9.193  1.00  0.00     0.002 A 
HETATM   27  C   UNL     1      40.610  -8.304   8.848  1.00  0.00     0.001 A 
HETATM   28  H   UNL     1      45.291  -7.033   8.879  1.00  0.00     0.166 HD
HETATM   29  C   UNL     1      45.140  -9.061   8.273  1.00  0.00     0.018 A 
HETATM   30  C   UNL     1      46.592  -9.330   8.089  1.00  0.00     0.069 C 
ENDBRANCH  19  20
ENDBRANCH   2  18
TORSDOF 4
ENDMDL
MODEL 8
REMARK VINA RESULT:      -8.2      1.676     10.359
REMARK  4 active torsions:
REMARK  status: ('A' for Active; 'I' for Inactive)
REMARK    1  A    between atoms: C_3  and  C_4 
REMARK       I    between atoms: C_4  and  N_5 
REMARK    2  A    between atoms: N_5  and  N_6 
REMARK    3  A    between atoms: C_7  and  C_8 
REMARK    4  A    between atoms: C_23  and  C_24 
ROOT
HETATM    1  C   UNL     1      43.954 -11.304   7.365  1.00  0.00     0.290 C 
HETATM    2  N   UNL     1      43.058 -10.816   8.304  1.00  0.00    -0.242 N 
HETATM    3  O   UNL     1      45.047 -10.800   7.118  1.00  0.00    -0.264 OA
HETATM    4  H   UNL     1      42.164 -11.274   8.406  1.00  0.00     0.192 HD
ENDROOT
BRANCH   1   5
HETATM    5  C   UNL     1      43.538 -12.511   6.684  1.00  0.00     0.127 A 
HETATM    6  C   UNL     1      43.318 -12.884   5.362  1.00  0.00     0.003 A 
HETATM    7  C   UNL     1      43.538 -12.092   4.121  1.00  0.00     0.053 C 
HETATM    8  C   UNL     1      42.866 -14.247   5.433  1.00  0.00     0.095 A 
HETATM    9  N   UNL     1      42.893 -14.693   6.696  1.00  0.00    -0.173 NA
HETATM   10  N   UNL     1      43.321 -13.650   7.411  1.00  0.00    -0.272 N 
HETATM   11  H   UNL     1      43.438 -13.759   8.415  1.00  0.00     0.189 HD
BRANCH   8  12
HETATM   12  C   UNL     1      42.438 -15.131   4.347  1.00  0.00    -0.005 A 
HETATM   13  C   UNL     1      41.136 -15.068   3.835  1.00  0.00     0.014 A 
HETATM   14  C   UNL     1      40.741 -15.917   2.797  1.00  0.00     0.001 A 
HETATM   15  C   UNL     1      41.641 -16.842   2.270  1.00  0.00     0.000 A 
HETATM   16  C   UNL     1      42.935 -16.923   2.782  1.00  0.00     0.001 A 
HETATM   17  C   UNL     1      43.330 -16.074   3.819  1.00  0.00     0.014 A 
ENDBRANCH   8  12
ENDBRANCH   1   5
BRANCH   2  18
HETATM   18  N   UNL     1      43.132  -9.634   9.000  1.00  0.00    -0.183 NA
HETATM   19  C   UNL     1      42.048  -9.041   9.388  1.00  0.00     0.153 C 
BRANCH  19  20
HETATM   20  C   UNL     1      42.136  -7.819  10.173  1.00  0.00     0.018 A 
HETATM   21  C   UNL     1      42.331  -7.750  11.595  1.00  0.00     0.004 A 
HETATM   22  C   UNL     1      42.364  -6.402  11.950  1.00  0.00     0.043 A 
HETATM   23  C   UNL     1      42.484  -8.713  12.617  1.00  0.00     0.014 A 
HETATM   24  C   UNL     1      42.542  -5.966  13.268  1.00  0.00     0.030 A 
HETATM   25  N   UNL     1      42.197  -5.677  10.795  1.00  0.00    -0.358 N 
HETATM   26  C   UNL     1      42.690  -6.940  14.259  1.00  0.00     0.002 A 
HETATM   27  C   UNL     1      42.661  -8.294  13.941  1.00  0.00     0.001 A 
HETATM   28  H   UNL     1      42.184  -4.667  10.756  1.00  0.00     0.166 HD
HETATM   29  C   UNL     1      42.059  -6.511   9.713  1.00  0.00     0.018 A 
HETATM   30  C   UNL     1      41.872  -5.960   8.343  1.00  0.00     0.069 C 
ENDBRANCH  19  20
ENDBRANCH   2  18
TORSDOF 4
ENDMDL
MODEL 9
REMARK VINA RESULT:      -8.2      2.727     10.290
REMARK  4 active torsions:
REMARK  status: ('A' for Active; 'I' for Inactive)
REMARK    1  A    between atoms: C_3  and  C_4 
REMARK       I    between atoms: C_4  and  N_5 
REMARK    2  A    between atoms: N_5  and  N_6 
REMARK    3  A    between atoms: C_7  and  C_8 
REMARK    4  A    between atoms: C_23  and  C_24 
ROOT
HETATM    1  C   UNL     1      40.372 -12.564   6.010  1.00  0.00     0.290 C 
HETATM    2  N   UNL     1      41.377 -11.651   6.294  1.00  0.00    -0.242 N 
HETATM    3  O   UNL     1      39.171 -12.306   6.030  1.00  0.00    -0.264 OA
HETATM    4  H   UNL     1      42.336 -11.970   6.293  1.00  0.00     0.192 HD
ENDROOT
BRANCH   1   5
HETATM    5  C   UNL     1      40.826 -13.887   5.638  1.00  0.00     0.127 A 
HETATM    6  C   UNL     1      41.850 -14.403   4.848  1.00  0.00     0.003 A 
HETATM    7  C   UNL     1      42.938 -13.675   4.140  1.00  0.00     0.053 C 
HETATM    8  C   UNL     1      41.669 -15.828   4.896  1.00  0.00     0.095 A 
HETATM    9  N   UNL     1      40.665 -16.154   5.720  1.00  0.00    -0.173 NA
HETATM   10  N   UNL     1      40.202 -14.984   6.165  1.00  0.00    -0.272 N 
HETATM   11  H   UNL     1      39.434 -14.982   6.830  1.00  0.00     0.189 HD
BRANCH   8  12
HETATM   12  C   UNL     1      42.428 -16.873   4.208  1.00  0.00    -0.005 A 
HETATM   13  C   UNL     1      43.444 -17.580   4.865  1.00  0.00     0.014 A 
HETATM   14  C   UNL     1      44.161 -18.577   4.197  1.00  0.00     0.001 A 
HETATM   15  C   UNL     1      43.875 -18.869   2.864  1.00  0.00     0.000 A 
HETATM   16  C   UNL     1      42.877 -18.162   2.196  1.00  0.00     0.001 A 
HETATM   17  C   UNL     1      42.159 -17.166   2.863  1.00  0.00     0.014 A 
ENDBRANCH   8  12
ENDBRANCH   1   5
BRANCH   2  18
HETATM   18  N   UNL     1      41.240 -10.378   6.790  1.00  0.00    -0.183 NA
HETATM   19  C   UNL     1      42.267  -9.593   6.854  1.00  0.00     0.153 C 
BRANCH  19  20
HETATM   20  C   UNL     1      42.102  -8.227   7.327  1.00  0.00     0.018 A 
HETATM   21  C   UNL     1      42.301  -7.778   8.677  1.00  0.00     0.004 A 
HETATM   22  C   UNL     1      42.048  -6.407   8.706  1.00  0.00     0.043 A 
HETATM   23  C   UNL     1      42.676  -8.413   9.882  1.00  0.00     0.014 A 
HETATM   24  C   UNL     1      42.149  -5.639   9.872  1.00  0.00     0.030 A 
HETATM   25  N   UNL     1      41.709  -6.032   7.429  1.00  0.00    -0.358 N 
HETATM   26  C   UNL     1      42.521  -6.293  11.050  1.00  0.00     0.002 A 
HETATM   27  C   UNL     1      42.781  -7.660  11.057  1.00  0.00     0.001 A 
HETATM   28  H   UNL     1      41.476  -5.087   7.158  1.00  0.00     0.166 HD
HETATM   29  C   UNL     1      41.735  -7.112   6.582  1.00  0.00     0.018 A 
HETATM   30  C   UNL     1      41.411  -6.959   5.138  1.00  0.00     0.069 C 
ENDBRANCH  19  20
ENDBRANCH   2  18
TORSDOF 4
ENDMDL
MODEL 10
REMARK VINA RESULT:      -8.0      2.578     10.323
REMARK  4 active torsions:
REMARK  status: ('A' for Active; 'I' for Inactive)
REMARK    1  A    between atoms: C_3  and  C_4 
REMARK       I    between atoms: C_4  and  N_5 
REMARK    2  A    between atoms: N_5  and  N_6 
REMARK    3  A    between atoms: C_7  and  C_8 
REMARK    4  A    between atoms: C_23  and  C_24 
ROOT
HETATM    1  C   UNL     1      39.999 -11.411   6.656  1.00  0.00     0.290 C 
HETATM    2  N   UNL     1      41.023 -10.525   6.957  1.00  0.00    -0.242 N 
HETATM    3  O   UNL     1      38.893 -11.404   7.189  1.00  0.00    -0.264 OA
HETATM    4  H   UNL     1      41.914 -10.637   6.494  1.00  0.00     0.192 HD
ENDROOT
BRANCH   1   5
HETATM    5  C   UNL     1      40.297 -12.365   5.608  1.00  0.00     0.127 A 
HETATM    6  C   UNL     1      41.317 -13.277   5.352  1.00  0.00     0.003 A 
HETATM    7  C   UNL     1      42.486 -13.630   6.202  1.00  0.00     0.053 C 
HETATM    8  C   UNL     1      40.978 -13.861   4.083  1.00  0.00     0.095 A 
HETATM    9  N   UNL     1      39.798 -13.402   3.646  1.00  0.00    -0.173 NA
HETATM   10  N   UNL     1      39.406 -12.536   4.584  1.00  0.00    -0.272 N 
HETATM   11  H   UNL     1      38.513 -12.065   4.474  1.00  0.00     0.189 HD
BRANCH   8  12
HETATM   12  C   UNL     1      41.722 -14.848   3.299  1.00  0.00    -0.005 A 
HETATM   13  C   UNL     1      42.772 -14.460   2.457  1.00  0.00     0.014 A 
HETATM   14  C   UNL     1      43.476 -15.412   1.714  1.00  0.00     0.001 A 
HETATM   15  C   UNL     1      43.128 -16.759   1.799  1.00  0.00     0.000 A 
HETATM   16  C   UNL     1      42.075 -17.156   2.622  1.00  0.00     0.001 A 
HETATM   17  C   UNL     1      41.373 -16.204   3.365  1.00  0.00     0.014 A 
ENDBRANCH   8  12
ENDBRANCH   1   5
BRANCH   2  18
HETATM   18  N   UNL     1      41.066  -9.608   7.978  1.00  0.00    -0.183 NA
HETATM   19  C   UNL     1      42.203  -9.264   8.494  1.00  0.00     0.153 C 
BRANCH  19  20
HETATM   20  C   UNL     1      42.245  -8.250   9.536  1.00  0.00     0.018 A 
HETATM   21  C   UNL     1      42.379  -8.501  10.944  1.00  0.00     0.004 A 
HETATM   22  C   UNL     1      42.383  -7.267  11.593  1.00  0.00     0.043 A 
HETATM   23  C   UNL     1      42.499  -9.668  11.730  1.00  0.00     0.014 A 
HETATM   24  C   UNL     1      42.501  -7.137  12.982  1.00  0.00     0.030 A 
HETATM   25  N   UNL     1      42.258  -6.302  10.624  1.00  0.00    -0.358 N 
HETATM   26  C   UNL     1      42.617  -8.308  13.735  1.00  0.00     0.002 A 
HETATM   27  C   UNL     1      42.616  -9.557  13.121  1.00  0.00     0.001 A 
HETATM   28  H   UNL     1      42.235  -5.309  10.811  1.00  0.00     0.166 HD
HETATM   29  C   UNL     1      42.173  -6.871   9.377  1.00  0.00     0.018 A 
HETATM   30  C   UNL     1      42.039  -6.028   8.159  1.00  0.00     0.069 C 
ENDBRANCH  19  20
ENDBRANCH   2  18
TORSDOF 4
ENDMDL
