MODEL 1
REMARK VINA RESULT:     -10.0      0.000      0.000
REMARK  7 active torsions:
REMARK  status: ('A' for Active; 'I' for Inactive)
REMARK    1  A    between atoms: C_9  and  C_10 
REMARK       I    between atoms: C_10  and  N_11 
REMARK    2  A    between atoms: N_11  and  C_12 
REMARK    3  A    between atoms: C_12  and  C_13 
REMARK    4  A    between atoms: C_12  and  C_22 
REMARK       I    between atoms: C_13  and  N_14 
REMARK    5  A    between atoms: N_14  and  C_15 
REMARK    6  A    between atoms: C_15  and  C_16 
REMARK    7  A    between atoms: C_22  and  C_23 
ROOT
HETATM    1  C   UNL     1      41.748 -15.189   3.680  1.00  0.00     0.180 C 
ENDROOT
BRANCH   1   2
HETATM    2  N   UNL     1      41.214 -14.735   2.369  1.00  0.00    -0.346 N 
HETATM    3  C   UNL     1      41.636 -13.562   1.792  1.00  0.00     0.249 C 
HETATM    4  O   UNL     1      42.630 -12.927   2.140  1.00  0.00    -0.271 OA
HETATM    5  H   UNL     1      40.241 -14.995   2.235  1.00  0.00     0.163 HD
BRANCH   3   6
HETATM    6  C   UNL     1      40.842 -13.064   0.578  1.00  0.00     0.281 C 
HETATM    7  N   UNL     1      39.558 -12.435   1.085  1.00  0.00    -0.058 N 
HETATM    8  C   UNL     1      38.728 -11.853   0.013  1.00  0.00     0.272 C 
HETATM    9  H   UNL     1      39.039 -13.173   1.588  1.00  0.00     0.278 HD
HETATM   10  H   UNL     1      39.781 -11.745   1.814  1.00  0.00     0.278 HD
HETATM   11  C   UNL     1      38.511 -12.811  -1.120  1.00  0.00    -0.026 A 
HETATM   12  C   UNL     1      39.366 -13.915  -1.317  1.00  0.00    -0.048 A 
HETATM   13  C   UNL     1      37.461 -12.579  -2.021  1.00  0.00     0.009 A 
HETATM   14  C   UNL     1      39.127 -14.786  -2.390  1.00  0.00     0.008 A 
HETATM   15  C   UNL     1      40.494 -14.226  -0.357  1.00  0.00     0.082 C 
HETATM   16  C   UNL     1      38.070 -14.551  -3.269  1.00  0.00     0.001 A 
HETATM   17  C   UNL     1      37.241 -13.449  -3.088  1.00  0.00     0.001 A 
ENDBRANCH   3   6
ENDBRANCH   1   2
BRANCH   1  18
HETATM   18  C   UNL     1      41.455 -14.042   4.677  1.00  0.00     0.241 C 
HETATM   19  N   UNL     1      42.535 -13.373   5.182  1.00  0.00    -0.353 N 
HETATM   20  H   UNL     1      43.469 -13.505   4.802  1.00  0.00     0.162 HD
HETATM   21  O   UNL     1      40.301 -13.813   5.055  1.00  0.00    -0.271 OA
BRANCH  19  22
HETATM   22  C   UNL     1      42.367 -12.277   6.111  1.00  0.00     0.187 C 
BRANCH  22  23
HETATM   23  C   UNL     1      43.692 -11.760   6.531  1.00  0.00     0.070 A 
HETATM   24  O   UNL     1      43.829 -11.397   7.840  1.00  0.00    -0.325 OA
HETATM   25  C   UNL     1      45.107 -10.970   8.005  1.00  0.00     0.142 A 
HETATM   26  C   UNL     1      45.801 -11.063   6.822  1.00  0.00     0.027 A 
HETATM   27  C   UNL     1      44.888 -11.571   5.867  1.00  0.00     0.036 A 
ENDBRANCH  22  23
ENDBRANCH  19  22
ENDBRANCH   1  18
BRANCH   1  28
HETATM   28  C   UNL     1      43.222 -15.627   3.627  1.00  0.00     0.075 C 
BRANCH  28  29
HETATM   29  C   UNL     1      43.545 -16.858   4.421  1.00  0.00    -0.028 A 
HETATM   30  C   UNL     1      43.657 -18.195   3.912  1.00  0.00    -0.002 A 
HETATM   31  C   UNL     1      43.866 -19.041   5.002  1.00  0.00     0.042 A 
HETATM   32  C   UNL     1      43.573 -18.770   2.627  1.00  0.00     0.014 A 
HETATM   33  C   UNL     1      43.988 -20.429   4.873  1.00  0.00     0.030 A 
HETATM   34  N   UNL     1      43.900 -18.253   6.127  1.00  0.00    -0.365 N 
HETATM   35  C   UNL     1      43.897 -20.973   3.589  1.00  0.00     0.002 A 
HETATM   36  C   UNL     1      43.695 -20.157   2.479  1.00  0.00     0.001 A 
HETATM   37  H   UNL     1      44.023 -18.608   7.067  1.00  0.00     0.165 HD
HETATM   38  C   UNL     1      43.697 -16.941   5.792  1.00  0.00     0.096 A 
ENDBRANCH  28  29
ENDBRANCH   1  28
TORSDOF 7
ENDMDL
MODEL 2
REMARK VINA RESULT:      -9.9      1.924      7.863
REMARK  7 active torsions:
REMARK  status: ('A' for Active; 'I' for Inactive)
REMARK    1  A    between atoms: C_9  and  C_10 
REMARK       I    between atoms: C_10  and  N_11 
REMARK    2  A    between atoms: N_11  and  C_12 
REMARK    3  A    between atoms: C_12  and  C_13 
REMARK    4  A    between atoms: C_12  and  C_22 
REMARK       I    between atoms: C_13  and  N_14 
REMARK    5  A    between atoms: N_14  and  C_15 
REMARK    6  A    between atoms: C_15  and  C_16 
REMARK    7  A    between atoms: C_22  and  C_23 
ROOT
HETATM    1  C   UNL     1      42.964 -14.256   4.541  1.00  0.00     0.180 C 
ENDROOT
BRANCH   1   2
HETATM    2  N   UNL     1      43.240 -13.163   5.509  1.00  0.00    -0.346 N 
HETATM    3  C   UNL     1      43.703 -11.938   5.093  1.00  0.00     0.249 C 
HETATM    4  O   UNL     1      43.691 -11.544   3.928  1.00  0.00    -0.271 OA
HETATM    5  H   UNL     1      43.583 -13.510   6.400  1.00  0.00     0.163 HD
BRANCH   3   6
HETATM    6  C   UNL     1      44.195 -10.978   6.182  1.00  0.00     0.281 C 
HETATM    7  N   UNL     1      45.329 -11.657   6.927  1.00  0.00    -0.058 N 
HETATM    8  C   UNL     1      45.939 -10.805   7.967  1.00  0.00     0.272 C 
HETATM    9  H   UNL     1      44.943 -12.519   7.343  1.00  0.00     0.278 HD
HETATM   10  H   UNL     1      46.026 -11.995   6.252  1.00  0.00     0.278 HD
HETATM   11  C   UNL     1      44.913 -10.197   8.876  1.00  0.00    -0.026 A 
HETATM   12  C   UNL     1      43.561 -10.094   8.487  1.00  0.00    -0.048 A 
HETATM   13  C   UNL     1      45.317  -9.687  10.119  1.00  0.00     0.009 A 
HETATM   14  C   UNL     1      42.636  -9.518   9.369  1.00  0.00     0.008 A 
HETATM   15  C   UNL     1      43.070 -10.656   7.171  1.00  0.00     0.082 C 
HETATM   16  C   UNL     1      43.048  -9.028  10.608  1.00  0.00     0.001 A 
HETATM   17  C   UNL     1      44.387  -9.109  10.981  1.00  0.00     0.001 A 
ENDBRANCH   3   6
ENDBRANCH   1   2
BRANCH   1  18
HETATM   18  C   UNL     1      41.473 -14.113   4.153  1.00  0.00     0.241 C 
HETATM   19  N   UNL     1      41.199 -13.444   2.993  1.00  0.00    -0.353 N 
HETATM   20  H   UNL     1      41.933 -13.199   2.333  1.00  0.00     0.162 HD
HETATM   21  O   UNL     1      40.581 -14.512   4.911  1.00  0.00    -0.271 OA
BRANCH  19  22
HETATM   22  C   UNL     1      39.837 -13.267   2.536  1.00  0.00     0.187 C 
BRANCH  22  23
HETATM   23  C   UNL     1      39.743 -13.581   1.090  1.00  0.00     0.070 A 
HETATM   24  O   UNL     1      39.163 -12.640   0.288  1.00  0.00    -0.325 OA
HETATM   25  C   UNL     1      39.191 -13.122  -0.980  1.00  0.00     0.142 A 
HETATM   26  C   UNL     1      39.792 -14.358  -1.010  1.00  0.00     0.027 A 
HETATM   27  C   UNL     1      40.148 -14.658   0.327  1.00  0.00     0.036 A 
ENDBRANCH  22  23
ENDBRANCH  19  22
ENDBRANCH   1  18
BRANCH   1  28
HETATM   28  C   UNL     1      43.358 -15.651   5.057  1.00  0.00     0.075 C 
BRANCH  28  29
HETATM   29  C   UNL     1      43.334 -16.738   4.024  1.00  0.00    -0.028 A 
HETATM   30  C   UNL     1      43.560 -18.136   4.254  1.00  0.00    -0.002 A 
HETATM   31  C   UNL     1      43.549 -18.771   3.013  1.00  0.00     0.042 A 
HETATM   32  C   UNL     1      43.800 -18.919   5.403  1.00  0.00     0.014 A 
HETATM   33  C   UNL     1      43.772 -20.145   2.860  1.00  0.00     0.030 A 
HETATM   34  N   UNL     1      43.307 -17.806   2.065  1.00  0.00    -0.365 N 
HETATM   35  C   UNL     1      44.012 -20.896   4.013  1.00  0.00     0.002 A 
HETATM   36  C   UNL     1      44.024 -20.295   5.269  1.00  0.00     0.001 A 
HETATM   37  H   UNL     1      43.261 -17.985   1.069  1.00  0.00     0.165 HD
HETATM   38  C   UNL     1      43.188 -16.579   2.659  1.00  0.00     0.096 A 
ENDBRANCH  28  29
ENDBRANCH   1  28
TORSDOF 7
ENDMDL
MODEL 3
REMARK VINA RESULT:      -9.9      1.483      1.988
REMARK  7 active torsions:
REMARK  status: ('A' for Active; 'I' for Inactive)
REMARK    1  A    between atoms: C_9  and  C_10 
REMARK       I    between atoms: C_10  and  N_11 
REMARK    2  A    between atoms: N_11  and  C_12 
REMARK    3  A    between atoms: C_12  and  C_13 
REMARK    4  A    between atoms: C_12  and  C_22 
REMARK       I    between atoms: C_13  and  N_14 
REMARK    5  A    between atoms: N_14  and  C_15 
REMARK    6  A    between atoms: C_15  and  C_16 
REMARK    7  A    between atoms: C_22  and  C_23 
ROOT
HETATM    1  C   UNL     1      41.786 -14.852   4.209  1.00  0.00     0.180 C 
ENDROOT
BRANCH   1   2
HETATM    2  N   UNL     1      41.110 -14.096   3.123  1.00  0.00    -0.346 N 
HETATM    3  C   UNL     1      40.174 -14.691   2.312  1.00  0.00     0.249 C 
HETATM    4  O   UNL     1      39.631 -15.770   2.543  1.00  0.00    -0.271 OA
HETATM    5  H   UNL     1      41.716 -13.399   2.699  1.00  0.00     0.163 HD
BRANCH   3   6
HETATM    6  C   UNL     1      39.733 -13.904   1.072  1.00  0.00     0.281 C 
HETATM    7  N   UNL     1      39.776 -14.842  -0.119  1.00  0.00    -0.058 N 
HETATM    8  C   UNL     1      39.307 -14.220  -1.372  1.00  0.00     0.272 C 
HETATM    9  H   UNL     1      40.753 -15.164  -0.214  1.00  0.00     0.278 HD
HETATM   10  H   UNL     1      39.252 -15.698   0.103  1.00  0.00     0.278 HD
HETATM   11  C   UNL     1      39.970 -12.901  -1.633  1.00  0.00    -0.026 A 
HETATM   12  C   UNL     1      40.589 -12.175  -0.593  1.00  0.00    -0.048 A 
HETATM   13  C   UNL     1      39.939 -12.364  -2.929  1.00  0.00     0.009 A 
HETATM   14  C   UNL     1      41.197 -10.945  -0.882  1.00  0.00     0.008 A 
HETATM   15  C   UNL     1      40.676 -12.725   0.814  1.00  0.00     0.082 C 
HETATM   16  C   UNL     1      41.171 -10.430  -2.178  1.00  0.00     0.001 A 
HETATM   17  C   UNL     1      40.540 -11.135  -3.198  1.00  0.00     0.001 A 
ENDBRANCH   3   6
ENDBRANCH   1   2
BRANCH   1  18
HETATM   18  C   UNL     1      41.790 -13.913   5.440  1.00  0.00     0.241 C 
HETATM   19  N   UNL     1      42.277 -12.650   5.250  1.00  0.00    -0.353 N 
HETATM   20  H   UNL     1      42.471 -12.288   4.319  1.00  0.00     0.162 HD
HETATM   21  O   UNL     1      41.449 -14.328   6.553  1.00  0.00    -0.271 OA
BRANCH  19  22
HETATM   22  C   UNL     1      42.313 -11.692   6.334  1.00  0.00     0.187 C 
BRANCH  22  23
HETATM   23  C   UNL     1      43.718 -11.395   6.702  1.00  0.00     0.070 A 
HETATM   24  O   UNL     1      43.943 -10.946   7.972  1.00  0.00    -0.325 OA
HETATM   25  C   UNL     1      45.281 -10.751   8.095  1.00  0.00     0.142 A 
HETATM   26  C   UNL     1      45.924 -11.079   6.926  1.00  0.00     0.027 A 
HETATM   27  C   UNL     1      44.915 -11.493   6.022  1.00  0.00     0.036 A 
ENDBRANCH  22  23
ENDBRANCH  19  22
ENDBRANCH   1  18
BRANCH   1  28
HETATM   28  C   UNL     1      43.170 -15.393   3.814  1.00  0.00     0.075 C 
BRANCH  28  29
HETATM   29  C   UNL     1      43.540 -16.705   4.441  1.00  0.00    -0.028 A 
HETATM   30  C   UNL     1      43.582 -17.981   3.785  1.00  0.00    -0.002 A 
HETATM   31  C   UNL     1      43.870 -18.940   4.755  1.00  0.00     0.042 A 
HETATM   32  C   UNL     1      43.377 -18.412   2.458  1.00  0.00     0.014 A 
HETATM   33  C   UNL     1      43.956 -20.308   4.469  1.00  0.00     0.030 A 
HETATM   34  N   UNL     1      44.016 -18.279   5.951  1.00  0.00    -0.365 N 
HETATM   35  C   UNL     1      43.743 -20.710   3.148  1.00  0.00     0.002 A 
HETATM   36  C   UNL     1      43.460 -19.777   2.154  1.00  0.00     0.001 A 
HETATM   37  H   UNL     1      44.214 -18.734   6.833  1.00  0.00     0.165 HD
HETATM   38  C   UNL     1      43.809 -16.937   5.777  1.00  0.00     0.096 A 
ENDBRANCH  28  29
ENDBRANCH   1  28
TORSDOF 7
ENDMDL
MODEL 4
REMARK VINA RESULT:      -9.7      1.724      8.242
REMARK  7 active torsions:
REMARK  status: ('A' for Active; 'I' for Inactive)
REMARK    1  A    between atoms: C_9  and  C_10 
REMARK       I    between atoms: C_10  and  N_11 
REMARK    2  A    between atoms: N_11  and  C_12 
REMARK    3  A    between atoms: C_12  and  C_13 
REMARK    4  A    between atoms: C_12  and  C_22 
REMARK       I    between atoms: C_13  and  N_14 
REMARK    5  A    between atoms: N_14  and  C_15 
REMARK    6  A    between atoms: C_15  and  C_16 
REMARK    7  A    between atoms: C_22  and  C_23 
ROOT
HETATM    1  C   UNL     1      42.307 -12.268   3.581  1.00  0.00     0.180 C 
ENDROOT
BRANCH   1   2
HETATM    2  N   UNL     1      42.747 -13.631   3.187  1.00  0.00    -0.346 N 
HETATM    3  C   UNL     1      42.570 -14.709   4.021  1.00  0.00     0.249 C 
HETATM    4  O   UNL     1      41.840 -14.717   5.011  1.00  0.00    -0.271 OA
HETATM    5  H   UNL     1      43.587 -13.619   2.616  1.00  0.00     0.163 HD
BRANCH   3   6
HETATM    6  C   UNL     1      43.284 -16.009   3.632  1.00  0.00     0.281 C 
HETATM    7  N   UNL     1      42.507 -16.649   2.497  1.00  0.00    -0.058 N 
HETATM    8  C   UNL     1      43.131 -17.883   1.982  1.00  0.00     0.272 C 
HETATM    9  H   UNL     1      41.557 -16.842   2.853  1.00  0.00     0.278 HD
HETATM   10  H   UNL     1      42.359 -15.956   1.753  1.00  0.00     0.278 HD
HETATM   11  C   UNL     1      43.477 -18.844   3.080  1.00  0.00    -0.026 A 
HETATM   12  C   UNL     1      43.604 -18.413   4.417  1.00  0.00    -0.048 A 
HETATM   13  C   UNL     1      43.714 -20.190   2.762  1.00  0.00     0.009 A 
HETATM   14  C   UNL     1      43.929 -19.346   5.411  1.00  0.00     0.008 A 
HETATM   15  C   UNL     1      43.329 -16.980   4.817  1.00  0.00     0.082 C 
HETATM   16  C   UNL     1      44.148 -20.683   5.083  1.00  0.00     0.001 A 
HETATM   17  C   UNL     1      44.045 -21.104   3.760  1.00  0.00     0.001 A 
ENDBRANCH   3   6
ENDBRANCH   1   2
BRANCH   1  18
HETATM   18  C   UNL     1      41.649 -11.654   2.322  1.00  0.00     0.241 C 
HETATM   19  N   UNL     1      40.427 -12.149   1.962  1.00  0.00    -0.353 N 
HETATM   20  H   UNL     1      39.900 -12.767   2.575  1.00  0.00     0.162 HD
HETATM   21  O   UNL     1      42.251 -10.819   1.637  1.00  0.00    -0.271 OA
BRANCH  19  22
HETATM   22  C   UNL     1      39.722 -11.634   0.808  1.00  0.00     0.187 C 
BRANCH  22  23
HETATM   23  C   UNL     1      39.462 -12.728  -0.159  1.00  0.00     0.070 A 
HETATM   24  O   UNL     1      38.605 -12.457  -1.186  1.00  0.00    -0.325 OA
HETATM   25  C   UNL     1      38.522 -13.579  -1.945  1.00  0.00     0.142 A 
HETATM   26  C   UNL     1      39.324 -14.568  -1.428  1.00  0.00     0.027 A 
HETATM   27  C   UNL     1      39.932 -14.021  -0.272  1.00  0.00     0.036 A 
ENDBRANCH  22  23
ENDBRANCH  19  22
ENDBRANCH   1  18
BRANCH   1  28
HETATM   28  C   UNL     1      43.428 -11.413   4.197  1.00  0.00     0.075 C 
BRANCH  28  29
HETATM   29  C   UNL     1      43.174 -10.951   5.601  1.00  0.00    -0.028 A 
HETATM   30  C   UNL     1      44.158 -10.769   6.629  1.00  0.00    -0.002 A 
HETATM   31  C   UNL     1      43.481 -10.433   7.801  1.00  0.00     0.042 A 
HETATM   32  C   UNL     1      45.563 -10.884   6.678  1.00  0.00     0.014 A 
HETATM   33  C   UNL     1      44.135 -10.214   9.020  1.00  0.00     0.030 A 
HETATM   34  N   UNL     1      42.141 -10.393   7.499  1.00  0.00    -0.365 N 
HETATM   35  C   UNL     1      45.526 -10.339   9.042  1.00  0.00     0.002 A 
HETATM   36  C   UNL     1      46.233 -10.667   7.888  1.00  0.00     0.001 A 
HETATM   37  H   UNL     1      41.412 -10.188   8.171  1.00  0.00     0.165 HD
HETATM   38  C   UNL     1      41.943 -10.713   6.183  1.00  0.00     0.096 A 
ENDBRANCH  28  29
ENDBRANCH   1  28
TORSDOF 7
ENDMDL
MODEL 5
REMARK VINA RESULT:      -9.6      2.709      8.302
REMARK  7 active torsions:
REMARK  status: ('A' for Active; 'I' for Inactive)
REMARK    1  A    between atoms: C_9  and  C_10 
REMARK       I    between atoms: C_10  and  N_11 
REMARK    2  A    between atoms: N_11  and  C_12 
REMARK    3  A    between atoms: C_12  and  C_13 
REMARK    4  A    between atoms: C_12  and  C_22 
REMARK       I    between atoms: C_13  and  N_14 
REMARK    5  A    between atoms: N_14  and  C_15 
REMARK    6  A    between atoms: C_15  and  C_16 
REMARK    7  A    between atoms: C_22  and  C_23 
ROOT
HETATM    1  C   UNL     1      43.163 -13.140   6.033  1.00  0.00     0.180 C 
ENDROOT
BRANCH   1   2
HETATM    2  N   UNL     1      43.248 -12.017   7.002  1.00  0.00    -0.346 N 
HETATM    3  C   UNL     1      44.458 -11.501   7.396  1.00  0.00     0.249 C 
HETATM    4  O   UNL     1      45.529 -11.716   6.830  1.00  0.00    -0.271 OA
HETATM    5  H   UNL     1      42.508 -12.048   7.698  1.00  0.00     0.163 HD
BRANCH   3   6
HETATM    6  C   UNL     1      44.443 -10.528   8.581  1.00  0.00     0.281 C 
HETATM    7  N   UNL     1      43.477 -11.069   9.618  1.00  0.00    -0.058 N 
HETATM    8  C   UNL     1      43.419 -10.253  10.847  1.00  0.00     0.272 C 
HETATM    9  H   UNL     1      42.548 -11.118   9.169  1.00  0.00     0.278 HD
HETATM   10  H   UNL     1      43.709 -12.049   9.820  1.00  0.00     0.278 HD
HETATM   11  C   UNL     1      43.218  -8.797  10.551  1.00  0.00    -0.026 A 
HETATM   12  C   UNL     1      43.512  -8.261   9.280  1.00  0.00    -0.048 A 
HETATM   13  C   UNL     1      42.764  -7.947  11.572  1.00  0.00     0.009 A 
HETATM   14  C   UNL     1      43.308  -6.893   9.047  1.00  0.00     0.008 A 
HETATM   15  C   UNL     1      43.973  -9.139   8.137  1.00  0.00     0.082 C 
HETATM   16  C   UNL     1      42.843  -6.064  10.067  1.00  0.00     0.001 A 
HETATM   17  C   UNL     1      42.575  -6.588  11.328  1.00  0.00     0.001 A 
ENDBRANCH   3   6
ENDBRANCH   1   2
BRANCH   1  18
HETATM   18  C   UNL     1      42.647 -12.522   4.711  1.00  0.00     0.241 C 
HETATM   19  N   UNL     1      41.366 -12.829   4.347  1.00  0.00    -0.353 N 
HETATM   20  H   UNL     1      40.728 -13.298   4.984  1.00  0.00     0.162 HD
HETATM   21  O   UNL     1      43.398 -11.858   3.988  1.00  0.00    -0.271 OA
BRANCH  19  22
HETATM   22  C   UNL     1      40.785 -12.291   3.135  1.00  0.00     0.187 C 
BRANCH  22  23
HETATM   23  C   UNL     1      40.648 -13.363   2.119  1.00  0.00     0.070 A 
HETATM   24  O   UNL     1      39.923 -14.464   2.475  1.00  0.00    -0.325 OA
HETATM   25  C   UNL     1      39.917 -15.300   1.406  1.00  0.00     0.142 A 
HETATM   26  C   UNL     1      40.619 -14.750   0.361  1.00  0.00     0.027 A 
HETATM   27  C   UNL     1      41.094 -13.497   0.820  1.00  0.00     0.036 A 
ENDBRANCH  22  23
ENDBRANCH  19  22
ENDBRANCH   1  18
BRANCH   1  28
HETATM   28  C   UNL     1      42.340 -14.335   6.543  1.00  0.00     0.075 C 
BRANCH  28  29
HETATM   29  C   UNL     1      42.956 -15.681   6.297  1.00  0.00    -0.028 A 
HETATM   30  C   UNL     1      43.134 -16.315   5.022  1.00  0.00    -0.002 A 
HETATM   31  C   UNL     1      43.646 -17.591   5.258  1.00  0.00     0.042 A 
HETATM   32  C   UNL     1      42.883 -15.932   3.688  1.00  0.00     0.014 A 
HETATM   33  C   UNL     1      43.913 -18.504   4.231  1.00  0.00     0.030 A 
HETATM   34  N   UNL     1      43.792 -17.725   6.618  1.00  0.00    -0.365 N 
HETATM   35  C   UNL     1      43.651 -18.101   2.920  1.00  0.00     0.002 A 
HETATM   36  C   UNL     1      43.146 -16.832   2.648  1.00  0.00     0.001 A 
HETATM   37  H   UNL     1      44.132 -18.562   7.074  1.00  0.00     0.165 HD
HETATM   38  C   UNL     1      43.370 -16.588   7.253  1.00  0.00     0.096 A 
ENDBRANCH  28  29
ENDBRANCH   1  28
TORSDOF 7
ENDMDL
MODEL 6
REMARK VINA RESULT:      -9.6      1.785      2.616
REMARK  7 active torsions:
REMARK  status: ('A' for Active; 'I' for Inactive)
REMARK    1  A    between atoms: C_9  and  C_10 
REMARK       I    between atoms: C_10  and  N_11 
REMARK    2  A    between atoms: N_11  and  C_12 
REMARK    3  A    between atoms: C_12  and  C_13 
REMARK    4  A    between atoms: C_12  and  C_22 
REMARK       I    between atoms: C_13  and  N_14 
REMARK    5  A    between atoms: N_14  and  C_15 
REMARK    6  A    between atoms: C_15  and  C_16 
REMARK    7  A    between atoms: C_22  and  C_23 
ROOT
HETATM    1  C   UNL     1      41.176 -13.734   5.339  1.00  0.00     0.180 C 
ENDROOT
BRANCH   1   2
HETATM    2  N   UNL     1      40.947 -13.613   3.876  1.00  0.00    -0.346 N 
HETATM    3  C   UNL     1      39.882 -12.905   3.375  1.00  0.00     0.249 C 
HETATM    4  O   UNL     1      39.192 -12.122   4.026  1.00  0.00    -0.271 OA
HETATM    5  H   UNL     1      41.231 -14.446   3.368  1.00  0.00     0.163 HD
BRANCH   3   6
HETATM    6  C   UNL     1      39.594 -13.057   1.876  1.00  0.00     0.281 C 
HETATM    7  N   UNL     1      40.102 -14.416   1.437  1.00  0.00    -0.058 N 
HETATM    8  C   UNL     1      39.824 -14.716   0.019  1.00  0.00     0.272 C 
HETATM    9  H   UNL     1      41.118 -14.433   1.621  1.00  0.00     0.278 HD
HETATM   10  H   UNL     1      39.723 -15.139   2.062  1.00  0.00     0.278 HD
HETATM   11  C   UNL     1      40.251 -13.601  -0.889  1.00  0.00    -0.026 A 
HETATM   12  C   UNL     1      40.451 -12.294  -0.399  1.00  0.00    -0.048 A 
HETATM   13  C   UNL     1      40.417 -13.860  -2.259  1.00  0.00     0.009 A 
HETATM   14  C   UNL     1      40.850 -11.283  -1.284  1.00  0.00     0.008 A 
HETATM   15  C   UNL     1      40.315 -11.970   1.072  1.00  0.00     0.082 C 
HETATM   16  C   UNL     1      41.025 -11.557  -2.640  1.00  0.00     0.001 A 
HETATM   17  C   UNL     1      40.805 -12.842  -3.128  1.00  0.00     0.001 A 
ENDBRANCH   3   6
ENDBRANCH   1   2
BRANCH   1  18
HETATM   18  C   UNL     1      42.622 -13.239   5.585  1.00  0.00     0.241 C 
HETATM   19  N   UNL     1      42.904 -12.755   6.832  1.00  0.00    -0.353 N 
HETATM   20  H   UNL     1      42.255 -12.866   7.606  1.00  0.00     0.162 HD
HETATM   21  O   UNL     1      43.445 -13.207   4.662  1.00  0.00    -0.271 OA
BRANCH  19  22
HETATM   22  C   UNL     1      44.229 -12.279   7.166  1.00  0.00     0.187 C 
BRANCH  22  23
HETATM   23  C   UNL     1      44.134 -11.115   8.080  1.00  0.00     0.070 A 
HETATM   24  O   UNL     1      45.104 -10.996   9.034  1.00  0.00    -0.325 OA
HETATM   25  C   UNL     1      44.833  -9.870   9.742  1.00  0.00     0.142 A 
HETATM   26  C   UNL     1      43.708  -9.253   9.250  1.00  0.00     0.027 A 
HETATM   27  C   UNL     1      43.253 -10.057   8.176  1.00  0.00     0.036 A 
ENDBRANCH  22  23
ENDBRANCH  19  22
ENDBRANCH   1  18
BRANCH   1  28
HETATM   28  C   UNL     1      40.880 -15.138   5.895  1.00  0.00     0.075 C 
BRANCH  28  29
HETATM   29  C   UNL     1      42.039 -16.090   5.863  1.00  0.00    -0.028 A 
HETATM   30  C   UNL     1      42.538 -16.785   4.712  1.00  0.00    -0.002 A 
HETATM   31  C   UNL     1      43.551 -17.640   5.146  1.00  0.00     0.042 A 
HETATM   32  C   UNL     1      42.204 -16.787   3.341  1.00  0.00     0.014 A 
HETATM   33  C   UNL     1      44.241 -18.500   4.283  1.00  0.00     0.030 A 
HETATM   34  N   UNL     1      43.680 -17.461   6.502  1.00  0.00    -0.365 N 
HETATM   35  C   UNL     1      43.887 -18.485   2.932  1.00  0.00     0.002 A 
HETATM   36  C   UNL     1      42.885 -17.639   2.464  1.00  0.00     0.001 A 
HETATM   37  H   UNL     1      44.334 -17.969   7.084  1.00  0.00     0.165 HD
HETATM   38  C   UNL     1      42.769 -16.541   6.947  1.00  0.00     0.096 A 
ENDBRANCH  28  29
ENDBRANCH   1  28
TORSDOF 7
ENDMDL
MODEL 7
REMARK VINA RESULT:      -9.4      1.939      6.673
REMARK  7 active torsions:
REMARK  status: ('A' for Active; 'I' for Inactive)
REMARK    1  A    between atoms: C_9  and  C_10 
REMARK       I    between atoms: C_10  and  N_11 
REMARK    2  A    between atoms: N_11  and  C_12 
REMARK    3  A    between atoms: C_12  and  C_13 
REMARK    4  A    between atoms: C_12  and  C_22 
REMARK       I    between atoms: C_13  and  N_14 
REMARK    5  A    between atoms: N_14  and  C_15 
REMARK    6  A    between atoms: C_15  and  C_16 
REMARK    7  A    between atoms: C_22  and  C_23 
ROOT
HETATM    1  C   UNL     1      40.906 -11.597   4.717  1.00  0.00     0.180 C 
ENDROOT
BRANCH   1   2
HETATM    2  N   UNL     1      41.136 -13.030   5.036  1.00  0.00    -0.346 N 
HETATM    3  C   UNL     1      42.387 -13.591   4.947  1.00  0.00     0.249 C 
HETATM    4  O   UNL     1      43.436 -12.955   4.854  1.00  0.00    -0.271 OA
HETATM    5  H   UNL     1      40.345 -13.616   4.785  1.00  0.00     0.163 HD
BRANCH   3   6
HETATM    6  C   UNL     1      42.468 -15.120   5.046  1.00  0.00     0.281 C 
HETATM    7  N   UNL     1      43.720 -15.472   5.827  1.00  0.00    -0.058 N 
HETATM    8  C   UNL     1      43.881 -16.922   6.051  1.00  0.00     0.272 C 
HETATM    9  H   UNL     1      44.522 -15.094   5.298  1.00  0.00     0.278 HD
HETATM   10  H   UNL     1      43.731 -14.945   6.709  1.00  0.00     0.278 HD
HETATM   11  C   UNL     1      43.729 -17.712   4.786  1.00  0.00    -0.026 A 
HETATM   12  C   UNL     1      43.072 -17.172   3.661  1.00  0.00    -0.048 A 
HETATM   13  C   UNL     1      44.219 -19.026   4.737  1.00  0.00     0.009 A 
HETATM   14  C   UNL     1      42.952 -17.946   2.499  1.00  0.00     0.008 A 
HETATM   15  C   UNL     1      42.554 -15.750   3.652  1.00  0.00     0.082 C 
HETATM   16  C   UNL     1      43.456 -19.246   2.459  1.00  0.00     0.001 A 
HETATM   17  C   UNL     1      44.085 -19.787   3.577  1.00  0.00     0.001 A 
ENDBRANCH   3   6
ENDBRANCH   1   2
BRANCH   1  18
HETATM   18  C   UNL     1      41.068 -10.834   6.054  1.00  0.00     0.241 C 
HETATM   19  N   UNL     1      42.299 -10.298   6.312  1.00  0.00    -0.353 N 
HETATM   20  H   UNL     1      43.022 -10.255   5.599  1.00  0.00     0.162 HD
HETATM   21  O   UNL     1      40.145 -10.795   6.876  1.00  0.00    -0.271 OA
BRANCH  19  22
HETATM   22  C   UNL     1      42.550  -9.555   7.529  1.00  0.00     0.187 C 
BRANCH  22  23
HETATM   23  C   UNL     1      44.003  -9.541   7.824  1.00  0.00     0.070 A 
HETATM   24  O   UNL     1      44.745 -10.575   7.330  1.00  0.00    -0.325 OA
HETATM   25  C   UNL     1      46.031 -10.358   7.704  1.00  0.00     0.142 A 
HETATM   26  C   UNL     1      46.132  -9.191   8.423  1.00  0.00     0.027 A 
HETATM   27  C   UNL     1      44.822  -8.662   8.504  1.00  0.00     0.036 A 
ENDBRANCH  22  23
ENDBRANCH  19  22
ENDBRANCH   1  18
BRANCH   1  28
HETATM   28  C   UNL     1      39.577 -11.334   3.989  1.00  0.00     0.075 C 
BRANCH  28  29
HETATM   29  C   UNL     1      39.630 -11.491   2.498  1.00  0.00    -0.028 A 
HETATM   30  C   UNL     1      39.736 -12.726   1.775  1.00  0.00    -0.002 A 
HETATM   31  C   UNL     1      39.859 -12.410   0.423  1.00  0.00     0.042 A 
HETATM   32  C   UNL     1      39.766 -14.086   2.149  1.00  0.00     0.014 A 
HETATM   33  C   UNL     1      40.016 -13.381  -0.574  1.00  0.00     0.030 A 
HETATM   34  N   UNL     1      39.811 -11.041   0.319  1.00  0.00    -0.365 N 
HETATM   35  C   UNL     1      40.047 -14.720  -0.176  1.00  0.00     0.002 A 
HETATM   36  C   UNL     1      39.921 -15.071   1.166  1.00  0.00     0.001 A 
HETATM   37  H   UNL     1      39.893 -10.532  -0.552  1.00  0.00     0.165 HD
HETATM   38  C   UNL     1      39.686 -10.477   1.561  1.00  0.00     0.096 A 
ENDBRANCH  28  29
ENDBRANCH   1  28
TORSDOF 7
ENDMDL
MODEL 8
REMARK VINA RESULT:      -9.3      3.083      6.983
REMARK  7 active torsions:
REMARK  status: ('A' for Active; 'I' for Inactive)
REMARK    1  A    between atoms: C_9  and  C_10 
REMARK       I    between atoms: C_10  and  N_11 
REMARK    2  A    between atoms: N_11  and  C_12 
REMARK    3  A    between atoms: C_12  and  C_13 
REMARK    4  A    between atoms: C_12  and  C_22 
REMARK       I    between atoms: C_13  and  N_14 
REMARK    5  A    between atoms: N_14  and  C_15 
REMARK    6  A    between atoms: C_15  and  C_16 
REMARK    7  A    between atoms: C_22  and  C_23 
ROOT
HETATM    1  C   UNL     1      40.544 -10.855   6.067  1.00  0.00     0.180 C 
ENDROOT
BRANCH   1   2
HETATM    2  N   UNL     1      40.897 -12.293   6.186  1.00  0.00    -0.346 N 
HETATM    3  C   UNL     1      42.188 -12.731   6.008  1.00  0.00     0.249 C 
HETATM    4  O   UNL     1      43.179 -12.003   5.993  1.00  0.00    -0.271 OA
HETATM    5  H   UNL     1      40.152 -12.904   5.865  1.00  0.00     0.163 HD
BRANCH   3   6
HETATM    6  C   UNL     1      42.395 -14.246   5.898  1.00  0.00     0.281 C 
HETATM    7  N   UNL     1      43.747 -14.579   6.500  1.00  0.00    -0.058 N 
HETATM    8  C   UNL     1      44.041 -16.025   6.516  1.00  0.00     0.272 C 
HETATM    9  H   UNL     1      44.456 -14.069   5.950  1.00  0.00     0.278 HD
HETATM   10  H   UNL     1      43.813 -14.164   7.438  1.00  0.00     0.278 HD
HETATM   11  C   UNL     1      43.814 -16.664   5.179  1.00  0.00    -0.026 A 
HETATM   12  C   UNL     1      42.999 -16.051   4.204  1.00  0.00    -0.048 A 
HETATM   13  C   UNL     1      44.394 -17.914   4.910  1.00  0.00     0.009 A 
HETATM   14  C   UNL     1      42.815 -16.685   2.967  1.00  0.00     0.008 A 
HETATM   15  C   UNL     1      42.377 -14.691   4.432  1.00  0.00     0.082 C 
HETATM   16  C   UNL     1      43.409 -17.920   2.708  1.00  0.00     0.001 A 
HETATM   17  C   UNL     1      44.193 -18.535   3.679  1.00  0.00     0.001 A 
ENDBRANCH   3   6
ENDBRANCH   1   2
BRANCH   1  18
HETATM   18  C   UNL     1      39.775 -10.498   7.362  1.00  0.00     0.241 C 
HETATM   19  N   UNL     1      40.476  -9.840   8.334  1.00  0.00    -0.353 N 
HETATM   20  H   UNL     1      41.401  -9.456   8.157  1.00  0.00     0.162 HD
HETATM   21  O   UNL     1      38.609 -10.875   7.529  1.00  0.00    -0.271 OA
BRANCH  19  22
HETATM   22  C   UNL     1      39.844  -9.451   9.576  1.00  0.00     0.187 C 
BRANCH  22  23
HETATM   23  C   UNL     1      40.861  -9.343  10.650  1.00  0.00     0.070 A 
HETATM   24  O   UNL     1      40.652 -10.085  11.777  1.00  0.00    -0.325 OA
HETATM   25  C   UNL     1      41.696  -9.847  12.612  1.00  0.00     0.142 A 
HETATM   26  C   UNL     1      42.583  -8.970  12.034  1.00  0.00     0.027 A 
HETATM   27  C   UNL     1      42.044  -8.642  10.766  1.00  0.00     0.036 A 
ENDBRANCH  22  23
ENDBRANCH  19  22
ENDBRANCH   1  18
BRANCH   1  28
HETATM   28  C   UNL     1      39.800 -10.508   4.766  1.00  0.00     0.075 C 
BRANCH  28  29
HETATM   29  C   UNL     1      40.497 -10.929   3.506  1.00  0.00    -0.028 A 
HETATM   30  C   UNL     1      40.309 -12.165   2.802  1.00  0.00    -0.002 A 
HETATM   31  C   UNL     1      41.224 -12.190   1.750  1.00  0.00     0.042 A 
HETATM   32  C   UNL     1      39.461 -13.278   2.976  1.00  0.00     0.014 A 
HETATM   33  C   UNL     1      41.340 -13.272   0.869  1.00  0.00     0.030 A 
HETATM   34  N   UNL     1      41.930 -11.012   1.797  1.00  0.00    -0.365 N 
HETATM   35  C   UNL     1      40.492 -14.364   1.068  1.00  0.00     0.002 A 
HETATM   36  C   UNL     1      39.562 -14.369   2.104  1.00  0.00     0.001 A 
HETATM   37  H   UNL     1      42.675 -10.768   1.157  1.00  0.00     0.165 HD
HETATM   38  C   UNL     1      41.509 -10.251   2.855  1.00  0.00     0.096 A 
ENDBRANCH  28  29
ENDBRANCH   1  28
TORSDOF 7
ENDMDL
MODEL 9
REMARK VINA RESULT:      -9.1      2.272      8.261
REMARK  7 active torsions:
REMARK  status: ('A' for Active; 'I' for Inactive)
REMARK    1  A    between atoms: C_9  and  C_10 
REMARK       I    between atoms: C_10  and  N_11 
REMARK    2  A    between atoms: N_11  and  C_12 
REMARK    3  A    between atoms: C_12  and  C_13 
REMARK    4  A    between atoms: C_12  and  C_22 
REMARK       I    between atoms: C_13  and  N_14 
REMARK    5  A    between atoms: N_14  and  C_15 
REMARK    6  A    between atoms: C_15  and  C_16 
REMARK    7  A    between atoms: C_22  and  C_23 
ROOT
HETATM    1  C   UNL     1      41.324 -11.789   5.706  1.00  0.00     0.180 C 
ENDROOT
BRANCH   1   2
HETATM    2  N   UNL     1      41.601 -13.244   5.831  1.00  0.00    -0.346 N 
HETATM    3  C   UNL     1      42.541 -13.864   5.044  1.00  0.00     0.249 C 
HETATM    4  O   UNL     1      43.391 -13.279   4.375  1.00  0.00    -0.271 OA
HETATM    5  H   UNL     1      40.771 -13.778   6.070  1.00  0.00     0.163 HD
BRANCH   3   6
HETATM    6  C   UNL     1      42.565 -15.397   5.072  1.00  0.00     0.281 C 
HETATM    7  N   UNL     1      43.801 -15.832   5.836  1.00  0.00    -0.058 N 
HETATM    8  C   UNL     1      43.907 -17.296   5.993  1.00  0.00     0.272 C 
HETATM    9  H   UNL     1      44.618 -15.461   5.325  1.00  0.00     0.278 HD
HETATM   10  H   UNL     1      43.830 -15.347   6.741  1.00  0.00     0.278 HD
HETATM   11  C   UNL     1      43.728 -18.021   4.693  1.00  0.00    -0.026 A 
HETATM   12  C   UNL     1      43.093 -17.405   3.594  1.00  0.00    -0.048 A 
HETATM   13  C   UNL     1      44.168 -19.349   4.583  1.00  0.00     0.009 A 
HETATM   14  C   UNL     1      42.947 -18.120   2.397  1.00  0.00     0.008 A 
HETATM   15  C   UNL     1      42.629 -15.966   3.651  1.00  0.00     0.082 C 
HETATM   16  C   UNL     1      43.402 -19.434   2.297  1.00  0.00     0.001 A 
HETATM   17  C   UNL     1      44.007 -20.049   3.389  1.00  0.00     0.001 A 
ENDBRANCH   3   6
ENDBRANCH   1   2
BRANCH   1  18
HETATM   18  C   UNL     1      40.747 -11.588   4.284  1.00  0.00     0.241 C 
HETATM   19  N   UNL     1      39.700 -12.391   3.924  1.00  0.00    -0.353 N 
HETATM   20  H   UNL     1      39.217 -12.973   4.604  1.00  0.00     0.162 HD
HETATM   21  O   UNL     1      41.273 -10.797   3.493  1.00  0.00    -0.271 OA
BRANCH  19  22
HETATM   22  C   UNL     1      39.081 -12.274   2.622  1.00  0.00     0.187 C 
BRANCH  22  23
HETATM   23  C   UNL     1      39.497 -13.405   1.758  1.00  0.00     0.070 A 
HETATM   24  O   UNL     1      39.691 -13.135   0.434  1.00  0.00    -0.325 OA
HETATM   25  C   UNL     1      40.073 -14.294  -0.159  1.00  0.00     0.142 A 
HETATM   26  C   UNL     1      40.141 -15.307   0.767  1.00  0.00     0.027 A 
HETATM   27  C   UNL     1      39.767 -14.736   2.007  1.00  0.00     0.036 A 
ENDBRANCH  22  23
ENDBRANCH  19  22
ENDBRANCH   1  18
BRANCH   1  28
HETATM   28  C   UNL     1      42.536 -10.901   6.034  1.00  0.00     0.075 C 
BRANCH  28  29
HETATM   29  C   UNL     1      42.417 -10.110   7.302  1.00  0.00    -0.028 A 
HETATM   30  C   UNL     1      43.416  -9.982   8.324  1.00  0.00    -0.002 A 
HETATM   31  C   UNL     1      42.855  -9.248   9.368  1.00  0.00     0.042 A 
HETATM   32  C   UNL     1      44.740 -10.447   8.470  1.00  0.00     0.014 A 
HETATM   33  C   UNL     1      43.546  -8.960  10.552  1.00  0.00     0.030 A 
HETATM   34  N   UNL     1      41.574  -8.923   8.994  1.00  0.00    -0.365 N 
HETATM   35  C   UNL     1      44.854  -9.436  10.672  1.00  0.00     0.002 A 
HETATM   36  C   UNL     1      45.446 -10.167   9.646  1.00  0.00     0.001 A 
HETATM   37  H   UNL     1      40.926  -8.402   9.572  1.00  0.00     0.165 HD
HETATM   38  C   UNL     1      41.295  -9.445   7.759  1.00  0.00     0.096 A 
ENDBRANCH  28  29
ENDBRANCH   1  28
TORSDOF 7
ENDMDL
MODEL 10
REMARK VINA RESULT:      -9.1      1.913      7.936
REMARK  7 active torsions:
REMARK  status: ('A' for Active; 'I' for Inactive)
REMARK    1  A    between atoms: C_9  and  C_10 
REMARK       I    between atoms: C_10  and  N_11 
REMARK    2  A    between atoms: N_11  and  C_12 
REMARK    3  A    between atoms: C_12  and  C_13 
REMARK    4  A    between atoms: C_12  and  C_22 
REMARK       I    between atoms: C_13  and  N_14 
REMARK    5  A    between atoms: N_14  and  C_15 
REMARK    6  A    between atoms: C_15  and  C_16 
REMARK    7  A    between atoms: C_22  and  C_23 
ROOT
HETATM    1  C   UNL     1      41.008 -11.420   5.136  1.00  0.00     0.180 C 
ENDROOT
BRANCH   1   2
HETATM    2  N   UNL     1      41.346 -12.851   4.917  1.00  0.00    -0.346 N 
HETATM    3  C   UNL     1      40.841 -13.838   5.729  1.00  0.00     0.249 C 
HETATM    4  O   UNL     1      39.906 -13.689   6.514  1.00  0.00    -0.271 OA
HETATM    5  H   UNL     1      42.290 -12.978   4.565  1.00  0.00     0.163 HD
BRANCH   3   6
HETATM    6  C   UNL     1      41.450 -15.237   5.577  1.00  0.00     0.281 C 
HETATM    7  N   UNL     1      42.887 -15.177   6.060  1.00  0.00    -0.058 N 
HETATM    8  C   UNL     1      43.570 -16.485   6.028  1.00  0.00     0.272 C 
HETATM    9  H   UNL     1      43.378 -14.494   5.462  1.00  0.00     0.278 HD
HETATM   10  H   UNL     1      42.914 -14.754   6.997  1.00  0.00     0.278 HD
HETATM   11  C   UNL     1      43.418 -17.171   4.704  1.00  0.00    -0.026 A 
HETATM   12  C   UNL     1      42.387 -16.816   3.810  1.00  0.00    -0.048 A 
HETATM   13  C   UNL     1      44.297 -18.213   4.368  1.00  0.00     0.009 A 
HETATM   14  C   UNL     1      42.282 -17.484   2.582  1.00  0.00     0.008 A 
HETATM   15  C   UNL     1      41.434 -15.680   4.111  1.00  0.00     0.082 C 
HETATM   16  C   UNL     1      43.171 -18.508   2.255  1.00  0.00     0.001 A 
HETATM   17  C   UNL     1      44.174 -18.875   3.148  1.00  0.00     0.001 A 
ENDBRANCH   3   6
ENDBRANCH   1   2
BRANCH   1  18
HETATM   18  C   UNL     1      39.868 -11.096   4.142  1.00  0.00     0.241 C 
HETATM   19  N   UNL     1      39.857 -11.796   2.967  1.00  0.00    -0.353 N 
HETATM   20  H   UNL     1      40.461 -12.601   2.821  1.00  0.00     0.162 HD
HETATM   21  O   UNL     1      39.065 -10.185   4.375  1.00  0.00    -0.271 OA
BRANCH  19  22
HETATM   22  C   UNL     1      38.826 -11.577   1.976  1.00  0.00     0.187 C 
BRANCH  22  23
HETATM   23  C   UNL     1      39.094 -12.402   0.773  1.00  0.00     0.070 A 
HETATM   24  O   UNL     1      39.797 -13.557   0.960  1.00  0.00    -0.325 OA
HETATM   25  C   UNL     1      39.916 -14.152  -0.254  1.00  0.00     0.142 A 
HETATM   26  C   UNL     1      39.290 -13.402  -1.220  1.00  0.00     0.027 A 
HETATM   27  C   UNL     1      38.759 -12.269  -0.559  1.00  0.00     0.036 A 
ENDBRANCH  22  23
ENDBRANCH  19  22
ENDBRANCH   1  18
BRANCH   1  28
HETATM   28  C   UNL     1      42.222 -10.479   5.044  1.00  0.00     0.075 C 
BRANCH  28  29
HETATM   29  C   UNL     1      43.359 -10.821   5.961  1.00  0.00    -0.028 A 
HETATM   30  C   UNL     1      43.573 -10.302   7.282  1.00  0.00    -0.002 A 
HETATM   31  C   UNL     1      44.795 -10.799   7.734  1.00  0.00     0.042 A 
HETATM   32  C   UNL     1      42.852  -9.432   8.127  1.00  0.00     0.014 A 
HETATM   33  C   UNL     1      45.336 -10.468   8.982  1.00  0.00     0.030 A 
HETATM   34  N   UNL     1      45.298 -11.604   6.740  1.00  0.00    -0.365 N 
HETATM   35  C   UNL     1      44.604  -9.600   9.797  1.00  0.00     0.002 A 
HETATM   36  C   UNL     1      43.377  -9.091   9.379  1.00  0.00     0.001 A 
HETATM   37  H   UNL     1      46.187 -12.085   6.793  1.00  0.00     0.165 HD
HETATM   38  C   UNL     1      44.450 -11.615   5.665  1.00  0.00     0.096 A 
ENDBRANCH  28  29
ENDBRANCH   1  28
TORSDOF 7
ENDMDL
