MODEL 1
REMARK VINA RESULT:      -8.5      0.000      0.000
REMARK  8 active torsions:
REMARK  status: ('A' for Active; 'I' for Inactive)
REMARK    1  A    between atoms: O_2  and  C_3 
REMARK    2  A    between atoms: C_10  and  C_11 
REMARK    3  A    between atoms: N_12  and  N_13 
REMARK       I    between atoms: N_13  and  C_14 
REMARK    4  A    between atoms: C_14  and  C_15 
REMARK    5  A    between atoms: N_18  and  C_19 
REMARK    6  A    between atoms: C_23  and  N_24 
REMARK    7  A    between atoms: C_25  and  C_26 
REMARK    8  A    between atoms: C_26  and  N_27 
ROOT
HETATM    1  C   UNL     1      39.459 -10.626   7.611  1.00  0.00     0.176 C 
HETATM    2  N   UNL     1      38.455 -10.754   8.524  1.00  0.00    -0.124 NA
HETATM    3  N   UNL     1      38.715  -9.950   9.537  1.00  0.00    -0.058 NA
HETATM    4  N   UNL     1      39.918  -9.350   9.338  1.00  0.00    -0.191 N 
HETATM    5  C   UNL     1      40.360  -9.659   8.045  1.00  0.00     0.102 C 
ENDROOT
BRANCH   1   6
HETATM    6  C   UNL     1      39.510 -11.409   6.384  1.00  0.00     0.294 C 
HETATM    7  N   UNL     1      40.197 -12.601   6.499  1.00  0.00    -0.242 N 
HETATM    8  H   UNL     1      40.625 -12.864   7.385  1.00  0.00     0.192 HD
HETATM    9  O   UNL     1      38.955 -10.998   5.365  1.00  0.00    -0.264 OA
BRANCH   7  10
HETATM   10  N   UNL     1      40.305 -13.419   5.415  1.00  0.00    -0.183 NA
HETATM   11  C   UNL     1      41.281 -14.272   5.447  1.00  0.00     0.153 C 
BRANCH  11  12
HETATM   12  C   UNL     1      41.514 -15.214   4.331  1.00  0.00     0.020 A 
HETATM   13  C   UNL     1      42.576 -16.128   4.387  1.00  0.00     0.101 A 
HETATM   14  C   UNL     1      42.733 -17.063   3.352  1.00  0.00     0.069 A 
HETATM   15 CL   UNL     1      43.948 -18.289   3.411  1.00  0.00    -0.081 Cl
HETATM   16  C   UNL     1      41.878 -17.044   2.247  1.00  0.00     0.050 A 
HETATM   17  C   UNL     1      40.853 -16.105   2.186  1.00  0.00     0.036 A 
HETATM   18 CL   UNL     1      39.799 -16.080   0.826  1.00  0.00    -0.084 Cl
HETATM   19  C   UNL     1      40.659 -15.195   3.222  1.00  0.00     0.039 A 
BRANCH  13  20
HETATM   20  O   UNL     1      43.391 -16.141   5.490  1.00  0.00    -0.353 OA
HETATM   21  C   UNL     1      42.960 -17.129   6.433  1.00  0.00     0.210 C 
ENDBRANCH  13  20
ENDBRANCH  11  12
ENDBRANCH   7  10
ENDBRANCH   1   6
BRANCH   5  22
HETATM   22  C   UNL     1      41.603  -9.097   7.444  1.00  0.00     0.296 C 
BRANCH  22  23
HETATM   23  N   UNL     1      42.882  -9.888   7.682  1.00  0.00    -0.066 N 
HETATM   24  H   UNL     1      42.670 -10.527   8.476  1.00  0.00     0.280 HD
HETATM   25  C   UNL     1      43.245 -10.753   6.504  1.00  0.00     0.235 C 
HETATM   26  C   UNL     1      44.341 -11.758   6.836  1.00  0.00     0.028 C 
HETATM   27  C   UNL     1      45.723 -11.123   6.946  1.00  0.00     0.002 C 
HETATM   28  C   UNL     1      46.059 -10.561   8.321  1.00  0.00     0.002 C 
HETATM   29  C   UNL     1      44.970  -9.777   9.046  1.00  0.00     0.028 C 
HETATM   30  C   UNL     1      44.006  -8.994   8.166  1.00  0.00     0.235 C 
ENDBRANCH  22  23
ENDBRANCH   5  22
BRANCH   4  31
HETATM   31  C   UNL     1      40.552  -8.586  10.348  1.00  0.00     0.229 A 
HETATM   32  N   UNL     1      40.227  -7.304  10.525  1.00  0.00    -0.081 NA
HETATM   33  O   UNL     1      41.064  -6.888  11.564  1.00  0.00    -0.103 OA
HETATM   34  N   UNL     1      41.879  -7.925  11.997  1.00  0.00    -0.083 NA
HETATM   35  C   UNL     1      41.567  -8.974  11.241  1.00  0.00     0.201 A 
BRANCH  35  36
HETATM   36  N   UNL     1      42.139 -10.185  11.347  1.00  0.00    -0.379 N 
HETATM   37  H   UNL     1      42.183 -10.641  12.254  1.00  0.00     0.158 HD
HETATM   38  H   UNL     1      42.785 -10.561  10.657  1.00  0.00     0.158 HD
ENDBRANCH  35  36
ENDBRANCH   4  31
TORSDOF 8
ENDMDL
MODEL 2
REMARK VINA RESULT:      -8.3      5.043      9.352
REMARK  8 active torsions:
REMARK  status: ('A' for Active; 'I' for Inactive)
REMARK    1  A    between atoms: O_2  and  C_3 
REMARK    2  A    between atoms: C_10  and  C_11 
REMARK    3  A    between atoms: N_12  and  N_13 
REMARK       I    between atoms: N_13  and  C_14 
REMARK    4  A    between atoms: C_14  and  C_15 
REMARK    5  A    between atoms: N_18  and  C_19 
REMARK    6  A    between atoms: C_23  and  N_24 
REMARK    7  A    between atoms: C_25  and  C_26 
REMARK    8  A    between atoms: C_26  and  N_27 
ROOT
HETATM    1  C   UNL     1      41.665 -11.046   1.347  1.00  0.00     0.176 C 
HETATM    2  N   UNL     1      41.761 -10.173   0.304  1.00  0.00    -0.124 NA
HETATM    3  N   UNL     1      41.113 -10.687  -0.724  1.00  0.00    -0.058 NA
HETATM    4  N   UNL     1      40.656 -11.925  -0.394  1.00  0.00    -0.191 N 
HETATM    5  C   UNL     1      40.877 -12.130   0.974  1.00  0.00     0.102 C 
ENDROOT
BRANCH   1   6
HETATM    6  C   UNL     1      42.309 -10.809   2.632  1.00  0.00     0.294 C 
HETATM    7  N   UNL     1      41.683  -9.859   3.414  1.00  0.00    -0.242 N 
HETATM    8  H   UNL     1      40.849  -9.383   3.075  1.00  0.00     0.192 HD
HETATM    9  O   UNL     1      43.316 -11.443   2.944  1.00  0.00    -0.264 OA
BRANCH   7  10
HETATM   10  N   UNL     1      42.195  -9.558   4.640  1.00  0.00    -0.183 NA
HETATM   11  C   UNL     1      41.687 -10.209   5.640  1.00  0.00     0.153 C 
BRANCH  11  12
HETATM   12  C   UNL     1      42.150  -9.973   7.024  1.00  0.00     0.020 A 
HETATM   13  C   UNL     1      43.446 -10.346   7.409  1.00  0.00     0.101 A 
HETATM   14  C   UNL     1      43.892 -10.045   8.705  1.00  0.00     0.069 A 
HETATM   15 CL   UNL     1      45.511 -10.371   9.209  1.00  0.00    -0.081 Cl
HETATM   16  C   UNL     1      43.032  -9.437   9.624  1.00  0.00     0.050 A 
HETATM   17  C   UNL     1      41.735  -9.109   9.240  1.00  0.00     0.036 A 
HETATM   18 CL   UNL     1      40.675  -8.360  10.370  1.00  0.00    -0.084 Cl
HETATM   19  C   UNL     1      41.289  -9.365   7.947  1.00  0.00     0.039 A 
BRANCH  13  20
HETATM   20  O   UNL     1      44.280 -10.925   6.485  1.00  0.00    -0.353 OA
HETATM   21  C   UNL     1      44.321 -12.345   6.653  1.00  0.00     0.210 C 
ENDBRANCH  13  20
ENDBRANCH  11  12
ENDBRANCH   7  10
ENDBRANCH   1   6
BRANCH   5  22
HETATM   22  C   UNL     1      40.419 -13.344   1.708  1.00  0.00     0.296 C 
BRANCH  22  23
HETATM   23  N   UNL     1      41.512 -14.250   2.257  1.00  0.00    -0.066 N 
HETATM   24  H   UNL     1      42.407 -13.755   2.063  1.00  0.00     0.280 HD
HETATM   25  C   UNL     1      41.416 -14.418   3.751  1.00  0.00     0.235 C 
HETATM   26  C   UNL     1      42.658 -15.071   4.344  1.00  0.00     0.028 C 
HETATM   27  C   UNL     1      42.741 -16.567   4.062  1.00  0.00     0.002 C 
HETATM   28  C   UNL     1      43.393 -16.931   2.735  1.00  0.00     0.002 C 
HETATM   29  C   UNL     1      43.011 -16.102   1.512  1.00  0.00     0.028 C 
HETATM   30  C   UNL     1      41.591 -15.554   1.489  1.00  0.00     0.235 C 
ENDBRANCH  22  23
ENDBRANCH   5  22
BRANCH   4  31
HETATM   31  C   UNL     1      40.097 -12.799  -1.358  1.00  0.00     0.229 A 
HETATM   32  N   UNL     1      38.956 -13.441  -1.101  1.00  0.00    -0.081 NA
HETATM   33  O   UNL     1      38.744 -14.214  -2.246  1.00  0.00    -0.103 OA
HETATM   34  N   UNL     1      39.759 -14.026  -3.174  1.00  0.00    -0.083 NA
HETATM   35  C   UNL     1      40.600 -13.155  -2.623  1.00  0.00     0.201 A 
BRANCH  35  36
HETATM   36  N   UNL     1      41.723 -12.707  -3.208  1.00  0.00    -0.379 N 
HETATM   37  H   UNL     1      41.683 -12.334  -4.153  1.00  0.00     0.158 HD
HETATM   38  H   UNL     1      42.657 -12.970  -2.901  1.00  0.00     0.158 HD
ENDBRANCH  35  36
ENDBRANCH   4  31
TORSDOF 8
ENDMDL
MODEL 3
REMARK VINA RESULT:      -8.2      3.712      5.855
REMARK  8 active torsions:
REMARK  status: ('A' for Active; 'I' for Inactive)
REMARK    1  A    between atoms: O_2  and  C_3 
REMARK    2  A    between atoms: C_10  and  C_11 
REMARK    3  A    between atoms: N_12  and  N_13 
REMARK       I    between atoms: N_13  and  C_14 
REMARK    4  A    between atoms: C_14  and  C_15 
REMARK    5  A    between atoms: N_18  and  C_19 
REMARK    6  A    between atoms: C_23  and  N_24 
REMARK    7  A    between atoms: C_25  and  C_26 
REMARK    8  A    between atoms: C_26  and  N_27 
ROOT
HETATM    1  C   UNL     1      43.805 -11.738   4.205  1.00  0.00     0.176 C 
HETATM    2  N   UNL     1      45.091 -11.283   4.229  1.00  0.00    -0.124 NA
HETATM    3  N   UNL     1      45.394 -10.975   5.476  1.00  0.00    -0.058 NA
HETATM    4  N   UNL     1      44.298 -11.149   6.262  1.00  0.00    -0.191 N 
HETATM    5  C   UNL     1      43.298 -11.768   5.500  1.00  0.00     0.102 C 
ENDROOT
BRANCH   1   6
HETATM    6  C   UNL     1      43.133 -12.125   2.972  1.00  0.00     0.294 C 
HETATM    7  N   UNL     1      42.298 -11.157   2.452  1.00  0.00    -0.242 N 
HETATM    8  H   UNL     1      42.184 -10.266   2.931  1.00  0.00     0.192 HD
HETATM    9  O   UNL     1      43.344 -13.232   2.475  1.00  0.00    -0.264 OA
BRANCH   7  10
HETATM   10  N   UNL     1      41.619 -11.407   1.298  1.00  0.00    -0.183 NA
HETATM   11  C   UNL     1      40.415 -11.867   1.439  1.00  0.00     0.153 C 
BRANCH  11  12
HETATM   12  C   UNL     1      39.572 -12.185   0.266  1.00  0.00     0.020 A 
HETATM   13  C   UNL     1      39.731 -13.404  -0.408  1.00  0.00     0.101 A 
HETATM   14  C   UNL     1      38.871 -13.718  -1.472  1.00  0.00     0.069 A 
HETATM   15 CL   UNL     1      38.935 -15.247  -2.272  1.00  0.00    -0.081 Cl
HETATM   16  C   UNL     1      37.907 -12.800  -1.895  1.00  0.00     0.050 A 
HETATM   17  C   UNL     1      37.788 -11.576  -1.242  1.00  0.00     0.036 A 
HETATM   18 CL   UNL     1      36.601 -10.444  -1.763  1.00  0.00    -0.084 Cl
HETATM   19  C   UNL     1      38.607 -11.265  -0.161  1.00  0.00     0.039 A 
BRANCH  13  20
HETATM   20  O   UNL     1      40.671 -14.299   0.037  1.00  0.00    -0.353 OA
HETATM   21  C   UNL     1      40.082 -15.265   0.914  1.00  0.00     0.210 C 
ENDBRANCH  13  20
ENDBRANCH  11  12
ENDBRANCH   7  10
ENDBRANCH   1   6
BRANCH   5  22
HETATM   22  C   UNL     1      41.985 -12.199   6.059  1.00  0.00     0.296 C 
BRANCH  22  23
HETATM   23  N   UNL     1      41.835 -13.685   6.355  1.00  0.00    -0.066 N 
HETATM   24  H   UNL     1      41.210 -13.741   7.186  1.00  0.00     0.280 HD
HETATM   25  C   UNL     1      41.149 -14.422   5.236  1.00  0.00     0.235 C 
HETATM   26  C   UNL     1      40.731 -15.831   5.637  1.00  0.00     0.028 C 
HETATM   27  C   UNL     1      41.903 -16.803   5.717  1.00  0.00     0.002 C 
HETATM   28  C   UNL     1      42.627 -16.820   7.057  1.00  0.00     0.002 C 
HETATM   29  C   UNL     1      42.904 -15.477   7.725  1.00  0.00     0.028 C 
HETATM   30  C   UNL     1      43.149 -14.300   6.790  1.00  0.00     0.235 C 
ENDBRANCH  22  23
ENDBRANCH   5  22
BRANCH   4  31
HETATM   31  C   UNL     1      44.263 -10.710   7.608  1.00  0.00     0.229 A 
HETATM   32  N   UNL     1      44.975 -11.346   8.541  1.00  0.00    -0.081 NA
HETATM   33  O   UNL     1      44.667 -10.661   9.719  1.00  0.00    -0.103 OA
HETATM   34  N   UNL     1      43.777  -9.624   9.479  1.00  0.00    -0.083 NA
HETATM   35  C   UNL     1      43.521  -9.658   8.173  1.00  0.00     0.201 A 
BRANCH  35  36
HETATM   36  N   UNL     1      42.697  -8.809   7.537  1.00  0.00    -0.379 N 
HETATM   37  H   UNL     1      41.946  -9.177   6.959  1.00  0.00     0.158 HD
HETATM   38  H   UNL     1      42.931  -7.836   7.351  1.00  0.00     0.158 HD
ENDBRANCH  35  36
ENDBRANCH   4  31
TORSDOF 8
ENDMDL
MODEL 4
REMARK VINA RESULT:      -8.2      2.589      4.725
REMARK  8 active torsions:
REMARK  status: ('A' for Active; 'I' for Inactive)
REMARK    1  A    between atoms: O_2  and  C_3 
REMARK    2  A    between atoms: C_10  and  C_11 
REMARK    3  A    between atoms: N_12  and  N_13 
REMARK       I    between atoms: N_13  and  C_14 
REMARK    4  A    between atoms: C_14  and  C_15 
REMARK    5  A    between atoms: N_18  and  C_19 
REMARK    6  A    between atoms: C_23  and  N_24 
REMARK    7  A    between atoms: C_25  and  C_26 
REMARK    8  A    between atoms: C_26  and  N_27 
ROOT
HETATM    1  C   UNL     1      44.338  -9.213   8.258  1.00  0.00     0.176 C 
HETATM    2  N   UNL     1      45.280  -8.227   8.271  1.00  0.00    -0.124 NA
HETATM    3  N   UNL     1      44.707  -7.116   8.695  1.00  0.00    -0.058 NA
HETATM    4  N   UNL     1      43.380  -7.340   8.888  1.00  0.00    -0.191 N 
HETATM    5  C   UNL     1      43.135  -8.713   8.746  1.00  0.00     0.102 C 
ENDROOT
BRANCH   1   6
HETATM    6  C   UNL     1      44.624 -10.565   7.798  1.00  0.00     0.294 C 
HETATM    7  N   UNL     1      43.895 -10.955   6.692  1.00  0.00    -0.242 N 
HETATM    8  H   UNL     1      43.218 -10.319   6.274  1.00  0.00     0.192 HD
HETATM    9  O   UNL     1      45.465 -11.250   8.379  1.00  0.00    -0.264 OA
BRANCH   7  10
HETATM   10  N   UNL     1      44.082 -12.199   6.171  1.00  0.00    -0.183 NA
HETATM   11  C   UNL     1      43.014 -12.800   5.746  1.00  0.00     0.153 C 
BRANCH  11  12
HETATM   12  C   UNL     1      43.078 -14.157   5.163  1.00  0.00     0.020 A 
HETATM   13  C   UNL     1      43.060 -14.330   3.771  1.00  0.00     0.101 A 
HETATM   14  C   UNL     1      43.198 -15.620   3.237  1.00  0.00     0.069 A 
HETATM   15 CL   UNL     1      43.299 -15.894   1.535  1.00  0.00    -0.081 Cl
HETATM   16  C   UNL     1      43.288 -16.728   4.083  1.00  0.00     0.050 A 
HETATM   17  C   UNL     1      43.263 -16.546   5.462  1.00  0.00     0.036 A 
HETATM   18 CL   UNL     1      43.374 -17.910   6.505  1.00  0.00    -0.084 Cl
HETATM   19  C   UNL     1      43.167 -15.269   6.009  1.00  0.00     0.039 A 
BRANCH  13  20
HETATM   20  O   UNL     1      42.990 -13.225   2.960  1.00  0.00    -0.353 OA
HETATM   21  C   UNL     1      41.660 -13.039   2.464  1.00  0.00     0.210 C 
ENDBRANCH  13  20
ENDBRANCH  11  12
ENDBRANCH   7  10
ENDBRANCH   1   6
BRANCH   5  22
HETATM   22  C   UNL     1      41.804  -9.340   8.981  1.00  0.00     0.296 C 
BRANCH  22  23
HETATM   23  N   UNL     1      41.517  -9.797  10.404  1.00  0.00    -0.066 N 
HETATM   24  H   UNL     1      41.381 -10.828  10.343  1.00  0.00     0.280 HD
HETATM   25  C   UNL     1      42.684  -9.560  11.325  1.00  0.00     0.235 C 
HETATM   26  C   UNL     1      42.524 -10.272  12.663  1.00  0.00     0.028 C 
HETATM   27  C   UNL     1      41.510  -9.600  13.581  1.00  0.00     0.002 C 
HETATM   28  C   UNL     1      40.067 -10.039  13.369  1.00  0.00     0.002 C 
HETATM   29  C   UNL     1      39.580 -10.187  11.931  1.00  0.00     0.028 C 
HETATM   30  C   UNL     1      40.201  -9.242  10.912  1.00  0.00     0.235 C 
ENDBRANCH  22  23
ENDBRANCH   5  22
BRANCH   4  31
HETATM   31  C   UNL     1      42.472  -6.286   9.150  1.00  0.00     0.229 A 
HETATM   32  N   UNL     1      41.900  -5.625   8.142  1.00  0.00    -0.081 NA
HETATM   33  O   UNL     1      41.114  -4.661   8.779  1.00  0.00    -0.103 OA
HETATM   34  N   UNL     1      41.223  -4.755  10.159  1.00  0.00    -0.083 NA
HETATM   35  C   UNL     1      42.069  -5.757  10.390  1.00  0.00     0.201 A 
BRANCH  35  36
HETATM   36  N   UNL     1      42.443  -6.170  11.612  1.00  0.00    -0.379 N 
HETATM   37  H   UNL     1      41.752  -6.580  12.236  1.00  0.00     0.158 HD
HETATM   38  H   UNL     1      43.290  -5.850  12.076  1.00  0.00     0.158 HD
ENDBRANCH  35  36
ENDBRANCH   4  31
TORSDOF 8
ENDMDL
MODEL 5
REMARK VINA RESULT:      -8.1      2.500      4.429
REMARK  8 active torsions:
REMARK  status: ('A' for Active; 'I' for Inactive)
REMARK    1  A    between atoms: O_2  and  C_3 
REMARK    2  A    between atoms: C_10  and  C_11 
REMARK    3  A    between atoms: N_12  and  N_13 
REMARK       I    between atoms: N_13  and  C_14 
REMARK    4  A    between atoms: C_14  and  C_15 
REMARK    5  A    between atoms: N_18  and  C_19 
REMARK    6  A    between atoms: C_23  and  N_24 
REMARK    7  A    between atoms: C_25  and  C_26 
REMARK    8  A    between atoms: C_26  and  N_27 
ROOT
HETATM    1  C   UNL     1      44.450  -9.294   8.095  1.00  0.00     0.176 C 
HETATM    2  N   UNL     1      45.416  -8.333   8.137  1.00  0.00    -0.124 NA
HETATM    3  N   UNL     1      44.896  -7.250   8.683  1.00  0.00    -0.058 NA
HETATM    4  N   UNL     1      43.577  -7.461   8.932  1.00  0.00    -0.191 N 
HETATM    5  C   UNL     1      43.289  -8.811   8.691  1.00  0.00     0.102 C 
ENDROOT
BRANCH   1   6
HETATM    6  C   UNL     1      44.674 -10.608   7.509  1.00  0.00     0.294 C 
HETATM    7  N   UNL     1      44.028 -10.811   6.306  1.00  0.00    -0.242 N 
HETATM    8  H   UNL     1      43.446 -10.078   5.906  1.00  0.00     0.192 HD
HETATM    9  O   UNL     1      45.401 -11.422   8.079  1.00  0.00    -0.264 OA
BRANCH   7  10
HETATM   10  N   UNL     1      44.170 -12.004   5.663  1.00  0.00    -0.183 NA
HETATM   11  C   UNL     1      43.109 -12.749   5.617  1.00  0.00     0.153 C 
BRANCH  11  12
HETATM   12  C   UNL     1      43.129 -14.071   4.954  1.00  0.00     0.020 A 
HETATM   13  C   UNL     1      43.529 -15.213   5.663  1.00  0.00     0.101 A 
HETATM   14  C   UNL     1      43.468 -16.467   5.037  1.00  0.00     0.069 A 
HETATM   15 CL   UNL     1      43.836 -17.925   5.885  1.00  0.00    -0.081 Cl
HETATM   16  C   UNL     1      43.074 -16.571   3.701  1.00  0.00     0.050 A 
HETATM   17  C   UNL     1      42.718 -15.424   2.996  1.00  0.00     0.036 A 
HETATM   18 CL   UNL     1      42.231 -15.550   1.351  1.00  0.00    -0.084 Cl
HETATM   19  C   UNL     1      42.735 -14.176   3.614  1.00  0.00     0.039 A 
BRANCH  13  20
HETATM   20  O   UNL     1      43.895 -15.089   6.980  1.00  0.00    -0.353 OA
HETATM   21  C   UNL     1      42.826 -15.485   7.846  1.00  0.00     0.210 C 
ENDBRANCH  13  20
ENDBRANCH  11  12
ENDBRANCH   7  10
ENDBRANCH   1   6
BRANCH   5  22
HETATM   22  C   UNL     1      41.956  -9.427   8.948  1.00  0.00     0.296 C 
BRANCH  22  23
HETATM   23  N   UNL     1      41.661  -9.814  10.391  1.00  0.00    -0.066 N 
HETATM   24  H   UNL     1      41.422 -10.827  10.363  1.00  0.00     0.280 HD
HETATM   25  C   UNL     1      42.868  -9.670  11.278  1.00  0.00     0.235 C 
HETATM   26  C   UNL     1      42.672 -10.325  12.640  1.00  0.00     0.028 C 
HETATM   27  C   UNL     1      41.753  -9.529  13.560  1.00  0.00     0.002 C 
HETATM   28  C   UNL     1      40.269  -9.828  13.393  1.00  0.00     0.002 C 
HETATM   29  C   UNL     1      39.734  -9.966  11.971  1.00  0.00     0.028 C 
HETATM   30  C   UNL     1      40.421  -9.116  10.910  1.00  0.00     0.235 C 
ENDBRANCH  22  23
ENDBRANCH   5  22
BRANCH   4  31
HETATM   31  C   UNL     1      42.712  -6.413   9.332  1.00  0.00     0.229 A 
HETATM   32  N   UNL     1      42.606  -6.084  10.621  1.00  0.00    -0.081 NA
HETATM   33  O   UNL     1      41.660  -5.056  10.626  1.00  0.00    -0.103 OA
HETATM   34  N   UNL     1      41.211  -4.781   9.342  1.00  0.00    -0.083 NA
HETATM   35  C   UNL     1      41.857  -5.625   8.541  1.00  0.00     0.201 A 
BRANCH  35  36
HETATM   36  N   UNL     1      41.701  -5.679   7.208  1.00  0.00    -0.379 N 
HETATM   37  H   UNL     1      42.516  -5.798   6.612  1.00  0.00     0.158 HD
HETATM   38  H   UNL     1      40.877  -5.326   6.726  1.00  0.00     0.158 HD
ENDBRANCH  35  36
ENDBRANCH   4  31
TORSDOF 8
ENDMDL
MODEL 6
REMARK VINA RESULT:      -8.1      3.880      6.115
REMARK  8 active torsions:
REMARK  status: ('A' for Active; 'I' for Inactive)
REMARK    1  A    between atoms: O_2  and  C_3 
REMARK    2  A    between atoms: C_10  and  C_11 
REMARK    3  A    between atoms: N_12  and  N_13 
REMARK       I    between atoms: N_13  and  C_14 
REMARK    4  A    between atoms: C_14  and  C_15 
REMARK    5  A    between atoms: N_18  and  C_19 
REMARK    6  A    between atoms: C_23  and  N_24 
REMARK    7  A    between atoms: C_25  and  C_26 
REMARK    8  A    between atoms: C_26  and  N_27 
ROOT
HETATM    1  C   UNL     1      41.416 -11.195   4.839  1.00  0.00     0.176 C 
HETATM    2  N   UNL     1      41.369  -9.865   5.134  1.00  0.00    -0.124 NA
HETATM    3  N   UNL     1      42.317  -9.604   6.013  1.00  0.00    -0.058 NA
HETATM    4  N   UNL     1      42.940 -10.762   6.360  1.00  0.00    -0.191 N 
HETATM    5  C   UNL     1      42.476 -11.785   5.522  1.00  0.00     0.102 C 
ENDROOT
BRANCH   1   6
HETATM    6  C   UNL     1      40.474 -11.832   3.930  1.00  0.00     0.294 C 
HETATM    7  N   UNL     1      40.417 -11.258   2.676  1.00  0.00    -0.242 N 
HETATM    8  H   UNL     1      40.997 -10.451   2.454  1.00  0.00     0.192 HD
HETATM    9  O   UNL     1      39.820 -12.807   4.302  1.00  0.00    -0.264 OA
BRANCH   7  10
HETATM   10  N   UNL     1      39.573 -11.774   1.741  1.00  0.00    -0.183 NA
HETATM   11  C   UNL     1      39.931 -11.611   0.505  1.00  0.00     0.153 C 
BRANCH  11  12
HETATM   12  C   UNL     1      39.101 -12.119  -0.608  1.00  0.00     0.020 A 
HETATM   13  C   UNL     1      39.340 -13.392  -1.145  1.00  0.00     0.101 A 
HETATM   14  C   UNL     1      38.493 -13.885  -2.150  1.00  0.00     0.069 A 
HETATM   15 CL   UNL     1      38.660 -15.486  -2.775  1.00  0.00    -0.081 Cl
HETATM   16  C   UNL     1      37.461 -13.092  -2.655  1.00  0.00     0.050 A 
HETATM   17  C   UNL     1      37.259 -11.814  -2.141  1.00  0.00     0.036 A 
HETATM   18 CL   UNL     1      35.987 -10.835  -2.761  1.00  0.00    -0.084 Cl
HETATM   19  C   UNL     1      38.066 -11.324  -1.117  1.00  0.00     0.039 A 
BRANCH  13  20
HETATM   20  O   UNL     1      40.349 -14.162  -0.621  1.00  0.00    -0.353 OA
HETATM   21  C   UNL     1      39.831 -15.115   0.313  1.00  0.00     0.210 C 
ENDBRANCH  13  20
ENDBRANCH  11  12
ENDBRANCH   7  10
ENDBRANCH   1   6
BRANCH   5  22
HETATM   22  C   UNL     1      43.006 -13.177   5.552  1.00  0.00     0.296 C 
BRANCH  22  23
HETATM   23  N   UNL     1      42.694 -14.042   4.338  1.00  0.00    -0.066 N 
HETATM   24  H   UNL     1      41.679 -13.903   4.152  1.00  0.00     0.280 HD
HETATM   25  C   UNL     1      43.434 -13.587   3.109  1.00  0.00     0.235 C 
HETATM   26  C   UNL     1      42.914 -14.247   1.838  1.00  0.00     0.028 C 
HETATM   27  C   UNL     1      43.343 -15.704   1.702  1.00  0.00     0.002 C 
HETATM   28  C   UNL     1      42.428 -16.706   2.393  1.00  0.00     0.002 C 
HETATM   29  C   UNL     1      41.919 -16.350   3.787  1.00  0.00     0.028 C 
HETATM   30  C   UNL     1      42.855 -15.516   4.651  1.00  0.00     0.235 C 
ENDBRANCH  22  23
ENDBRANCH   5  22
BRANCH   4  31
HETATM   31  C   UNL     1      43.866 -10.824   7.430  1.00  0.00     0.229 A 
HETATM   32  N   UNL     1      43.442 -10.720   8.691  1.00  0.00    -0.081 NA
HETATM   33  O   UNL     1      44.618 -10.792   9.444  1.00  0.00    -0.103 OA
HETATM   34  N   UNL     1      45.729 -10.940   8.626  1.00  0.00    -0.083 NA
HETATM   35  C   UNL     1      45.265 -10.953   7.379  1.00  0.00     0.201 A 
BRANCH  35  36
HETATM   36  N   UNL     1      46.032 -11.080   6.283  1.00  0.00    -0.379 N 
HETATM   37  H   UNL     1      46.682 -11.859   6.213  1.00  0.00     0.158 HD
HETATM   38  H   UNL     1      46.227 -10.312   5.645  1.00  0.00     0.158 HD
ENDBRANCH  35  36
ENDBRANCH   4  31
TORSDOF 8
ENDMDL
MODEL 7
REMARK VINA RESULT:      -8.0      1.328      2.335
REMARK  8 active torsions:
REMARK  status: ('A' for Active; 'I' for Inactive)
REMARK    1  A    between atoms: O_2  and  C_3 
REMARK    2  A    between atoms: C_10  and  C_11 
REMARK    3  A    between atoms: N_12  and  N_13 
REMARK       I    between atoms: N_13  and  C_14 
REMARK    4  A    between atoms: C_14  and  C_15 
REMARK    5  A    between atoms: N_18  and  C_19 
REMARK    6  A    between atoms: C_23  and  N_24 
REMARK    7  A    between atoms: C_25  and  C_26 
REMARK    8  A    between atoms: C_26  and  N_27 
ROOT
HETATM    1  C   UNL     1      39.606 -10.507   7.547  1.00  0.00     0.176 C 
HETATM    2  N   UNL     1      38.507 -10.813   8.293  1.00  0.00    -0.124 NA
HETATM    3  N   UNL     1      38.548 -10.095   9.400  1.00  0.00    -0.058 NA
HETATM    4  N   UNL     1      39.702  -9.376   9.427  1.00  0.00    -0.191 N 
HETATM    5  C   UNL     1      40.341  -9.514   8.188  1.00  0.00     0.102 C 
ENDROOT
BRANCH   1   6
HETATM    6  C   UNL     1      39.897 -11.156   6.276  1.00  0.00     0.294 C 
HETATM    7  N   UNL     1      40.758 -12.231   6.371  1.00  0.00    -0.242 N 
HETATM    8  H   UNL     1      41.140 -12.505   7.274  1.00  0.00     0.192 HD
HETATM    9  O   UNL     1      39.378 -10.743   5.239  1.00  0.00    -0.264 OA
BRANCH   7  10
HETATM   10  N   UNL     1      41.098 -12.918   5.245  1.00  0.00    -0.183 NA
HETATM   11  C   UNL     1      40.530 -14.074   5.096  1.00  0.00     0.153 C 
BRANCH  11  12
HETATM   12  C   UNL     1      40.817 -14.924   3.920  1.00  0.00     0.020 A 
HETATM   13  C   UNL     1      40.156 -14.695   2.704  1.00  0.00     0.101 A 
HETATM   14  C   UNL     1      40.497 -15.463   1.581  1.00  0.00     0.069 A 
HETATM   15 CL   UNL     1      39.806 -15.159   0.027  1.00  0.00    -0.081 Cl
HETATM   16  C   UNL     1      41.440 -16.488   1.686  1.00  0.00     0.050 A 
HETATM   17  C   UNL     1      42.059 -16.731   2.909  1.00  0.00     0.036 A 
HETATM   18 CL   UNL     1      43.221 -17.993   3.041  1.00  0.00    -0.084 Cl
HETATM   19  C   UNL     1      41.761 -15.953   4.024  1.00  0.00     0.039 A 
BRANCH  13  20
HETATM   20  O   UNL     1      39.246 -13.670   2.619  1.00  0.00    -0.353 OA
HETATM   21  C   UNL     1      39.826 -12.524   1.987  1.00  0.00     0.210 C 
ENDBRANCH  13  20
ENDBRANCH  11  12
ENDBRANCH   7  10
ENDBRANCH   1   6
BRANCH   5  22
HETATM   22  C   UNL     1      41.591  -8.790   7.821  1.00  0.00     0.296 C 
BRANCH  22  23
HETATM   23  N   UNL     1      42.895  -9.408   8.308  1.00  0.00    -0.066 N 
HETATM   24  H   UNL     1      42.622 -10.078   9.058  1.00  0.00     0.280 HD
HETATM   25  C   UNL     1      43.584 -10.206   7.234  1.00  0.00     0.235 C 
HETATM   26  C   UNL     1      44.720 -11.061   7.782  1.00  0.00     0.028 C 
HETATM   27  C   UNL     1      45.960 -10.252   8.141  1.00  0.00     0.002 C 
HETATM   28  C   UNL     1      45.953  -9.664   9.546  1.00  0.00     0.002 C 
HETATM   29  C   UNL     1      44.653  -9.038  10.041  1.00  0.00     0.028 C 
HETATM   30  C   UNL     1      43.779  -8.379   8.983  1.00  0.00     0.235 C 
ENDBRANCH  22  23
ENDBRANCH   5  22
BRANCH   4  31
HETATM   31  C   UNL     1      40.117  -8.666  10.580  1.00  0.00     0.229 A 
HETATM   32  N   UNL     1      39.669  -7.430  10.805  1.00  0.00    -0.081 NA
HETATM   33  O   UNL     1      40.307  -7.055  11.991  1.00  0.00    -0.103 OA
HETATM   34  N   UNL     1      41.128  -8.070  12.461  1.00  0.00    -0.083 NA
HETATM   35  C   UNL     1      41.016  -9.065  11.586  1.00  0.00     0.201 A 
BRANCH  35  36
HETATM   36  N   UNL     1      41.659 -10.240  11.683  1.00  0.00    -0.379 N 
HETATM   37  H   UNL     1      42.521 -10.386  11.162  1.00  0.00     0.158 HD
HETATM   38  H   UNL     1      41.214 -11.097  12.004  1.00  0.00     0.158 HD
ENDBRANCH  35  36
ENDBRANCH   4  31
TORSDOF 8
ENDMDL
MODEL 8
REMARK VINA RESULT:      -7.9      2.105      3.542
REMARK  8 active torsions:
REMARK  status: ('A' for Active; 'I' for Inactive)
REMARK    1  A    between atoms: O_2  and  C_3 
REMARK    2  A    between atoms: C_10  and  C_11 
REMARK    3  A    between atoms: N_12  and  N_13 
REMARK       I    between atoms: N_13  and  C_14 
REMARK    4  A    between atoms: C_14  and  C_15 
REMARK    5  A    between atoms: N_18  and  C_19 
REMARK    6  A    between atoms: C_23  and  N_24 
REMARK    7  A    between atoms: C_25  and  C_26 
REMARK    8  A    between atoms: C_26  and  N_27 
ROOT
HETATM    1  C   UNL     1      44.179 -10.823   8.261  1.00  0.00     0.176 C 
HETATM    2  N   UNL     1      44.998 -10.922   9.347  1.00  0.00    -0.124 NA
HETATM    3  N   UNL     1      44.637 -10.001  10.220  1.00  0.00    -0.058 NA
HETATM    4  N   UNL     1      43.639  -9.245   9.690  1.00  0.00    -0.191 N 
HETATM    5  C   UNL     1      43.229  -9.832   8.486  1.00  0.00     0.102 C 
ENDROOT
BRANCH   1   6
HETATM    6  C   UNL     1      44.331 -11.666   7.084  1.00  0.00     0.294 C 
HETATM    7  N   UNL     1      43.479 -12.753   7.051  1.00  0.00    -0.242 N 
HETATM    8  H   UNL     1      42.824 -12.916   7.813  1.00  0.00     0.192 HD
HETATM    9  O   UNL     1      45.156 -11.376   6.218  1.00  0.00    -0.264 OA
BRANCH   7  10
HETATM   10  N   UNL     1      43.529 -13.610   5.993  1.00  0.00    -0.183 NA
HETATM   11  C   UNL     1      42.466 -14.327   5.797  1.00  0.00     0.153 C 
BRANCH  11  12
HETATM   12  C   UNL     1      42.392 -15.301   4.687  1.00  0.00     0.020 A 
HETATM   13  C   UNL     1      43.285 -16.380   4.631  1.00  0.00     0.101 A 
HETATM   14  C   UNL     1      43.148 -17.334   3.611  1.00  0.00     0.069 A 
HETATM   15 CL   UNL     1      44.139 -18.747   3.549  1.00  0.00    -0.081 Cl
HETATM   16  C   UNL     1      42.173 -17.176   2.623  1.00  0.00     0.050 A 
HETATM   17  C   UNL     1      41.320 -16.077   2.667  1.00  0.00     0.036 A 
HETATM   18 CL   UNL     1      40.118 -15.882   1.451  1.00  0.00    -0.084 Cl
HETATM   19  C   UNL     1      41.416 -15.143   3.694  1.00  0.00     0.039 A 
BRANCH  13  20
HETATM   20  O   UNL     1      44.222 -16.526   5.623  1.00  0.00    -0.353 OA
HETATM   21  C   UNL     1      43.727 -17.357   6.677  1.00  0.00     0.210 C 
ENDBRANCH  13  20
ENDBRANCH  11  12
ENDBRANCH   7  10
ENDBRANCH   1   6
BRANCH   5  22
HETATM   22  C   UNL     1      42.088  -9.326   7.671  1.00  0.00     0.296 C 
BRANCH  22  23
HETATM   23  N   UNL     1      41.562 -10.265   6.594  1.00  0.00    -0.066 N 
HETATM   24  H   UNL     1      42.133 -11.132   6.678  1.00  0.00     0.280 HD
HETATM   25  C   UNL     1      40.127 -10.657   6.830  1.00  0.00     0.235 C 
HETATM   26  C   UNL     1      39.685 -11.811   5.939  1.00  0.00     0.028 C 
HETATM   27  C   UNL     1      39.458 -11.397   4.490  1.00  0.00     0.002 C 
HETATM   28  C   UNL     1      40.704 -11.424   3.615  1.00  0.00     0.002 C 
HETATM   29  C   UNL     1      41.995 -10.870   4.211  1.00  0.00     0.028 C 
HETATM   30  C   UNL     1      41.839  -9.727   5.205  1.00  0.00     0.235 C 
ENDBRANCH  22  23
ENDBRANCH   5  22
BRANCH   4  31
HETATM   31  C   UNL     1      43.186  -8.057  10.314  1.00  0.00     0.229 A 
HETATM   32  N   UNL     1      43.238  -6.894   9.664  1.00  0.00    -0.081 NA
HETATM   33  O   UNL     1      42.747  -5.971  10.591  1.00  0.00    -0.103 OA
HETATM   34  N   UNL     1      42.406  -6.592  11.784  1.00  0.00    -0.083 NA
HETATM   35  C   UNL     1      42.683  -7.882  11.616  1.00  0.00     0.201 A 
BRANCH  35  36
HETATM   36  N   UNL     1      42.492  -8.829  12.550  1.00  0.00    -0.379 N 
HETATM   37  H   UNL     1      42.894  -8.709  13.476  1.00  0.00     0.158 HD
HETATM   38  H   UNL     1      42.227  -9.786  12.330  1.00  0.00     0.158 HD
ENDBRANCH  35  36
ENDBRANCH   4  31
TORSDOF 8
ENDMDL
MODEL 9
REMARK VINA RESULT:      -7.7      2.268      4.161
REMARK  8 active torsions:
REMARK  status: ('A' for Active; 'I' for Inactive)
REMARK    1  A    between atoms: O_2  and  C_3 
REMARK    2  A    between atoms: C_10  and  C_11 
REMARK    3  A    between atoms: N_12  and  N_13 
REMARK       I    between atoms: N_13  and  C_14 
REMARK    4  A    between atoms: C_14  and  C_15 
REMARK    5  A    between atoms: N_18  and  C_19 
REMARK    6  A    between atoms: C_23  and  N_24 
REMARK    7  A    between atoms: C_25  and  C_26 
REMARK    8  A    between atoms: C_26  and  N_27 
ROOT
HETATM    1  C   UNL     1      43.942 -10.788   8.578  1.00  0.00     0.176 C 
HETATM    2  N   UNL     1      44.264 -10.968   9.891  1.00  0.00    -0.124 NA
HETATM    3  N   UNL     1      43.785  -9.947  10.575  1.00  0.00    -0.058 NA
HETATM    4  N   UNL     1      43.216  -9.057   9.719  1.00  0.00    -0.191 N 
HETATM    5  C   UNL     1      43.180  -9.632   8.441  1.00  0.00     0.102 C 
ENDROOT
BRANCH   1   6
HETATM    6  C   UNL     1      44.359 -11.713   7.533  1.00  0.00     0.294 C 
HETATM    7  N   UNL     1      43.539 -12.815   7.390  1.00  0.00    -0.242 N 
HETATM    8  H   UNL     1      42.728 -12.933   7.994  1.00  0.00     0.192 HD
HETATM    9  O   UNL     1      45.359 -11.472   6.858  1.00  0.00    -0.264 OA
BRANCH   7  10
HETATM   10  N   UNL     1      43.829 -13.746   6.440  1.00  0.00    -0.183 NA
HETATM   11  C   UNL     1      42.879 -14.584   6.161  1.00  0.00     0.153 C 
BRANCH  11  12
HETATM   12  C   UNL     1      43.066 -15.648   5.151  1.00  0.00     0.020 A 
HETATM   13  C   UNL     1      42.810 -15.391   3.797  1.00  0.00     0.101 A 
HETATM   14  C   UNL     1      43.065 -16.391   2.847  1.00  0.00     0.069 A 
HETATM   15 CL   UNL     1      42.881 -16.106   1.154  1.00  0.00    -0.081 Cl
HETATM   16  C   UNL     1      43.511 -17.652   3.251  1.00  0.00     0.050 A 
HETATM   17  C   UNL     1      43.723 -17.906   4.604  1.00  0.00     0.036 A 
HETATM   18 CL   UNL     1      44.272 -19.459   5.103  1.00  0.00    -0.084 Cl
HETATM   19  C   UNL     1      43.511 -16.913   5.556  1.00  0.00     0.039 A 
BRANCH  13  20
HETATM   20  O   UNL     1      42.390 -14.139   3.420  1.00  0.00    -0.353 OA
HETATM   21  C   UNL     1      43.469 -13.388   2.855  1.00  0.00     0.210 C 
ENDBRANCH  13  20
ENDBRANCH  11  12
ENDBRANCH   7  10
ENDBRANCH   1   6
BRANCH   5  22
HETATM   22  C   UNL     1      42.540  -8.979   7.263  1.00  0.00     0.296 C 
BRANCH  22  23
HETATM   23  N   UNL     1      41.368  -9.721   6.638  1.00  0.00    -0.066 N 
HETATM   24  H   UNL     1      41.177 -10.525   7.272  1.00  0.00     0.280 HD
HETATM   25  C   UNL     1      40.117  -8.883   6.600  1.00  0.00     0.235 C 
HETATM   26  C   UNL     1      38.879  -9.700   6.254  1.00  0.00     0.028 C 
HETATM   27  C   UNL     1      38.808 -10.085   4.781  1.00  0.00     0.002 C 
HETATM   28  C   UNL     1      39.545 -11.368   4.420  1.00  0.00     0.002 C 
HETATM   29  C   UNL     1      40.922 -11.587   5.040  1.00  0.00     0.028 C 
HETATM   30  C   UNL     1      41.746 -10.334   5.305  1.00  0.00     0.235 C 
ENDBRANCH  22  23
ENDBRANCH   5  22
BRANCH   4  31
HETATM   31  C   UNL     1      42.795  -7.773  10.142  1.00  0.00     0.229 A 
HETATM   32  N   UNL     1      43.367  -6.678   9.638  1.00  0.00    -0.081 NA
HETATM   33  O   UNL     1      42.725  -5.630  10.304  1.00  0.00    -0.103 OA
HETATM   34  N   UNL     1      41.777  -6.110  11.197  1.00  0.00    -0.083 NA
HETATM   35  C   UNL     1      41.823  -7.436  11.102  1.00  0.00     0.201 A 
BRANCH  35  36
HETATM   36  N   UNL     1      41.053  -8.277  11.811  1.00  0.00    -0.379 N 
HETATM   37  H   UNL     1      40.341  -7.903  12.432  1.00  0.00     0.158 HD
HETATM   38  H   UNL     1      41.307  -9.244  11.999  1.00  0.00     0.158 HD
ENDBRANCH  35  36
ENDBRANCH   4  31
TORSDOF 8
ENDMDL
MODEL 10
REMARK VINA RESULT:      -7.7      4.750      9.006
REMARK  8 active torsions:
REMARK  status: ('A' for Active; 'I' for Inactive)
REMARK    1  A    between atoms: O_2  and  C_3 
REMARK    2  A    between atoms: C_10  and  C_11 
REMARK    3  A    between atoms: N_12  and  N_13 
REMARK       I    between atoms: N_13  and  C_14 
REMARK    4  A    between atoms: C_14  and  C_15 
REMARK    5  A    between atoms: N_18  and  C_19 
REMARK    6  A    between atoms: C_23  and  N_24 
REMARK    7  A    between atoms: C_25  and  C_26 
REMARK    8  A    between atoms: C_26  and  N_27 
ROOT
HETATM    1  C   UNL     1      39.579 -12.138   2.353  1.00  0.00     0.176 C 
HETATM    2  N   UNL     1      38.392 -11.750   1.804  1.00  0.00    -0.124 NA
HETATM    3  N   UNL     1      38.427 -12.025   0.514  1.00  0.00    -0.058 NA
HETATM    4  N   UNL     1      39.652 -12.519   0.191  1.00  0.00    -0.191 N 
HETATM    5  C   UNL     1      40.371 -12.731   1.375  1.00  0.00     0.102 C 
ENDROOT
BRANCH   1   6
HETATM    6  C   UNL     1      39.896 -11.937   3.760  1.00  0.00     0.294 C 
HETATM    7  N   UNL     1      40.194 -10.631   4.095  1.00  0.00    -0.242 N 
HETATM    8  H   UNL     1      40.191  -9.905   3.381  1.00  0.00     0.192 HD
HETATM    9  O   UNL     1      39.869 -12.889   4.540  1.00  0.00    -0.264 OA
BRANCH   7  10
HETATM   10  N   UNL     1      40.502 -10.325   5.385  1.00  0.00    -0.183 NA
HETATM   11  C   UNL     1      41.766 -10.295   5.672  1.00  0.00     0.153 C 
BRANCH  11  12
HETATM   12  C   UNL     1      42.236  -9.980   7.039  1.00  0.00     0.020 A 
HETATM   13  C   UNL     1      43.543 -10.302   7.429  1.00  0.00     0.101 A 
HETATM   14  C   UNL     1      43.992  -9.927   8.705  1.00  0.00     0.069 A 
HETATM   15 CL   UNL     1      45.623 -10.189   9.209  1.00  0.00    -0.081 Cl
HETATM   16  C   UNL     1      43.126  -9.295   9.600  1.00  0.00     0.050 A 
HETATM   17  C   UNL     1      41.818  -9.018   9.214  1.00  0.00     0.036 A 
HETATM   18 CL   UNL     1      40.750  -8.240  10.316  1.00  0.00    -0.084 Cl
HETATM   19  C   UNL     1      41.368  -9.348   7.939  1.00  0.00     0.039 A 
BRANCH  13  20
HETATM   20  O   UNL     1      44.383 -10.905   6.526  1.00  0.00    -0.353 OA
HETATM   21  C   UNL     1      44.511 -12.304   6.803  1.00  0.00     0.210 C 
ENDBRANCH  13  20
ENDBRANCH  11  12
ENDBRANCH   7  10
ENDBRANCH   1   6
BRANCH   5  22
HETATM   22  C   UNL     1      41.725 -13.353   1.414  1.00  0.00     0.296 C 
BRANCH  22  23
HETATM   23  N   UNL     1      41.909 -14.501   2.397  1.00  0.00    -0.066 N 
HETATM   24  H   UNL     1      41.018 -14.554   2.933  1.00  0.00     0.280 HD
HETATM   25  C   UNL     1      42.083 -15.825   1.701  1.00  0.00     0.235 C 
HETATM   26  C   UNL     1      41.973 -17.005   2.658  1.00  0.00     0.028 C 
HETATM   27  C   UNL     1      43.203 -17.175   3.544  1.00  0.00     0.002 C 
HETATM   28  C   UNL     1      43.184 -16.353   4.826  1.00  0.00     0.002 C 
HETATM   29  C   UNL     1      42.697 -14.910   4.730  1.00  0.00     0.028 C 
HETATM   30  C   UNL     1      42.983 -14.191   3.419  1.00  0.00     0.235 C 
ENDBRANCH  22  23
ENDBRANCH   5  22
BRANCH   4  31
HETATM   31  C   UNL     1      40.050 -12.717  -1.153  1.00  0.00     0.229 A 
HETATM   32  N   UNL     1      41.068 -12.021  -1.662  1.00  0.00    -0.081 NA
HETATM   33  O   UNL     1      41.140 -12.457  -2.989  1.00  0.00    -0.103 OA
HETATM   34  N   UNL     1      40.166 -13.408  -3.258  1.00  0.00    -0.083 NA
HETATM   35  C   UNL     1      39.486 -13.565  -2.124  1.00  0.00     0.201 A 
BRANCH  35  36
HETATM   36  N   UNL     1      38.451 -14.407  -1.968  1.00  0.00    -0.379 N 
HETATM   37  H   UNL     1      38.581 -15.270  -1.447  1.00  0.00     0.158 HD
HETATM   38  H   UNL     1      37.627 -14.397  -2.565  1.00  0.00     0.158 HD
ENDBRANCH  35  36
ENDBRANCH   4  31
TORSDOF 8
ENDMDL
