MODEL 1
REMARK VINA RESULT:      -9.7      0.000      0.000
REMARK  5 active torsions:
REMARK  status: ('A' for Active; 'I' for Inactive)
REMARK       I    between atoms: C_2  and  N_3 
REMARK    1  A    between atoms: N_3  and  C_4 
REMARK    2  A    between atoms: C_5  and  C_6 
REMARK    3  A    between atoms: C_15  and  C_16 
REMARK       I    between atoms: C_16  and  N_17 
REMARK    4  A    between atoms: N_17  and  C_18 
REMARK    5  A    between atoms: C_18  and  C_19 
ROOT
HETATM    1  C   UNL     1      42.594 -10.221   6.995  1.00  0.00     0.138 A 
HETATM    2  N   UNL     1      41.510 -10.825   6.584  1.00  0.00    -0.240 NA
HETATM    3  C   UNL     1      41.635 -12.049   5.903  1.00  0.00     0.084 A 
HETATM    4  C   UNL     1      42.876 -12.647   5.656  1.00  0.00     0.065 A 
HETATM    5  N   UNL     1      44.036 -12.014   6.106  1.00  0.00    -0.320 N 
HETATM    6  C   UNL     1      43.994 -10.827   6.793  1.00  0.00     0.275 A 
HETATM    7  O   UNL     1      45.001 -10.292   7.230  1.00  0.00    -0.266 OA
HETATM    8  C   UNL     1      40.480 -12.697   5.463  1.00  0.00     0.035 A 
HETATM    9  C   UNL     1      40.559 -13.922   4.785  1.00  0.00     0.019 A 
HETATM   10  C   UNL     1      41.807 -14.506   4.535  1.00  0.00     0.034 A 
HETATM   11  C   UNL     1      42.970 -13.864   4.983  1.00  0.00     0.049 A 
HETATM   12  H   UNL     1      44.945 -12.434   5.972  1.00  0.00     0.169 HD
ENDROOT
BRANCH  10  13
HETATM   13  C   UNL     1      41.970 -15.819   3.846  1.00  0.00     0.252 C 
HETATM   14  N   UNL     1      43.251 -16.277   3.635  1.00  0.00    -0.353 N 
HETATM   15  H   UNL     1      44.054 -15.724   3.891  1.00  0.00     0.163 HD
HETATM   16  O   UNL     1      40.974 -16.452   3.506  1.00  0.00    -0.268 OA
BRANCH  14  17
HETATM   17  C   UNL     1      43.471 -17.460   2.832  1.00  0.00     0.163 C 
BRANCH  17  18
HETATM   18  C   UNL     1      43.656 -18.694   3.674  1.00  0.00    -0.019 A 
HETATM   19  C   UNL     1      43.719 -19.985   3.125  1.00  0.00     0.042 A 
HETATM   20 CL   UNL     1      43.628 -20.252   1.420  1.00  0.00    -0.084 Cl
HETATM   21  C   UNL     1      43.870 -21.104   3.950  1.00  0.00     0.024 A 
HETATM   22  C   UNL     1      43.967 -20.949   5.332  1.00  0.00     0.002 A 
HETATM   23  C   UNL     1      43.920 -19.676   5.891  1.00  0.00     0.001 A 
HETATM   24  C   UNL     1      43.770 -18.557   5.070  1.00  0.00     0.010 A 
ENDBRANCH  17  18
ENDBRANCH  14  17
ENDBRANCH  10  13
BRANCH   1  25
HETATM   25  C   UNL     1      42.470  -8.920   7.716  1.00  0.00     0.025 A 
HETATM   26  C   UNL     1      42.664  -8.844   9.116  1.00  0.00     0.047 A 
HETATM   27  C   UNL     1      42.534  -7.598   9.736  1.00  0.00     0.030 A 
HETATM   28  C   UNL     1      42.240  -6.449   8.992  1.00  0.00     0.002 A 
HETATM   29  C   UNL     1      42.055  -6.533   7.616  1.00  0.00     0.001 A 
HETATM   30  C   UNL     1      42.161  -7.766   6.979  1.00  0.00     0.016 A 
BRANCH  26  31
HETATM   31  N   UNL     1      42.927 -10.032   9.834  1.00  0.00    -0.327 N 
HETATM   32  C   UNL     1      43.989 -10.477  10.562  1.00  0.00     0.218 C 
HETATM   33  C   UNL     1      45.317  -9.778  10.503  1.00  0.00     0.117 C 
HETATM   34  O   UNL     1      43.859 -11.501  11.237  1.00  0.00    -0.274 OA
HETATM   35  H   UNL     1      42.158 -10.706   9.841  1.00  0.00     0.169 HD
ENDBRANCH  26  31
ENDBRANCH   1  25
TORSDOF 5
ENDMDL
MODEL 2
REMARK VINA RESULT:      -9.6      4.184      9.993
REMARK  5 active torsions:
REMARK  status: ('A' for Active; 'I' for Inactive)
REMARK       I    between atoms: C_2  and  N_3 
REMARK    1  A    between atoms: N_3  and  C_4 
REMARK    2  A    between atoms: C_5  and  C_6 
REMARK    3  A    between atoms: C_15  and  C_16 
REMARK       I    between atoms: C_16  and  N_17 
REMARK    4  A    between atoms: N_17  and  C_18 
REMARK    5  A    between atoms: C_18  and  C_19 
ROOT
HETATM    1  C   UNL     1      42.899 -13.219   4.708  1.00  0.00     0.138 A 
HETATM    2  N   UNL     1      43.979 -12.937   5.390  1.00  0.00    -0.240 NA
HETATM    3  C   UNL     1      43.979 -11.798   6.213  1.00  0.00     0.084 A 
HETATM    4  C   UNL     1      42.865 -10.959   6.334  1.00  0.00     0.065 A 
HETATM    5  N   UNL     1      41.706 -11.264   5.620  1.00  0.00    -0.320 N 
HETATM    6  C   UNL     1      41.622 -12.368   4.810  1.00  0.00     0.275 A 
HETATM    7  O   UNL     1      40.595 -12.665   4.220  1.00  0.00    -0.266 OA
HETATM    8  C   UNL     1      45.129 -11.494   6.943  1.00  0.00     0.035 A 
HETATM    9  C   UNL     1      45.171 -10.369   7.781  1.00  0.00     0.019 A 
HETATM   10  C   UNL     1      44.054  -9.532   7.887  1.00  0.00     0.034 A 
HETATM   11  C   UNL     1      42.892  -9.838   7.162  1.00  0.00     0.049 A 
HETATM   12  H   UNL     1      40.874 -10.696   5.709  1.00  0.00     0.169 HD
ENDROOT
BRANCH  10  13
HETATM   13  C   UNL     1      44.011  -8.336   8.777  1.00  0.00     0.252 C 
HETATM   14  N   UNL     1      43.087  -8.329   9.798  1.00  0.00    -0.353 N 
HETATM   15  H   UNL     1      42.428  -9.082   9.913  1.00  0.00     0.163 HD
HETATM   16  O   UNL     1      44.799  -7.413   8.588  1.00  0.00    -0.268 OA
BRANCH  14  17
HETATM   17  C   UNL     1      42.894  -7.132  10.587  1.00  0.00     0.163 C 
BRANCH  17  18
HETATM   18  C   UNL     1      42.615  -7.442  12.034  1.00  0.00    -0.019 A 
HETATM   19  C   UNL     1      42.378  -6.443  12.991  1.00  0.00     0.042 A 
HETATM   20 CL   UNL     1      42.349  -4.768  12.569  1.00  0.00    -0.084 Cl
HETATM   21  C   UNL     1      42.144  -6.779  14.329  1.00  0.00     0.024 A 
HETATM   22  C   UNL     1      42.137  -8.115  14.726  1.00  0.00     0.002 A 
HETATM   23  C   UNL     1      42.357  -9.118  13.786  1.00  0.00     0.001 A 
HETATM   24  C   UNL     1      42.590  -8.785  12.451  1.00  0.00     0.010 A 
ENDBRANCH  17  18
ENDBRANCH  14  17
ENDBRANCH  10  13
BRANCH   1  25
HETATM   25  C   UNL     1      42.892 -14.426   3.829  1.00  0.00     0.025 A 
HETATM   26  C   UNL     1      42.599 -15.706   4.356  1.00  0.00     0.047 A 
HETATM   27  C   UNL     1      42.608 -16.799   3.484  1.00  0.00     0.030 A 
HETATM   28  C   UNL     1      42.878 -16.632   2.121  1.00  0.00     0.002 A 
HETATM   29  C   UNL     1      43.161 -15.370   1.611  1.00  0.00     0.001 A 
HETATM   30  C   UNL     1      43.177 -14.268   2.464  1.00  0.00     0.016 A 
BRANCH  26  31
HETATM   31  N   UNL     1      42.365 -15.836   5.743  1.00  0.00    -0.327 N 
HETATM   32  C   UNL     1      43.175 -16.035   6.820  1.00  0.00     0.218 C 
HETATM   33  C   UNL     1      44.610 -16.442   6.647  1.00  0.00     0.117 C 
HETATM   34  O   UNL     1      42.695 -15.927   7.952  1.00  0.00    -0.274 OA
HETATM   35  H   UNL     1      41.385 -15.741   6.022  1.00  0.00     0.169 HD
ENDBRANCH  26  31
ENDBRANCH   1  25
TORSDOF 5
ENDMDL
MODEL 3
REMARK VINA RESULT:      -9.5      1.619      2.145
REMARK  5 active torsions:
REMARK  status: ('A' for Active; 'I' for Inactive)
REMARK       I    between atoms: C_2  and  N_3 
REMARK    1  A    between atoms: N_3  and  C_4 
REMARK    2  A    between atoms: C_5  and  C_6 
REMARK    3  A    between atoms: C_15  and  C_16 
REMARK       I    between atoms: C_16  and  N_17 
REMARK    4  A    between atoms: N_17  and  C_18 
REMARK    5  A    between atoms: C_18  and  C_19 
ROOT
HETATM    1  C   UNL     1      42.928 -10.463   7.467  1.00  0.00     0.138 A 
HETATM    2  N   UNL     1      42.078 -10.640   6.490  1.00  0.00    -0.240 NA
HETATM    3  C   UNL     1      42.141 -11.832   5.747  1.00  0.00     0.084 A 
HETATM    4  C   UNL     1      43.075 -12.838   6.020  1.00  0.00     0.065 A 
HETATM    5  N   UNL     1      43.975 -12.661   7.071  1.00  0.00    -0.320 N 
HETATM    6  C   UNL     1      43.964 -11.533   7.853  1.00  0.00     0.275 A 
HETATM    7  O   UNL     1      44.718 -11.393   8.804  1.00  0.00    -0.266 OA
HETATM    8  C   UNL     1      41.234 -12.025   4.704  1.00  0.00     0.035 A 
HETATM    9  C   UNL     1      41.258 -13.201   3.941  1.00  0.00     0.019 A 
HETATM   10  C   UNL     1      42.203 -14.197   4.217  1.00  0.00     0.034 A 
HETATM   11  C   UNL     1      43.110 -14.012   5.270  1.00  0.00     0.049 A 
HETATM   12  H   UNL     1      44.641 -13.381   7.315  1.00  0.00     0.169 HD
ENDROOT
BRANCH  10  13
HETATM   13  C   UNL     1      42.272 -15.486   3.470  1.00  0.00     0.252 C 
HETATM   14  N   UNL     1      43.387 -16.274   3.652  1.00  0.00    -0.353 N 
HETATM   15  H   UNL     1      44.154 -15.970   4.232  1.00  0.00     0.163 HD
HETATM   16  O   UNL     1      41.342 -15.812   2.737  1.00  0.00    -0.268 OA
BRANCH  14  17
HETATM   17  C   UNL     1      43.580 -17.451   2.834  1.00  0.00     0.163 C 
BRANCH  17  18
HETATM   18  C   UNL     1      43.708 -18.704   3.659  1.00  0.00    -0.019 A 
HETATM   19  C   UNL     1      43.744 -19.986   3.089  1.00  0.00     0.042 A 
HETATM   20 CL   UNL     1      43.683 -20.223   1.378  1.00  0.00    -0.084 Cl
HETATM   21  C   UNL     1      43.842 -21.123   3.898  1.00  0.00     0.024 A 
HETATM   22  C   UNL     1      43.913 -20.994   5.285  1.00  0.00     0.002 A 
HETATM   23  C   UNL     1      43.893 -19.729   5.864  1.00  0.00     0.001 A 
HETATM   24  C   UNL     1      43.795 -18.593   5.058  1.00  0.00     0.010 A 
ENDBRANCH  17  18
ENDBRANCH  14  17
ENDBRANCH  10  13
BRANCH   1  25
HETATM   25  C   UNL     1      42.871  -9.199   8.258  1.00  0.00     0.025 A 
HETATM   26  C   UNL     1      41.714  -8.859   9.000  1.00  0.00     0.047 A 
HETATM   27  C   UNL     1      41.719  -7.661   9.721  1.00  0.00     0.030 A 
HETATM   28  C   UNL     1      42.843  -6.827   9.729  1.00  0.00     0.002 A 
HETATM   29  C   UNL     1      43.976  -7.172   9.001  1.00  0.00     0.001 A 
HETATM   30  C   UNL     1      43.989  -8.350   8.259  1.00  0.00     0.016 A 
BRANCH  26  31
HETATM   31  N   UNL     1      40.589  -9.711   8.939  1.00  0.00    -0.327 N 
HETATM   32  C   UNL     1      39.477  -9.747   8.153  1.00  0.00     0.218 C 
HETATM   33  C   UNL     1      39.113  -8.587   7.271  1.00  0.00     0.117 C 
HETATM   34  O   UNL     1      38.737 -10.732   8.215  1.00  0.00    -0.274 OA
HETATM   35  H   UNL     1      40.603 -10.486   9.605  1.00  0.00     0.169 HD
ENDBRANCH  26  31
ENDBRANCH   1  25
TORSDOF 5
ENDMDL
MODEL 4
REMARK VINA RESULT:      -9.3      3.151      4.619
REMARK  5 active torsions:
REMARK  status: ('A' for Active; 'I' for Inactive)
REMARK       I    between atoms: C_2  and  N_3 
REMARK    1  A    between atoms: N_3  and  C_4 
REMARK    2  A    between atoms: C_5  and  C_6 
REMARK    3  A    between atoms: C_15  and  C_16 
REMARK       I    between atoms: C_16  and  N_17 
REMARK    4  A    between atoms: N_17  and  C_18 
REMARK    5  A    between atoms: C_18  and  C_19 
ROOT
HETATM    1  C   UNL     1      42.781  -9.638  10.077  1.00  0.00     0.138 A 
HETATM    2  N   UNL     1      42.127  -9.176   9.044  1.00  0.00    -0.240 NA
HETATM    3  C   UNL     1      42.400  -9.716   7.775  1.00  0.00     0.084 A 
HETATM    4  C   UNL     1      43.340 -10.734   7.579  1.00  0.00     0.065 A 
HETATM    5  N   UNL     1      44.029 -11.242   8.680  1.00  0.00    -0.320 N 
HETATM    6  C   UNL     1      43.806 -10.779   9.952  1.00  0.00     0.275 A 
HETATM    7  O   UNL     1      44.373 -11.252  10.926  1.00  0.00    -0.266 OA
HETATM    8  C   UNL     1      41.703  -9.225   6.670  1.00  0.00     0.035 A 
HETATM    9  C   UNL     1      41.940  -9.739   5.386  1.00  0.00     0.019 A 
HETATM   10  C   UNL     1      42.889 -10.751   5.200  1.00  0.00     0.034 A 
HETATM   11  C   UNL     1      43.586 -11.254   6.309  1.00  0.00     0.049 A 
HETATM   12  H   UNL     1      44.692 -11.998   8.577  1.00  0.00     0.169 HD
ENDROOT
BRANCH  10  13
HETATM   13  C   UNL     1      43.176 -11.367   3.873  1.00  0.00     0.252 C 
HETATM   14  N   UNL     1      42.118 -11.899   3.171  1.00  0.00    -0.353 N 
HETATM   15  H   UNL     1      41.188 -11.917   3.559  1.00  0.00     0.163 HD
HETATM   16  O   UNL     1      44.326 -11.369   3.443  1.00  0.00    -0.268 OA
BRANCH  14  17
HETATM   17  C   UNL     1      42.361 -12.649   1.958  1.00  0.00     0.163 C 
BRANCH  17  18
HETATM   18  C   UNL     1      42.199 -14.132   2.163  1.00  0.00    -0.019 A 
HETATM   19  C   UNL     1      41.132 -14.861   1.614  1.00  0.00     0.042 A 
HETATM   20 CL   UNL     1      39.936 -14.111   0.618  1.00  0.00    -0.084 Cl
HETATM   21  C   UNL     1      41.011 -16.235   1.850  1.00  0.00     0.024 A 
HETATM   22  C   UNL     1      41.956 -16.899   2.631  1.00  0.00     0.002 A 
HETATM   23  C   UNL     1      43.027 -16.193   3.171  1.00  0.00     0.001 A 
HETATM   24  C   UNL     1      43.150 -14.822   2.937  1.00  0.00     0.010 A 
ENDBRANCH  17  18
ENDBRANCH  14  17
ENDBRANCH  10  13
BRANCH   1  25
HETATM   25  C   UNL     1      42.500  -9.068  11.428  1.00  0.00     0.025 A 
HETATM   26  C   UNL     1      41.276  -9.332  12.086  1.00  0.00     0.047 A 
HETATM   27  C   UNL     1      41.069  -8.769  13.350  1.00  0.00     0.030 A 
HETATM   28  C   UNL     1      42.053  -7.983  13.959  1.00  0.00     0.002 A 
HETATM   29  C   UNL     1      43.255  -7.733  13.307  1.00  0.00     0.001 A 
HETATM   30  C   UNL     1      43.477  -8.266  12.039  1.00  0.00     0.016 A 
BRANCH  26  31
HETATM   31  N   UNL     1      40.295 -10.103  11.423  1.00  0.00    -0.327 N 
HETATM   32  C   UNL     1      39.302  -9.804  10.539  1.00  0.00     0.218 C 
HETATM   33  C   UNL     1      38.890  -8.382  10.287  1.00  0.00     0.117 C 
HETATM   34  O   UNL     1      38.705 -10.729   9.983  1.00  0.00    -0.274 OA
HETATM   35  H   UNL     1      40.337 -11.106  11.617  1.00  0.00     0.169 HD
ENDBRANCH  26  31
ENDBRANCH   1  25
TORSDOF 5
ENDMDL
MODEL 5
REMARK VINA RESULT:      -9.2      6.631     12.021
REMARK  5 active torsions:
REMARK  status: ('A' for Active; 'I' for Inactive)
REMARK       I    between atoms: C_2  and  N_3 
REMARK    1  A    between atoms: N_3  and  C_4 
REMARK    2  A    between atoms: C_5  and  C_6 
REMARK    3  A    between atoms: C_15  and  C_16 
REMARK       I    between atoms: C_16  and  N_17 
REMARK    4  A    between atoms: N_17  and  C_18 
REMARK    5  A    between atoms: C_18  and  C_19 
ROOT
HETATM    1  C   UNL     1      43.758  -9.272   9.597  1.00  0.00     0.138 A 
HETATM    2  N   UNL     1      43.433  -9.912  10.690  1.00  0.00    -0.240 NA
HETATM    3  C   UNL     1      42.960  -9.175  11.789  1.00  0.00     0.084 A 
HETATM    4  C   UNL     1      42.819  -7.783  11.755  1.00  0.00     0.065 A 
HETATM    5  N   UNL     1      43.151  -7.097  10.586  1.00  0.00    -0.320 N 
HETATM    6  C   UNL     1      43.602  -7.747   9.466  1.00  0.00     0.275 A 
HETATM    7  O   UNL     1      43.849  -7.157   8.426  1.00  0.00    -0.266 OA
HETATM    8  C   UNL     1      42.611  -9.855  12.957  1.00  0.00     0.035 A 
HETATM    9  C   UNL     1      42.130  -9.160  14.076  1.00  0.00     0.019 A 
HETATM   10  C   UNL     1      42.002  -7.766  14.034  1.00  0.00     0.034 A 
HETATM   11  C   UNL     1      42.343  -7.079  12.859  1.00  0.00     0.049 A 
HETATM   12  H   UNL     1      43.031  -6.095  10.518  1.00  0.00     0.169 HD
ENDROOT
BRANCH  10  13
HETATM   13  C   UNL     1      41.472  -6.960  15.171  1.00  0.00     0.252 C 
HETATM   14  N   UNL     1      42.266  -6.826  16.287  1.00  0.00    -0.353 N 
HETATM   15  H   UNL     1      43.155  -7.296  16.357  1.00  0.00     0.163 HD
HETATM   16  O   UNL     1      40.367  -6.433  15.075  1.00  0.00    -0.268 OA
BRANCH  14  17
HETATM   17  C   UNL     1      41.738  -6.194  17.476  1.00  0.00     0.163 C 
BRANCH  17  18
HETATM   18  C   UNL     1      41.215  -7.196  18.470  1.00  0.00    -0.019 A 
HETATM   19  C   UNL     1      42.017  -7.754  19.479  1.00  0.00     0.042 A 
HETATM   20 CL   UNL     1      43.671  -7.296  19.682  1.00  0.00    -0.084 Cl
HETATM   21  C   UNL     1      41.491  -8.698  20.367  1.00  0.00     0.024 A 
HETATM   22  C   UNL     1      40.158  -9.093  20.264  1.00  0.00     0.002 A 
HETATM   23  C   UNL     1      39.347  -8.539  19.278  1.00  0.00     0.001 A 
HETATM   24  C   UNL     1      39.869  -7.596  18.391  1.00  0.00     0.010 A 
ENDBRANCH  17  18
ENDBRANCH  14  17
ENDBRANCH  10  13
BRANCH   1  25
HETATM   25  C   UNL     1      44.264 -10.047   8.426  1.00  0.00     0.025 A 
HETATM   26  C   UNL     1      43.368 -10.611   7.487  1.00  0.00     0.047 A 
HETATM   27  C   UNL     1      43.901 -11.327   6.411  1.00  0.00     0.030 A 
HETATM   28  C   UNL     1      45.284 -11.467   6.252  1.00  0.00     0.002 A 
HETATM   29  C   UNL     1      46.158 -10.906   7.177  1.00  0.00     0.001 A 
HETATM   30  C   UNL     1      45.650 -10.205   8.268  1.00  0.00     0.016 A 
BRANCH  26  31
HETATM   31  N   UNL     1      41.979 -10.475   7.701  1.00  0.00    -0.327 N 
HETATM   32  C   UNL     1      41.016  -9.678   7.159  1.00  0.00     0.218 C 
HETATM   33  C   UNL     1      41.377  -8.495   6.306  1.00  0.00     0.117 C 
HETATM   34  O   UNL     1      39.834  -9.911   7.423  1.00  0.00    -0.274 OA
HETATM   35  H   UNL     1      41.588 -11.119   8.392  1.00  0.00     0.169 HD
ENDBRANCH  26  31
ENDBRANCH   1  25
TORSDOF 5
ENDMDL
MODEL 6
REMARK VINA RESULT:      -9.1      3.610     10.084
REMARK  5 active torsions:
REMARK  status: ('A' for Active; 'I' for Inactive)
REMARK       I    between atoms: C_2  and  N_3 
REMARK    1  A    between atoms: N_3  and  C_4 
REMARK    2  A    between atoms: C_5  and  C_6 
REMARK    3  A    between atoms: C_15  and  C_16 
REMARK       I    between atoms: C_16  and  N_17 
REMARK    4  A    between atoms: N_17  and  C_18 
REMARK    5  A    between atoms: C_18  and  C_19 
ROOT
HETATM    1  C   UNL     1      42.691 -14.084   4.534  1.00  0.00     0.138 A 
HETATM    2  N   UNL     1      43.719 -13.544   5.135  1.00  0.00    -0.240 NA
HETATM    3  C   UNL     1      43.519 -12.387   5.907  1.00  0.00     0.084 A 
HETATM    4  C   UNL     1      42.260 -11.796   6.062  1.00  0.00     0.065 A 
HETATM    5  N   UNL     1      41.157 -12.376   5.435  1.00  0.00    -0.320 N 
HETATM    6  C   UNL     1      41.269 -13.516   4.680  1.00  0.00     0.275 A 
HETATM    7  O   UNL     1      40.299 -14.054   4.167  1.00  0.00    -0.266 OA
HETATM    8  C   UNL     1      44.614 -11.809   6.550  1.00  0.00     0.035 A 
HETATM    9  C   UNL     1      44.460 -10.657   7.336  1.00  0.00     0.019 A 
HETATM   10  C   UNL     1      43.197 -10.068   7.476  1.00  0.00     0.034 A 
HETATM   11  C   UNL     1      42.091 -10.651   6.839  1.00  0.00     0.049 A 
HETATM   12  H   UNL     1      40.229 -11.993   5.552  1.00  0.00     0.169 HD
ENDROOT
BRANCH  10  13
HETATM   13  C   UNL     1      42.947  -8.861   8.316  1.00  0.00     0.252 C 
HETATM   14  N   UNL     1      42.270  -9.034   9.502  1.00  0.00    -0.353 N 
HETATM   15  H   UNL     1      41.910  -9.936   9.773  1.00  0.00     0.163 HD
HETATM   16  O   UNL     1      43.359  -7.767   7.940  1.00  0.00    -0.268 OA
BRANCH  14  17
HETATM   17  C   UNL     1      41.860  -7.881  10.273  1.00  0.00     0.163 C 
BRANCH  17  18
HETATM   18  C   UNL     1      41.893  -8.146  11.755  1.00  0.00    -0.019 A 
HETATM   19  C   UNL     1      40.968  -8.985  12.397  1.00  0.00     0.042 A 
HETATM   20 CL   UNL     1      39.734  -9.815  11.519  1.00  0.00    -0.084 Cl
HETATM   21  C   UNL     1      41.026  -9.183  13.780  1.00  0.00     0.024 A 
HETATM   22  C   UNL     1      42.011  -8.553  14.540  1.00  0.00     0.002 A 
HETATM   23  C   UNL     1      42.944  -7.730  13.916  1.00  0.00     0.001 A 
HETATM   24  C   UNL     1      42.889  -7.531  12.536  1.00  0.00     0.010 A 
ENDBRANCH  17  18
ENDBRANCH  14  17
ENDBRANCH  10  13
BRANCH   1  25
HETATM   25  C   UNL     1      42.895 -15.311   3.709  1.00  0.00     0.025 A 
HETATM   26  C   UNL     1      42.835 -15.253   2.296  1.00  0.00     0.047 A 
HETATM   27  C   UNL     1      43.033 -16.436   1.576  1.00  0.00     0.030 A 
HETATM   28  C   UNL     1      43.305 -17.642   2.232  1.00  0.00     0.002 A 
HETATM   29  C   UNL     1      43.367 -17.688   3.620  1.00  0.00     0.001 A 
HETATM   30  C   UNL     1      43.154 -16.527   4.359  1.00  0.00     0.016 A 
BRANCH  26  31
HETATM   31  N   UNL     1      42.524 -14.023   1.675  1.00  0.00    -0.327 N 
HETATM   32  C   UNL     1      41.429 -13.551   1.016  1.00  0.00     0.218 C 
HETATM   33  C   UNL     1      40.327 -14.475   0.582  1.00  0.00     0.117 C 
HETATM   34  O   UNL     1      41.378 -12.352   0.732  1.00  0.00    -0.274 OA
HETATM   35  H   UNL     1      43.257 -13.313   1.742  1.00  0.00     0.169 HD
ENDBRANCH  26  31
ENDBRANCH   1  25
TORSDOF 5
ENDMDL
MODEL 7
REMARK VINA RESULT:      -8.9      6.200     11.927
REMARK  5 active torsions:
REMARK  status: ('A' for Active; 'I' for Inactive)
REMARK       I    between atoms: C_2  and  N_3 
REMARK    1  A    between atoms: N_3  and  C_4 
REMARK    2  A    between atoms: C_5  and  C_6 
REMARK    3  A    between atoms: C_15  and  C_16 
REMARK       I    between atoms: C_16  and  N_17 
REMARK    4  A    between atoms: N_17  and  C_18 
REMARK    5  A    between atoms: C_18  and  C_19 
ROOT
HETATM    1  C   UNL     1      43.803  -9.449   9.683  1.00  0.00     0.138 A 
HETATM    2  N   UNL     1      43.474  -8.186   9.600  1.00  0.00    -0.240 NA
HETATM    3  C   UNL     1      42.991  -7.537  10.749  1.00  0.00     0.084 A 
HETATM    4  C   UNL     1      42.855  -8.190  11.979  1.00  0.00     0.065 A 
HETATM    5  N   UNL     1      43.218  -9.534  12.077  1.00  0.00    -0.320 N 
HETATM    6  C   UNL     1      43.715 -10.231  11.005  1.00  0.00     0.275 A 
HETATM    7  O   UNL     1      44.078 -11.394  11.096  1.00  0.00    -0.266 OA
HETATM    8  C   UNL     1      42.640  -6.189  10.664  1.00  0.00     0.035 A 
HETATM    9  C   UNL     1      42.158  -5.500  11.787  1.00  0.00     0.019 A 
HETATM   10  C   UNL     1      42.017  -6.167  13.011  1.00  0.00     0.034 A 
HETATM   11  C   UNL     1      42.377  -7.519  13.104  1.00  0.00     0.049 A 
HETATM   12  H   UNL     1      43.162 -10.026  12.958  1.00  0.00     0.169 HD
ENDROOT
BRANCH  10  13
HETATM   13  C   UNL     1      41.540  -5.497  14.255  1.00  0.00     0.252 C 
HETATM   14  N   UNL     1      42.218  -5.759  15.424  1.00  0.00    -0.353 N 
HETATM   15  H   UNL     1      42.980  -6.417  15.452  1.00  0.00     0.163 HD
HETATM   16  O   UNL     1      40.581  -4.732  14.200  1.00  0.00    -0.268 OA
BRANCH  14  17
HETATM   17  C   UNL     1      41.702  -5.266  16.682  1.00  0.00     0.163 C 
BRANCH  17  18
HETATM   18  C   UNL     1      41.290  -6.382  17.606  1.00  0.00    -0.019 A 
HETATM   19  C   UNL     1      39.986  -6.902  17.633  1.00  0.00     0.042 A 
HETATM   20 CL   UNL     1      38.754  -6.322  16.569  1.00  0.00    -0.084 Cl
HETATM   21  C   UNL     1      39.646  -7.925  18.524  1.00  0.00     0.024 A 
HETATM   22  C   UNL     1      40.602  -8.446  19.394  1.00  0.00     0.002 A 
HETATM   23  C   UNL     1      41.903  -7.951  19.369  1.00  0.00     0.001 A 
HETATM   24  C   UNL     1      42.246  -6.930  18.481  1.00  0.00     0.010 A 
ENDBRANCH  17  18
ENDBRANCH  14  17
ENDBRANCH  10  13
BRANCH   1  25
HETATM   25  C   UNL     1      44.314 -10.147   8.466  1.00  0.00     0.025 A 
HETATM   26  C   UNL     1      43.423 -10.632   7.480  1.00  0.00     0.047 A 
HETATM   27  C   UNL     1      43.961 -11.278   6.362  1.00  0.00     0.030 A 
HETATM   28  C   UNL     1      45.344 -11.425   6.210  1.00  0.00     0.002 A 
HETATM   29  C   UNL     1      46.212 -10.941   7.182  1.00  0.00     0.001 A 
HETATM   30  C   UNL     1      45.700 -10.311   8.314  1.00  0.00     0.016 A 
BRANCH  26  31
HETATM   31  N   UNL     1      42.033 -10.494   7.688  1.00  0.00    -0.327 N 
HETATM   32  C   UNL     1      41.092  -9.628   7.217  1.00  0.00     0.218 C 
HETATM   33  C   UNL     1      41.486  -8.370   6.496  1.00  0.00     0.117 C 
HETATM   34  O   UNL     1      39.902  -9.866   7.438  1.00  0.00    -0.274 OA
HETATM   35  H   UNL     1      41.620 -11.199   8.302  1.00  0.00     0.169 HD
ENDBRANCH  26  31
ENDBRANCH   1  25
TORSDOF 5
ENDMDL
MODEL 8
REMARK VINA RESULT:      -8.8      2.746      4.744
REMARK  5 active torsions:
REMARK  status: ('A' for Active; 'I' for Inactive)
REMARK       I    between atoms: C_2  and  N_3 
REMARK    1  A    between atoms: N_3  and  C_4 
REMARK    2  A    between atoms: C_5  and  C_6 
REMARK    3  A    between atoms: C_15  and  C_16 
REMARK       I    between atoms: C_16  and  N_17 
REMARK    4  A    between atoms: N_17  and  C_18 
REMARK    5  A    between atoms: C_18  and  C_19 
ROOT
HETATM    1  C   UNL     1      42.565  -8.745  10.440  1.00  0.00     0.138 A 
HETATM    2  N   UNL     1      43.713  -9.038   9.887  1.00  0.00    -0.240 NA
HETATM    3  C   UNL     1      43.716  -9.736   8.667  1.00  0.00     0.084 A 
HETATM    4  C   UNL     1      42.537 -10.121   8.020  1.00  0.00     0.065 A 
HETATM    5  N   UNL     1      41.309  -9.798   8.598  1.00  0.00    -0.320 N 
HETATM    6  C   UNL     1      41.224  -9.103   9.778  1.00  0.00     0.275 A 
HETATM    7  O   UNL     1      40.152  -8.776  10.264  1.00  0.00    -0.266 OA
HETATM    8  C   UNL     1      44.940 -10.050   8.074  1.00  0.00     0.035 A 
HETATM    9  C   UNL     1      44.990 -10.740   6.854  1.00  0.00     0.019 A 
HETATM   10  C   UNL     1      43.803 -11.129   6.219  1.00  0.00     0.034 A 
HETATM   11  C   UNL     1      42.571 -10.808   6.807  1.00  0.00     0.049 A 
HETATM   12  H   UNL     1      40.439 -10.034   8.140  1.00  0.00     0.169 HD
ENDROOT
BRANCH  10  13
HETATM   13  C   UNL     1      43.774 -11.840   4.908  1.00  0.00     0.252 C 
HETATM   14  N   UNL     1      42.925 -12.917   4.782  1.00  0.00    -0.353 N 
HETATM   15  H   UNL     1      42.378 -13.247   5.561  1.00  0.00     0.163 HD
HETATM   16  O   UNL     1      44.482 -11.441   3.988  1.00  0.00    -0.268 OA
BRANCH  14  17
HETATM   17  C   UNL     1      42.974 -13.737   3.592  1.00  0.00     0.163 C 
BRANCH  17  18
HETATM   18  C   UNL     1      43.176 -15.195   3.912  1.00  0.00    -0.019 A 
HETATM   19  C   UNL     1      43.262 -16.184   2.920  1.00  0.00     0.042 A 
HETATM   20 CL   UNL     1      43.180 -15.795   1.239  1.00  0.00    -0.084 Cl
HETATM   21  C   UNL     1      43.428 -17.529   3.267  1.00  0.00     0.024 A 
HETATM   22  C   UNL     1      43.519 -17.902   4.608  1.00  0.00     0.002 A 
HETATM   23  C   UNL     1      43.451 -16.931   5.602  1.00  0.00     0.001 A 
HETATM   24  C   UNL     1      43.284 -15.588   5.258  1.00  0.00     0.010 A 
ENDBRANCH  17  18
ENDBRANCH  14  17
ENDBRANCH  10  13
BRANCH   1  25
HETATM   25  C   UNL     1      42.553  -8.007  11.738  1.00  0.00     0.025 A 
HETATM   26  C   UNL     1      42.441  -6.597  11.770  1.00  0.00     0.047 A 
HETATM   27  C   UNL     1      42.436  -5.961  13.015  1.00  0.00     0.030 A 
HETATM   28  C   UNL     1      42.517  -6.699  14.202  1.00  0.00     0.002 A 
HETATM   29  C   UNL     1      42.622  -8.084  14.161  1.00  0.00     0.001 A 
HETATM   30  C   UNL     1      42.649  -8.739  12.932  1.00  0.00     0.016 A 
BRANCH  26  31
HETATM   31  N   UNL     1      42.394  -5.887  10.549  1.00  0.00    -0.327 N 
HETATM   32  C   UNL     1      41.423  -5.177   9.910  1.00  0.00     0.218 C 
HETATM   33  C   UNL     1      39.989  -5.253  10.350  1.00  0.00     0.117 C 
HETATM   34  O   UNL     1      41.731  -4.505   8.923  1.00  0.00    -0.274 OA
HETATM   35  H   UNL     1      43.274  -5.872  10.029  1.00  0.00     0.169 HD
ENDBRANCH  26  31
ENDBRANCH   1  25
TORSDOF 5
ENDMDL
MODEL 9
REMARK VINA RESULT:      -8.8      3.953      9.736
REMARK  5 active torsions:
REMARK  status: ('A' for Active; 'I' for Inactive)
REMARK       I    between atoms: C_2  and  N_3 
REMARK    1  A    between atoms: N_3  and  C_4 
REMARK    2  A    between atoms: C_5  and  C_6 
REMARK    3  A    between atoms: C_15  and  C_16 
REMARK       I    between atoms: C_16  and  N_17 
REMARK    4  A    between atoms: N_17  and  C_18 
REMARK    5  A    between atoms: C_18  and  C_19 
ROOT
HETATM    1  C   UNL     1      41.246 -12.654   2.582  1.00  0.00     0.138 A 
HETATM    2  N   UNL     1      42.510 -12.374   2.764  1.00  0.00    -0.240 NA
HETATM    3  C   UNL     1      42.948 -12.034   4.056  1.00  0.00     0.084 A 
HETATM    4  C   UNL     1      42.082 -11.990   5.155  1.00  0.00     0.065 A 
HETATM    5  N   UNL     1      40.734 -12.302   4.969  1.00  0.00    -0.320 N 
HETATM    6  C   UNL     1      40.236 -12.661   3.742  1.00  0.00     0.275 A 
HETATM    7  O   UNL     1      39.067 -12.981   3.583  1.00  0.00    -0.266 OA
HETATM    8  C   UNL     1      44.296 -11.736   4.254  1.00  0.00     0.035 A 
HETATM    9  C   UNL     1      44.777 -11.396   5.527  1.00  0.00     0.019 A 
HETATM   10  C   UNL     1      43.900 -11.346   6.618  1.00  0.00     0.034 A 
HETATM   11  C   UNL     1      42.545 -11.654   6.426  1.00  0.00     0.049 A 
HETATM   12  H   UNL     1      40.089 -12.311   5.747  1.00  0.00     0.169 HD
ENDROOT
BRANCH  10  13
HETATM   13  C   UNL     1      44.339 -11.022   8.005  1.00  0.00     0.252 C 
HETATM   14  N   UNL     1      43.371 -10.667   8.918  1.00  0.00    -0.353 N 
HETATM   15  H   UNL     1      42.404 -10.580   8.649  1.00  0.00     0.163 HD
HETATM   16  O   UNL     1      45.530 -11.096   8.295  1.00  0.00    -0.268 OA
BRANCH  14  17
HETATM   17  C   UNL     1      43.756 -10.188  10.228  1.00  0.00     0.163 C 
BRANCH  17  18
HETATM   18  C   UNL     1      43.343  -8.758  10.456  1.00  0.00    -0.019 A 
HETATM   19  C   UNL     1      42.784  -8.314  11.665  1.00  0.00     0.042 A 
HETATM   20 CL   UNL     1      42.561  -9.378  13.008  1.00  0.00    -0.084 Cl
HETATM   21  C   UNL     1      42.396  -6.980  11.822  1.00  0.00     0.024 A 
HETATM   22  C   UNL     1      42.568  -6.070  10.779  1.00  0.00     0.002 A 
HETATM   23  C   UNL     1      43.134  -6.492   9.580  1.00  0.00     0.001 A 
HETATM   24  C   UNL     1      43.522  -7.824   9.420  1.00  0.00     0.010 A 
ENDBRANCH  17  18
ENDBRANCH  14  17
ENDBRANCH  10  13
BRANCH   1  25
HETATM   25  C   UNL     1      40.773 -13.013   1.213  1.00  0.00     0.025 A 
HETATM   26  C   UNL     1      40.483 -14.356   0.875  1.00  0.00     0.047 A 
HETATM   27  C   UNL     1      40.044 -14.632  -0.424  1.00  0.00     0.030 A 
HETATM   28  C   UNL     1      39.874 -13.606  -1.361  1.00  0.00     0.002 A 
HETATM   29  C   UNL     1      40.157 -12.289  -1.018  1.00  0.00     0.001 A 
HETATM   30  C   UNL     1      40.615 -11.992   0.263  1.00  0.00     0.016 A 
BRANCH  26  31
HETATM   31  N   UNL     1      40.699 -15.366   1.839  1.00  0.00    -0.327 N 
HETATM   32  C   UNL     1      41.804 -16.039   2.266  1.00  0.00     0.218 C 
HETATM   33  C   UNL     1      43.096 -15.971   1.503  1.00  0.00     0.117 C 
HETATM   34  O   UNL     1      41.713 -16.754   3.267  1.00  0.00    -0.274 OA
HETATM   35  H   UNL     1      39.863 -15.651   2.354  1.00  0.00     0.169 HD
ENDBRANCH  26  31
ENDBRANCH   1  25
TORSDOF 5
ENDMDL
MODEL 10
REMARK VINA RESULT:      -8.7      2.795      4.067
REMARK  5 active torsions:
REMARK  status: ('A' for Active; 'I' for Inactive)
REMARK       I    between atoms: C_2  and  N_3 
REMARK    1  A    between atoms: N_3  and  C_4 
REMARK    2  A    between atoms: C_5  and  C_6 
REMARK    3  A    between atoms: C_15  and  C_16 
REMARK       I    between atoms: C_16  and  N_17 
REMARK    4  A    between atoms: N_17  and  C_18 
REMARK    5  A    between atoms: C_18  and  C_19 
ROOT
HETATM    1  C   UNL     1      41.283  -8.733   9.408  1.00  0.00     0.138 A 
HETATM    2  N   UNL     1      42.174  -8.917   8.469  1.00  0.00    -0.240 NA
HETATM    3  C   UNL     1      41.827  -9.695   7.351  1.00  0.00     0.084 A 
HETATM    4  C   UNL     1      40.562 -10.274   7.204  1.00  0.00     0.065 A 
HETATM    5  N   UNL     1      39.602 -10.069   8.195  1.00  0.00    -0.320 N 
HETATM    6  C   UNL     1      39.859  -9.307   9.307  1.00  0.00     0.275 A 
HETATM    7  O   UNL     1      39.009  -9.085  10.155  1.00  0.00    -0.266 OA
HETATM    8  C   UNL     1      42.776  -9.893   6.347  1.00  0.00     0.035 A 
HETATM    9  C   UNL     1      42.470 -10.659   5.211  1.00  0.00     0.019 A 
HETATM   10  C   UNL     1      41.203 -11.241   5.079  1.00  0.00     0.034 A 
HETATM   11  C   UNL     1      40.244 -11.038   6.081  1.00  0.00     0.049 A 
HETATM   12  H   UNL     1      38.669 -10.447   8.105  1.00  0.00     0.169 HD
ENDROOT
BRANCH  10  13
HETATM   13  C   UNL     1      40.794 -12.043   3.890  1.00  0.00     0.252 C 
HETATM   14  N   UNL     1      40.394 -13.344   4.101  1.00  0.00    -0.353 N 
HETATM   15  H   UNL     1      40.422 -13.758   5.019  1.00  0.00     0.163 HD
HETATM   16  O   UNL     1      40.809 -11.525   2.777  1.00  0.00    -0.268 OA
BRANCH  14  17
HETATM   17  C   UNL     1      40.142 -14.212   2.972  1.00  0.00     0.163 C 
BRANCH  17  18
HETATM   18  C   UNL     1      41.247 -15.215   2.767  1.00  0.00    -0.019 A 
HETATM   19  C   UNL     1      41.501 -16.259   3.671  1.00  0.00     0.042 A 
HETATM   20 CL   UNL     1      40.530 -16.496   5.081  1.00  0.00    -0.084 Cl
HETATM   21  C   UNL     1      42.553 -17.154   3.449  1.00  0.00     0.024 A 
HETATM   22  C   UNL     1      43.359 -17.023   2.319  1.00  0.00     0.002 A 
HETATM   23  C   UNL     1      43.111 -16.002   1.407  1.00  0.00     0.001 A 
HETATM   24  C   UNL     1      42.062 -15.108   1.626  1.00  0.00     0.010 A 
ENDBRANCH  17  18
ENDBRANCH  14  17
ENDBRANCH  10  13
BRANCH   1  25
HETATM   25  C   UNL     1      41.645  -7.911  10.600  1.00  0.00     0.025 A 
HETATM   26  C   UNL     1      42.418  -8.457  11.651  1.00  0.00     0.047 A 
HETATM   27  C   UNL     1      42.725  -7.639  12.743  1.00  0.00     0.030 A 
HETATM   28  C   UNL     1      42.298  -6.307  12.788  1.00  0.00     0.002 A 
HETATM   29  C   UNL     1      41.543  -5.776  11.748  1.00  0.00     0.001 A 
HETATM   30  C   UNL     1      41.208  -6.578  10.659  1.00  0.00     0.016 A 
BRANCH  26  31
HETATM   31  N   UNL     1      42.801  -9.816  11.583  1.00  0.00    -0.327 N 
HETATM   32  C   UNL     1      43.946 -10.454  11.212  1.00  0.00     0.218 C 
HETATM   33  C   UNL     1      45.043  -9.722  10.492  1.00  0.00     0.117 C 
HETATM   34  O   UNL     1      44.049 -11.663  11.430  1.00  0.00    -0.274 OA
HETATM   35  H   UNL     1      42.087 -10.477  11.897  1.00  0.00     0.169 HD
ENDBRANCH  26  31
ENDBRANCH   1  25
TORSDOF 5
ENDMDL
