MODEL 1
REMARK VINA RESULT:      -8.8      0.000      0.000
REMARK  3 active torsions:
REMARK  status: ('A' for Active; 'I' for Inactive)
REMARK    1  A    between atoms: C_4  and  C_5 
REMARK    2  A    between atoms: C_12  and  N_13 
REMARK       I    between atoms: N_13  and  C_14 
REMARK    3  A    between atoms: C_14  and  C_15 
ROOT
HETATM    1  C   UNL     1      44.096 -18.585   3.142  1.00  0.00     0.048 C 
HETATM    2  C   UNL     1      43.132 -17.470   3.421  1.00  0.00    -0.060 A 
HETATM    3  C   UNL     1      42.565 -16.738   2.377  1.00  0.00     0.023 A 
HETATM    4  C   UNL     1      41.633 -15.720   2.634  1.00  0.00     0.020 A 
HETATM    5  C   UNL     1      41.257 -15.422   3.969  1.00  0.00     0.053 A 
HETATM    6  C   UNL     1      41.766 -16.208   5.022  1.00  0.00    -0.034 A 
HETATM    7  C   UNL     1      41.260 -16.179   6.440  1.00  0.00     0.050 C 
HETATM    8  C   UNL     1      42.724 -17.203   4.730  1.00  0.00     0.015 A 
ENDROOT
BRANCH   5   9
HETATM    9  N   UNL     1      40.231 -14.477   4.155  1.00  0.00    -0.322 N 
HETATM   10  C   UNL     1      40.232 -13.205   4.650  1.00  0.00     0.278 C 
HETATM   11  O   UNL     1      39.120 -12.695   4.857  1.00  0.00    -0.268 OA
HETATM   12  H   UNL     1      39.324 -14.726   3.771  1.00  0.00     0.169 HD
BRANCH  10  13
HETATM   13  C   UNL     1      41.518 -12.345   4.792  1.00  0.00     0.366 C 
HETATM   14  O   UNL     1      41.489 -11.063   5.418  1.00  0.00    -0.308 OA
HETATM   15  C   UNL     1      42.647 -11.084   6.127  1.00  0.00     0.106 A 
HETATM   16  C   UNL     1      43.230 -12.328   6.125  1.00  0.00     0.106 A 
HETATM   17  C   UNL     1      43.217 -10.015   6.784  1.00  0.00     0.040 A 
HETATM   18  O   UNL     1      42.510 -13.223   5.400  1.00  0.00    -0.308 OA
HETATM   19  C   UNL     1      44.409 -12.581   6.792  1.00  0.00     0.040 A 
HETATM   20  C   UNL     1      45.016 -11.513   7.460  1.00  0.00     0.003 A 
HETATM   21  C   UNL     1      44.424 -10.236   7.452  1.00  0.00     0.003 A 
ENDBRANCH  10  13
ENDBRANCH   5   9
BRANCH   4  22
HETATM   22  C   UNL     1      41.095 -14.987   1.487  1.00  0.00     0.064 A 
HETATM   23  N   UNL     1      41.624 -13.809   1.023  1.00  0.00    -0.277 N 
HETATM   24  H   UNL     1      42.421 -13.299   1.390  1.00  0.00     0.189 HD
HETATM   25  N   UNL     1      40.976 -13.305  -0.040  1.00  0.00    -0.179 NA
HETATM   26  C   UNL     1      40.011 -14.197  -0.287  1.00  0.00     0.053 A 
HETATM   27  C   UNL     1      39.068 -13.998  -1.414  1.00  0.00     0.072 C 
HETATM   28  C   UNL     1      40.052 -15.271   0.629  1.00  0.00     0.060 A 
ENDBRANCH   4  22
TORSDOF 3
ENDMDL
MODEL 2
REMARK VINA RESULT:      -8.6      2.729      5.778
REMARK  3 active torsions:
REMARK  status: ('A' for Active; 'I' for Inactive)
REMARK    1  A    between atoms: C_4  and  C_5 
REMARK    2  A    between atoms: C_12  and  N_13 
REMARK       I    between atoms: N_13  and  C_14 
REMARK    3  A    between atoms: C_14  and  C_15 
ROOT
HETATM    1  C   UNL     1      38.776 -11.871   5.977  1.00  0.00     0.048 C 
HETATM    2  C   UNL     1      39.817 -12.426   5.050  1.00  0.00    -0.060 A 
HETATM    3  C   UNL     1      39.519 -12.682   3.712  1.00  0.00     0.023 A 
HETATM    4  C   UNL     1      40.503 -13.164   2.834  1.00  0.00     0.020 A 
HETATM    5  C   UNL     1      41.820 -13.400   3.304  1.00  0.00     0.053 A 
HETATM    6  C   UNL     1      42.148 -13.071   4.635  1.00  0.00    -0.034 A 
HETATM    7  C   UNL     1      43.548 -13.021   5.188  1.00  0.00     0.050 C 
HETATM    8  C   UNL     1      41.128 -12.618   5.497  1.00  0.00     0.015 A 
ENDROOT
BRANCH   5   9
HETATM    9  N   UNL     1      42.790 -13.767   2.352  1.00  0.00    -0.322 N 
HETATM   10  C   UNL     1      43.426 -14.947   2.096  1.00  0.00     0.278 C 
HETATM   11  O   UNL     1      44.375 -14.898   1.298  1.00  0.00    -0.268 OA
HETATM   12  H   UNL     1      43.007 -13.066   1.650  1.00  0.00     0.169 HD
BRANCH  10  13
HETATM   13  C   UNL     1      42.916 -16.322   2.610  1.00  0.00     0.366 C 
HETATM   14  O   UNL     1      42.922 -17.476   1.772  1.00  0.00    -0.308 OA
HETATM   15  C   UNL     1      43.314 -18.440   2.645  1.00  0.00     0.106 A 
HETATM   16  C   UNL     1      43.725 -17.911   3.845  1.00  0.00     0.106 A 
HETATM   17  C   UNL     1      43.315 -19.797   2.411  1.00  0.00     0.040 A 
HETATM   18  O   UNL     1      43.621 -16.557   3.863  1.00  0.00    -0.308 OA
HETATM   19  C   UNL     1      44.175 -18.707   4.876  1.00  0.00     0.040 A 
HETATM   20  C   UNL     1      44.179 -20.089   4.671  1.00  0.00     0.003 A 
HETATM   21  C   UNL     1      43.747 -20.632   3.445  1.00  0.00     0.003 A 
ENDBRANCH  10  13
ENDBRANCH   5   9
BRANCH   4  22
HETATM   22  C   UNL     1      40.108 -13.422   1.448  1.00  0.00     0.064 A 
HETATM   23  N   UNL     1      39.879 -14.679   0.946  1.00  0.00    -0.277 N 
HETATM   24  H   UNL     1      39.950 -15.565   1.435  1.00  0.00     0.189 HD
HETATM   25  N   UNL     1      39.528 -14.689  -0.351  1.00  0.00    -0.179 NA
HETATM   26  C   UNL     1      39.505 -13.396  -0.693  1.00  0.00     0.053 A 
HETATM   27  C   UNL     1      39.146 -12.985  -2.071  1.00  0.00     0.072 C 
HETATM   28  C   UNL     1      39.847 -12.566   0.398  1.00  0.00     0.060 A 
ENDBRANCH   4  22
TORSDOF 3
ENDMDL
MODEL 3
REMARK VINA RESULT:      -8.5      2.677      6.019
REMARK  3 active torsions:
REMARK  status: ('A' for Active; 'I' for Inactive)
REMARK    1  A    between atoms: C_4  and  C_5 
REMARK    2  A    between atoms: C_12  and  N_13 
REMARK       I    between atoms: N_13  and  C_14 
REMARK    3  A    between atoms: C_14  and  C_15 
ROOT
HETATM    1  C   UNL     1      46.603 -10.976   6.582  1.00  0.00     0.048 C 
HETATM    2  C   UNL     1      45.159 -11.374   6.507  1.00  0.00    -0.060 A 
HETATM    3  C   UNL     1      44.780 -12.714   6.601  1.00  0.00     0.023 A 
HETATM    4  C   UNL     1      43.427 -13.084   6.570  1.00  0.00     0.020 A 
HETATM    5  C   UNL     1      42.422 -12.092   6.439  1.00  0.00     0.053 A 
HETATM    6  C   UNL     1      42.792 -10.732   6.421  1.00  0.00    -0.034 A 
HETATM    7  C   UNL     1      41.833  -9.578   6.550  1.00  0.00     0.050 C 
HETATM    8  C   UNL     1      44.162 -10.398   6.423  1.00  0.00     0.015 A 
ENDROOT
BRANCH   5   9
HETATM    9  N   UNL     1      41.082 -12.513   6.536  1.00  0.00    -0.322 N 
HETATM   10  C   UNL     1      40.188 -12.956   5.606  1.00  0.00     0.278 C 
HETATM   11  O   UNL     1      39.013 -13.076   5.985  1.00  0.00    -0.268 OA
HETATM   12  H   UNL     1      40.714 -12.602   7.479  1.00  0.00     0.169 HD
BRANCH  10  13
HETATM   13  C   UNL     1      40.603 -13.462   4.196  1.00  0.00     0.366 C 
HETATM   14  O   UNL     1      41.801 -13.008   3.568  1.00  0.00    -0.308 OA
HETATM   15  C   UNL     1      42.256 -14.154   2.997  1.00  0.00     0.106 A 
HETATM   16  C   UNL     1      41.541 -15.254   3.409  1.00  0.00     0.106 A 
HETATM   17  C   UNL     1      43.299 -14.259   2.104  1.00  0.00     0.040 A 
HETATM   18  O   UNL     1      40.548 -14.917   4.271  1.00  0.00    -0.308 OA
HETATM   19  C   UNL     1      41.837 -16.523   2.963  1.00  0.00     0.040 A 
HETATM   20  C   UNL     1      42.885 -16.659   2.049  1.00  0.00     0.003 A 
HETATM   21  C   UNL     1      43.610 -15.532   1.619  1.00  0.00     0.003 A 
ENDBRANCH  10  13
ENDBRANCH   5   9
BRANCH   4  22
HETATM   22  C   UNL     1      43.112 -14.511   6.660  1.00  0.00     0.064 A 
HETATM   23  N   UNL     1      42.008 -15.005   7.309  1.00  0.00    -0.277 N 
HETATM   24  H   UNL     1      41.290 -14.482   7.799  1.00  0.00     0.189 HD
HETATM   25  N   UNL     1      41.911 -16.344   7.271  1.00  0.00    -0.179 NA
HETATM   26  C   UNL     1      42.972 -16.728   6.554  1.00  0.00     0.053 A 
HETATM   27  C   UNL     1      43.218 -18.164   6.275  1.00  0.00     0.072 C 
HETATM   28  C   UNL     1      43.745 -15.621   6.138  1.00  0.00     0.060 A 
ENDBRANCH   4  22
TORSDOF 3
ENDMDL
MODEL 4
REMARK VINA RESULT:      -8.5      2.344      5.738
REMARK  3 active torsions:
REMARK  status: ('A' for Active; 'I' for Inactive)
REMARK    1  A    between atoms: C_4  and  C_5 
REMARK    2  A    between atoms: C_12  and  N_13 
REMARK       I    between atoms: N_13  and  C_14 
REMARK    3  A    between atoms: C_14  and  C_15 
ROOT
HETATM    1  C   UNL     1      45.782 -11.195   6.395  1.00  0.00     0.048 C 
HETATM    2  C   UNL     1      44.566 -12.015   6.080  1.00  0.00    -0.060 A 
HETATM    3  C   UNL     1      43.858 -11.818   4.895  1.00  0.00     0.023 A 
HETATM    4  C   UNL     1      42.743 -12.610   4.580  1.00  0.00     0.020 A 
HETATM    5  C   UNL     1      42.320 -13.627   5.474  1.00  0.00     0.053 A 
HETATM    6  C   UNL     1      43.076 -13.884   6.635  1.00  0.00    -0.034 A 
HETATM    7  C   UNL     1      42.902 -15.086   7.527  1.00  0.00     0.050 C 
HETATM    8  C   UNL     1      44.173 -13.048   6.935  1.00  0.00     0.015 A 
ENDROOT
BRANCH   5   9
HETATM    9  N   UNL     1      41.273 -14.467   5.049  1.00  0.00    -0.322 N 
HETATM   10  C   UNL     1      41.255 -15.605   4.297  1.00  0.00     0.278 C 
HETATM   11  O   UNL     1      40.138 -16.011   3.941  1.00  0.00    -0.268 OA
HETATM   12  H   UNL     1      40.358 -14.264   5.441  1.00  0.00     0.169 HD
BRANCH  10  13
HETATM   13  C   UNL     1      42.517 -16.471   4.028  1.00  0.00     0.366 C 
HETATM   14  O   UNL     1      43.048 -17.338   5.029  1.00  0.00    -0.308 OA
HETATM   15  C   UNL     1      43.392 -18.424   4.288  1.00  0.00     0.106 A 
HETATM   16  C   UNL     1      42.924 -18.337   2.999  1.00  0.00     0.106 A 
HETATM   17  C   UNL     1      44.125 -19.506   4.723  1.00  0.00     0.040 A 
HETATM   18  O   UNL     1      42.247 -17.179   2.783  1.00  0.00    -0.308 OA
HETATM   19  C   UNL     1      43.148 -19.333   2.074  1.00  0.00     0.040 A 
HETATM   20  C   UNL     1      43.897 -20.440   2.484  1.00  0.00     0.003 A 
HETATM   21  C   UNL     1      44.386 -20.523   3.802  1.00  0.00     0.003 A 
ENDBRANCH  10  13
ENDBRANCH   5   9
BRANCH   4  22
HETATM   22  C   UNL     1      42.044 -12.331   3.325  1.00  0.00     0.064 A 
HETATM   23  N   UNL     1      41.076 -11.367   3.193  1.00  0.00    -0.277 N 
HETATM   24  H   UNL     1      40.720 -10.743   3.910  1.00  0.00     0.189 HD
HETATM   25  N   UNL     1      40.563 -11.279   1.955  1.00  0.00    -0.179 NA
HETATM   26  C   UNL     1      41.237 -12.198   1.256  1.00  0.00     0.053 A 
HETATM   27  C   UNL     1      40.961 -12.405  -0.186  1.00  0.00     0.072 C 
HETATM   28  C   UNL     1      42.181 -12.873   2.063  1.00  0.00     0.060 A 
ENDBRANCH   4  22
TORSDOF 3
ENDMDL
MODEL 5
REMARK VINA RESULT:      -8.5     15.955     17.723
REMARK  3 active torsions:
REMARK  status: ('A' for Active; 'I' for Inactive)
REMARK    1  A    between atoms: C_4  and  C_5 
REMARK    2  A    between atoms: C_12  and  N_13 
REMARK       I    between atoms: N_13  and  C_14 
REMARK    3  A    between atoms: C_14  and  C_15 
ROOT
HETATM    1  C   UNL     1      44.320 -29.582  -4.600  1.00  0.00     0.048 C 
HETATM    2  C   UNL     1      44.686 -29.201  -3.195  1.00  0.00    -0.060 A 
HETATM    3  C   UNL     1      43.881 -29.579  -2.120  1.00  0.00     0.023 A 
HETATM    4  C   UNL     1      44.242 -29.257  -0.802  1.00  0.00     0.020 A 
HETATM    5  C   UNL     1      45.437 -28.537  -0.548  1.00  0.00     0.053 A 
HETATM    6  C   UNL     1      46.293 -28.220  -1.622  1.00  0.00    -0.034 A 
HETATM    7  C   UNL     1      47.699 -27.700  -1.476  1.00  0.00     0.050 C 
HETATM    8  C   UNL     1      45.885 -28.531  -2.936  1.00  0.00     0.015 A 
ENDROOT
BRANCH   5   9
HETATM    9  N   UNL     1      45.806 -28.350   0.797  1.00  0.00    -0.322 N 
HETATM   10  C   UNL     1      46.527 -29.115   1.667  1.00  0.00     0.278 C 
HETATM   11  O   UNL     1      46.521 -28.753   2.854  1.00  0.00    -0.268 OA
HETATM   12  H   UNL     1      45.588 -27.440   1.193  1.00  0.00     0.169 HD
BRANCH  10  13
HETATM   13  C   UNL     1      47.460 -30.273   1.215  1.00  0.00     0.366 C 
HETATM   14  O   UNL     1      47.191 -31.023   0.032  1.00  0.00    -0.308 OA
HETATM   15  C   UNL     1      48.441 -31.176  -0.479  1.00  0.00     0.106 A 
HETATM   16  C   UNL     1      49.368 -30.414   0.191  1.00  0.00     0.106 A 
HETATM   17  C   UNL     1      48.793 -31.987  -1.536  1.00  0.00     0.040 A 
HETATM   18  O   UNL     1      48.805 -29.711   1.208  1.00  0.00    -0.308 OA
HETATM   19  C   UNL     1      50.699 -30.408  -0.165  1.00  0.00     0.040 A 
HETATM   20  C   UNL     1      51.088 -31.228  -1.228  1.00  0.00     0.003 A 
HETATM   21  C   UNL     1      50.140 -32.016  -1.907  1.00  0.00     0.003 A 
ENDBRANCH  10  13
ENDBRANCH   5   9
BRANCH   4  22
HETATM   22  C   UNL     1      43.337 -29.675   0.270  1.00  0.00     0.064 A 
HETATM   23  N   UNL     1      42.449 -28.830   0.887  1.00  0.00    -0.277 N 
HETATM   24  H   UNL     1      42.301 -27.844   0.702  1.00  0.00     0.189 HD
HETATM   25  N   UNL     1      41.715 -29.420   1.845  1.00  0.00    -0.179 NA
HETATM   26  C   UNL     1      42.124 -30.693   1.833  1.00  0.00     0.053 A 
HETATM   27  C   UNL     1      41.532 -31.687   2.760  1.00  0.00     0.072 C 
HETATM   28  C   UNL     1      43.125 -30.906   0.859  1.00  0.00     0.060 A 
ENDBRANCH   4  22
TORSDOF 3
ENDMDL
MODEL 6
REMARK VINA RESULT:      -8.4      2.966      7.011
REMARK  3 active torsions:
REMARK  status: ('A' for Active; 'I' for Inactive)
REMARK    1  A    between atoms: C_4  and  C_5 
REMARK    2  A    between atoms: C_12  and  N_13 
REMARK       I    between atoms: N_13  and  C_14 
REMARK    3  A    between atoms: C_14  and  C_15 
ROOT
HETATM    1  C   UNL     1      41.306  -9.657   2.076  1.00  0.00     0.048 C 
HETATM    2  C   UNL     1      41.546 -10.680   3.148  1.00  0.00    -0.060 A 
HETATM    3  C   UNL     1      42.520 -10.475   4.126  1.00  0.00     0.023 A 
HETATM    4  C   UNL     1      42.719 -11.413   5.151  1.00  0.00     0.020 A 
HETATM    5  C   UNL     1      41.928 -12.588   5.203  1.00  0.00     0.053 A 
HETATM    6  C   UNL     1      40.891 -12.765   4.264  1.00  0.00    -0.034 A 
HETATM    7  C   UNL     1      39.819 -13.818   4.355  1.00  0.00     0.050 C 
HETATM    8  C   UNL     1      40.739 -11.818   3.229  1.00  0.00     0.015 A 
ENDROOT
BRANCH   5   9
HETATM    9  N   UNL     1      42.091 -13.429   6.320  1.00  0.00    -0.322 N 
HETATM   10  C   UNL     1      42.527 -14.716   6.446  1.00  0.00     0.278 C 
HETATM   11  O   UNL     1      42.379 -15.241   7.560  1.00  0.00    -0.268 OA
HETATM   12  H   UNL     1      41.955 -12.991   7.226  1.00  0.00     0.169 HD
BRANCH  10  13
HETATM   13  C   UNL     1      43.330 -15.457   5.340  1.00  0.00     0.366 C 
HETATM   14  O   UNL     1      44.108 -16.616   5.639  1.00  0.00    -0.308 OA
HETATM   15  C   UNL     1      43.856 -17.395   4.555  1.00  0.00     0.106 A 
HETATM   16  C   UNL     1      42.854 -16.876   3.769  1.00  0.00     0.106 A 
HETATM   17  C   UNL     1      44.500 -18.569   4.230  1.00  0.00     0.040 A 
HETATM   18  O   UNL     1      42.378 -15.705   4.265  1.00  0.00    -0.308 OA
HETATM   19  C   UNL     1      42.427 -17.508   2.622  1.00  0.00     0.040 A 
HETATM   20  C   UNL     1      43.068 -18.697   2.262  1.00  0.00     0.003 A 
HETATM   21  C   UNL     1      44.102 -19.222   3.061  1.00  0.00     0.003 A 
ENDBRANCH  10  13
ENDBRANCH   5   9
BRANCH   4  22
HETATM   22  C   UNL     1      43.770 -11.133   6.131  1.00  0.00     0.064 A 
HETATM   23  N   UNL     1      45.087 -11.476   5.951  1.00  0.00    -0.277 N 
HETATM   24  H   UNL     1      45.501 -11.951   5.156  1.00  0.00     0.189 HD
HETATM   25  N   UNL     1      45.883 -11.127   6.975  1.00  0.00    -0.179 NA
HETATM   26  C   UNL     1      45.061 -10.517   7.835  1.00  0.00     0.053 A 
HETATM   27  C   UNL     1      45.575  -9.969   9.113  1.00  0.00     0.072 C 
HETATM   28  C   UNL     1      43.735 -10.484   7.349  1.00  0.00     0.060 A 
ENDBRANCH   4  22
TORSDOF 3
ENDMDL
MODEL 7
REMARK VINA RESULT:      -8.3      2.724      5.312
REMARK  3 active torsions:
REMARK  status: ('A' for Active; 'I' for Inactive)
REMARK    1  A    between atoms: C_4  and  C_5 
REMARK    2  A    between atoms: C_12  and  N_13 
REMARK       I    between atoms: N_13  and  C_14 
REMARK    3  A    between atoms: C_14  and  C_15 
ROOT
HETATM    1  C   UNL     1      41.388  -8.969   4.085  1.00  0.00     0.048 C 
HETATM    2  C   UNL     1      40.757 -10.294   3.773  1.00  0.00    -0.060 A 
HETATM    3  C   UNL     1      40.569 -10.703   2.452  1.00  0.00     0.023 A 
HETATM    4  C   UNL     1      40.013 -11.958   2.158  1.00  0.00     0.020 A 
HETATM    5  C   UNL     1      39.633 -12.830   3.210  1.00  0.00     0.053 A 
HETATM    6  C   UNL     1      39.891 -12.456   4.545  1.00  0.00    -0.034 A 
HETATM    7  C   UNL     1      39.785 -13.377   5.731  1.00  0.00     0.050 C 
HETATM    8  C   UNL     1      40.422 -11.175   4.804  1.00  0.00     0.015 A 
ENDROOT
BRANCH   5   9
HETATM    9  N   UNL     1      39.196 -14.120   2.855  1.00  0.00    -0.322 N 
HETATM   10  C   UNL     1      39.869 -15.273   2.571  1.00  0.00     0.278 C 
HETATM   11  O   UNL     1      39.194 -16.204   2.108  1.00  0.00    -0.268 OA
HETATM   12  H   UNL     1      38.193 -14.276   2.902  1.00  0.00     0.169 HD
BRANCH  10  13
HETATM   13  C   UNL     1      41.356 -15.510   2.957  1.00  0.00     0.366 C 
HETATM   14  O   UNL     1      41.757 -15.647   4.319  1.00  0.00    -0.308 OA
HETATM   15  C   UNL     1      42.681 -16.640   4.228  1.00  0.00     0.106 A 
HETATM   16  C   UNL     1      42.696 -17.216   2.981  1.00  0.00     0.106 A 
HETATM   17  C   UNL     1      43.529 -17.055   5.231  1.00  0.00     0.040 A 
HETATM   18  O   UNL     1      41.795 -16.638   2.145  1.00  0.00    -0.308 OA
HETATM   19  C   UNL     1      43.550 -18.251   2.667  1.00  0.00     0.040 A 
HETATM   20  C   UNL     1      44.429 -18.688   3.663  1.00  0.00     0.003 A 
HETATM   21  C   UNL     1      44.420 -18.090   4.937  1.00  0.00     0.003 A 
ENDBRANCH  10  13
ENDBRANCH   5   9
BRANCH   4  22
HETATM   22  C   UNL     1      39.834 -12.307   0.748  1.00  0.00     0.064 A 
HETATM   23  N   UNL     1      38.621 -12.280   0.108  1.00  0.00    -0.277 N 
HETATM   24  H   UNL     1      37.718 -12.030   0.498  1.00  0.00     0.189 HD
HETATM   25  N   UNL     1      38.682 -12.639  -1.185  1.00  0.00    -0.179 NA
HETATM   26  C   UNL     1      39.980 -12.883  -1.395  1.00  0.00     0.053 A 
HETATM   27  C   UNL     1      40.463 -13.306  -2.732  1.00  0.00     0.072 C 
HETATM   28  C   UNL     1      40.742 -12.678  -0.224  1.00  0.00     0.060 A 
ENDBRANCH   4  22
TORSDOF 3
ENDMDL
MODEL 8
REMARK VINA RESULT:      -8.0      1.749      3.891
REMARK  3 active torsions:
REMARK  status: ('A' for Active; 'I' for Inactive)
REMARK    1  A    between atoms: C_4  and  C_5 
REMARK    2  A    between atoms: C_12  and  N_13 
REMARK       I    between atoms: N_13  and  C_14 
REMARK    3  A    between atoms: C_14  and  C_15 
ROOT
HETATM    1  C   UNL     1      40.855 -12.273  -1.113  1.00  0.00     0.048 C 
HETATM    2  C   UNL     1      40.631 -12.790   0.277  1.00  0.00    -0.060 A 
HETATM    3  C   UNL     1      41.381 -13.856   0.774  1.00  0.00     0.023 A 
HETATM    4  C   UNL     1      41.199 -14.316   2.087  1.00  0.00     0.020 A 
HETATM    5  C   UNL     1      40.240 -13.697   2.930  1.00  0.00     0.053 A 
HETATM    6  C   UNL     1      39.533 -12.571   2.461  1.00  0.00    -0.034 A 
HETATM    7  C   UNL     1      38.690 -11.666   3.320  1.00  0.00     0.050 C 
HETATM    8  C   UNL     1      39.719 -12.156   1.126  1.00  0.00     0.015 A 
ENDROOT
BRANCH   5   9
HETATM    9  N   UNL     1      40.188 -14.121   4.271  1.00  0.00    -0.322 N 
HETATM   10  C   UNL     1      40.940 -13.805   5.365  1.00  0.00     0.278 C 
HETATM   11  O   UNL     1      40.756 -14.497   6.378  1.00  0.00    -0.268 OA
HETATM   12  H   UNL     1      39.391 -14.700   4.521  1.00  0.00     0.169 HD
BRANCH  10  13
HETATM   13  C   UNL     1      41.854 -12.550   5.439  1.00  0.00     0.366 C 
HETATM   14  O   UNL     1      41.598 -11.501   6.370  1.00  0.00    -0.308 OA
HETATM   15  C   UNL     1      42.857 -11.187   6.773  1.00  0.00     0.106 A 
HETATM   16  C   UNL     1      43.785 -12.090   6.314  1.00  0.00     0.106 A 
HETATM   17  C   UNL     1      43.218 -10.104   7.545  1.00  0.00     0.040 A 
HETATM   18  O   UNL     1      43.213 -13.063   5.558  1.00  0.00    -0.308 OA
HETATM   19  C   UNL     1      45.125 -11.973   6.611  1.00  0.00     0.040 A 
HETATM   20  C   UNL     1      45.522 -10.878   7.384  1.00  0.00     0.003 A 
HETATM   21  C   UNL     1      44.573  -9.947   7.846  1.00  0.00     0.003 A 
ENDBRANCH  10  13
ENDBRANCH   5   9
BRANCH   4  22
HETATM   22  C   UNL     1      42.015 -15.449   2.529  1.00  0.00     0.064 A 
HETATM   23  N   UNL     1      43.069 -15.330   3.400  1.00  0.00    -0.277 N 
HETATM   24  H   UNL     1      43.420 -14.486   3.838  1.00  0.00     0.189 HD
HETATM   25  N   UNL     1      43.681 -16.495   3.671  1.00  0.00    -0.179 NA
HETATM   26  C   UNL     1      42.987 -17.399   2.972  1.00  0.00     0.053 A 
HETATM   27  C   UNL     1      43.355 -18.835   3.017  1.00  0.00     0.072 C 
HETATM   28  C   UNL     1      41.929 -16.798   2.254  1.00  0.00     0.060 A 
ENDBRANCH   4  22
TORSDOF 3
ENDMDL
MODEL 9
REMARK VINA RESULT:      -8.0      2.452      4.431
REMARK  3 active torsions:
REMARK  status: ('A' for Active; 'I' for Inactive)
REMARK    1  A    between atoms: C_4  and  C_5 
REMARK    2  A    between atoms: C_12  and  N_13 
REMARK       I    between atoms: N_13  and  C_14 
REMARK    3  A    between atoms: C_14  and  C_15 
ROOT
HETATM    1  C   UNL     1      39.225  -8.233   3.455  1.00  0.00     0.048 C 
HETATM    2  C   UNL     1      39.214  -9.728   3.329  1.00  0.00    -0.060 A 
HETATM    3  C   UNL     1      39.258 -10.341   2.077  1.00  0.00     0.023 A 
HETATM    4  C   UNL     1      39.286 -11.739   1.958  1.00  0.00     0.020 A 
HETATM    5  C   UNL     1      39.268 -12.551   3.121  1.00  0.00     0.053 A 
HETATM    6  C   UNL     1      39.302 -11.939   4.391  1.00  0.00    -0.034 A 
HETATM    7  C   UNL     1      39.548 -12.663   5.688  1.00  0.00     0.050 C 
HETATM    8  C   UNL     1      39.241 -10.532   4.472  1.00  0.00     0.015 A 
ENDROOT
BRANCH   5   9
HETATM    9  N   UNL     1      39.420 -13.938   2.944  1.00  0.00    -0.322 N 
HETATM   10  C   UNL     1      40.521 -14.735   2.823  1.00  0.00     0.278 C 
HETATM   11  O   UNL     1      40.316 -15.912   2.489  1.00  0.00    -0.268 OA
HETATM   12  H   UNL     1      38.568 -14.488   3.008  1.00  0.00     0.169 HD
BRANCH  10  13
HETATM   13  C   UNL     1      41.949 -14.286   3.243  1.00  0.00     0.366 C 
HETATM   14  O   UNL     1      42.406 -12.955   3.010  1.00  0.00    -0.308 OA
HETATM   15  C   UNL     1      43.093 -12.703   4.155  1.00  0.00     0.106 A 
HETATM   16  C   UNL     1      42.900 -13.684   5.097  1.00  0.00     0.106 A 
HETATM   17  C   UNL     1      43.904 -11.615   4.394  1.00  0.00     0.040 A 
HETATM   18  O   UNL     1      42.084 -14.669   4.642  1.00  0.00    -0.308 OA
HETATM   19  C   UNL     1      43.495 -13.628   6.339  1.00  0.00     0.040 A 
HETATM   20  C   UNL     1      44.330 -12.540   6.607  1.00  0.00     0.003 A 
HETATM   21  C   UNL     1      44.536 -11.540   5.638  1.00  0.00     0.003 A 
ENDBRANCH  10  13
ENDBRANCH   5   9
BRANCH   4  22
HETATM   22  C   UNL     1      39.316 -12.306   0.609  1.00  0.00     0.064 A 
HETATM   23  N   UNL     1      38.189 -12.567  -0.130  1.00  0.00    -0.277 N 
HETATM   24  H   UNL     1      37.222 -12.418   0.139  1.00  0.00     0.189 HD
HETATM   25  N   UNL     1      38.444 -13.087  -1.342  1.00  0.00    -0.179 NA
HETATM   26  C   UNL     1      39.779 -13.142  -1.400  1.00  0.00     0.053 A 
HETATM   27  C   UNL     1      40.464 -13.660  -2.609  1.00  0.00     0.072 C 
HETATM   28  C   UNL     1      40.369 -12.653  -0.213  1.00  0.00     0.060 A 
ENDBRANCH   4  22
TORSDOF 3
ENDMDL
MODEL 10
REMARK VINA RESULT:      -8.0      2.342      6.396
REMARK  3 active torsions:
REMARK  status: ('A' for Active; 'I' for Inactive)
REMARK    1  A    between atoms: C_4  and  C_5 
REMARK    2  A    between atoms: C_12  and  N_13 
REMARK       I    between atoms: N_13  and  C_14 
REMARK    3  A    between atoms: C_14  and  C_15 
ROOT
HETATM    1  C   UNL     1      44.232 -11.759   6.724  1.00  0.00     0.048 C 
HETATM    2  C   UNL     1      43.283 -12.608   5.930  1.00  0.00    -0.060 A 
HETATM    3  C   UNL     1      43.618 -13.915   5.576  1.00  0.00     0.023 A 
HETATM    4  C   UNL     1      42.716 -14.723   4.866  1.00  0.00     0.020 A 
HETATM    5  C   UNL     1      41.444 -14.214   4.498  1.00  0.00     0.053 A 
HETATM    6  C   UNL     1      41.069 -12.922   4.920  1.00  0.00    -0.034 A 
HETATM    7  C   UNL     1      39.675 -12.359   4.831  1.00  0.00     0.050 C 
HETATM    8  C   UNL     1      42.012 -12.126   5.604  1.00  0.00     0.015 A 
ENDROOT
BRANCH   5   9
HETATM    9  N   UNL     1      40.539 -15.108   3.897  1.00  0.00    -0.322 N 
HETATM   10  C   UNL     1      39.962 -15.139   2.660  1.00  0.00     0.278 C 
HETATM   11  O   UNL     1      39.054 -15.969   2.498  1.00  0.00    -0.268 OA
HETATM   12  H   UNL     1      40.331 -15.950   4.426  1.00  0.00     0.169 HD
BRANCH  10  13
HETATM   13  C   UNL     1      40.498 -14.329   1.448  1.00  0.00     0.366 C 
HETATM   14  O   UNL     1      40.641 -14.927   0.161  1.00  0.00    -0.308 OA
HETATM   15  C   UNL     1      40.221 -13.922  -0.651  1.00  0.00     0.106 A 
HETATM   16  C   UNL     1      39.663 -12.886   0.058  1.00  0.00     0.106 A 
HETATM   17  C   UNL     1      40.322 -13.891  -2.025  1.00  0.00     0.040 A 
HETATM   18  O   UNL     1      39.686 -13.119   1.396  1.00  0.00    -0.308 OA
HETATM   19  C   UNL     1      39.159 -11.765  -0.564  1.00  0.00     0.040 A 
HETATM   20  C   UNL     1      39.256 -11.701  -1.957  1.00  0.00     0.003 A 
HETATM   21  C   UNL     1      39.838 -12.757  -2.683  1.00  0.00     0.003 A 
ENDBRANCH  10  13
ENDBRANCH   5   9
BRANCH   4  22
HETATM   22  C   UNL     1      43.147 -16.078   4.518  1.00  0.00     0.064 A 
HETATM   23  N   UNL     1      43.526 -17.015   5.446  1.00  0.00    -0.277 N 
HETATM   24  H   UNL     1      43.564 -16.910   6.455  1.00  0.00     0.189 HD
HETATM   25  N   UNL     1      43.886 -18.193   4.911  1.00  0.00    -0.179 NA
HETATM   26  C   UNL     1      43.712 -18.022   3.596  1.00  0.00     0.053 A 
HETATM   27  C   UNL     1      43.999 -19.122   2.645  1.00  0.00     0.072 C 
HETATM   28  C   UNL     1      43.240 -16.723   3.302  1.00  0.00     0.060 A 
ENDBRANCH   4  22
TORSDOF 3
ENDMDL
