MODEL 1
REMARK VINA RESULT:      -7.9      0.000      0.000
REMARK  9 active torsions:
REMARK  status: ('A' for Active; 'I' for Inactive)
REMARK    1  A    between atoms: C_2  and  C_3 
REMARK    2  A    between atoms: C_6  and  N_7 
REMARK    3  A    between atoms: C_8  and  O_9 
REMARK    4  A    between atoms: C_8  and  C_10 
REMARK       I    between atoms: C_10  and  N_11 
REMARK    5  A    between atoms: N_11  and  C_12 
REMARK    6  A    between atoms: C_12  and  C_13 
REMARK    7  A    between atoms: C_13  and  N_14 
REMARK    8  A    between atoms: N_14  and  C_16 
REMARK    9  A    between atoms: N_14  and  C_18 
ROOT
HETATM    1  N   UNL     1      42.533 -14.739   5.007  1.00  0.00    -0.254 N 
HETATM    2  C   UNL     1      42.827 -13.392   4.505  1.00  0.00     0.256 C 
HETATM    3  C   UNL     1      43.638 -12.605   5.498  1.00  0.00     0.034 A 
HETATM    4  C   UNL     1      43.377 -12.849   6.848  1.00  0.00     0.048 A 
HETATM    5  N   UNL     1      42.439 -13.833   7.169  1.00  0.00    -0.308 N 
HETATM    6  C   UNL     1      42.003 -14.807   6.296  1.00  0.00     0.330 C 
HETATM    7  O   UNL     1      41.225 -15.658   6.721  1.00  0.00    -0.246 OA
HETATM    8  C   UNL     1      44.558 -11.609   5.150  1.00  0.00     0.015 A 
HETATM    9  C   UNL     1      45.199 -10.874   6.146  1.00  0.00     0.001 A 
HETATM   10  C   UNL     1      44.918 -11.119   7.490  1.00  0.00     0.002 A 
HETATM   11  C   UNL     1      43.998 -12.106   7.847  1.00  0.00     0.030 A 
HETATM   12  H   UNL     1      42.212 -14.011   8.142  1.00  0.00     0.170 HD
ENDROOT
BRANCH   2  13
HETATM   13  O   UNL     1      43.474 -13.391   3.235  1.00  0.00    -0.359 OA
HETATM   14  H   UNL     1      44.373 -13.734   3.399  1.00  0.00     0.213 HD
ENDBRANCH   2  13
BRANCH   2  15
HETATM   15  C   UNL     1      41.393 -12.764   4.209  1.00  0.00     0.279 C 
HETATM   16  N   UNL     1      40.787 -13.002   2.991  1.00  0.00    -0.355 N 
HETATM   17  H   UNL     1      41.159 -13.777   2.448  1.00  0.00     0.162 HD
HETATM   18  O   UNL     1      40.882 -11.946   4.985  1.00  0.00    -0.268 OA
BRANCH  16  19
HETATM   19  C   UNL     1      39.422 -12.610   2.645  1.00  0.00     0.150 C 
BRANCH  19  20
HETATM   20  C   UNL     1      39.178 -11.809   1.345  1.00  0.00     0.254 C 
BRANCH  20  21
HETATM   21  N   UNL     1      38.732 -12.656   0.166  1.00  0.00    -0.070 N 
HETATM   22  H   UNL     1      38.183 -13.410   0.618  1.00  0.00     0.279 HD
BRANCH  21  23
HETATM   23  C   UNL     1      37.792 -11.991  -0.813  1.00  0.00     0.230 C 
HETATM   24  C   UNL     1      38.107 -12.367  -2.250  1.00  0.00     0.034 C 
ENDBRANCH  21  23
BRANCH  21  25
HETATM   25  C   UNL     1      39.884 -13.364  -0.521  1.00  0.00     0.230 C 
HETATM   26  C   UNL     1      39.932 -14.833  -0.138  1.00  0.00     0.034 C 
ENDBRANCH  21  25
ENDBRANCH  20  21
ENDBRANCH  19  20
ENDBRANCH  16  19
ENDBRANCH   2  15
BRANCH   1  27
HETATM   27  C   UNL     1      42.707 -15.915   4.214  1.00  0.00     0.043 A 
HETATM   28  C   UNL     1      41.850 -16.229   3.154  1.00  0.00     0.030 A 
HETATM   29  C   UNL     1      42.022 -17.406   2.411  1.00  0.00     0.009 A 
HETATM   30  C   UNL     1      43.042 -18.309   2.727  1.00  0.00    -0.058 A 
HETATM   31  C   UNL     1      43.879 -18.019   3.806  1.00  0.00     0.009 A 
HETATM   32  C   UNL     1      43.710 -16.840   4.539  1.00  0.00     0.030 A 
BRANCH  30  33
HETATM   33  C   UNL     1      43.218 -19.585   1.944  1.00  0.00     0.034 C 
HETATM   34  C   UNL     1      43.777 -20.716   2.796  1.00  0.00     0.010 C 
ENDBRANCH  30  33
ENDBRANCH   1  27
TORSDOF 9
ENDMDL
MODEL 2
REMARK VINA RESULT:      -7.7      2.311      6.742
REMARK  9 active torsions:
REMARK  status: ('A' for Active; 'I' for Inactive)
REMARK    1  A    between atoms: C_2  and  C_3 
REMARK    2  A    between atoms: C_6  and  N_7 
REMARK    3  A    between atoms: C_8  and  O_9 
REMARK    4  A    between atoms: C_8  and  C_10 
REMARK       I    between atoms: C_10  and  N_11 
REMARK    5  A    between atoms: N_11  and  C_12 
REMARK    6  A    between atoms: C_12  and  C_13 
REMARK    7  A    between atoms: C_13  and  N_14 
REMARK    8  A    between atoms: N_14  and  C_16 
REMARK    9  A    between atoms: N_14  and  C_18 
ROOT
HETATM    1  N   UNL     1      41.146 -13.890   2.760  1.00  0.00    -0.254 N 
HETATM    2  C   UNL     1      42.503 -14.186   3.231  1.00  0.00     0.256 C 
HETATM    3  C   UNL     1      42.489 -15.227   4.318  1.00  0.00     0.034 A 
HETATM    4  C   UNL     1      41.393 -15.208   5.183  1.00  0.00     0.048 A 
HETATM    5  N   UNL     1      40.381 -14.277   4.944  1.00  0.00    -0.308 N 
HETATM    6  C   UNL     1      40.204 -13.610   3.749  1.00  0.00     0.330 C 
HETATM    7  O   UNL     1      39.232 -12.865   3.642  1.00  0.00    -0.246 OA
HETATM    8  C   UNL     1      43.527 -16.137   4.549  1.00  0.00     0.015 A 
HETATM    9  C   UNL     1      43.459 -17.009   5.635  1.00  0.00     0.001 A 
HETATM   10  C   UNL     1      42.365 -16.970   6.499  1.00  0.00     0.002 A 
HETATM   11  C   UNL     1      41.329 -16.062   6.280  1.00  0.00     0.030 A 
HETATM   12  H   UNL     1      39.587 -14.225   5.573  1.00  0.00     0.170 HD
ENDROOT
BRANCH   2  13
HETATM   13  O   UNL     1      43.392 -14.579   2.189  1.00  0.00    -0.359 OA
HETATM   14  H   UNL     1      44.127 -15.043   2.633  1.00  0.00     0.213 HD
ENDBRANCH   2  13
BRANCH   2  15
HETATM   15  C   UNL     1      43.066 -12.772   3.708  1.00  0.00     0.279 C 
HETATM   16  N   UNL     1      43.340 -12.568   5.046  1.00  0.00    -0.355 N 
HETATM   17  H   UNL     1      43.422 -13.404   5.620  1.00  0.00     0.162 HD
HETATM   18  O   UNL     1      43.118 -11.811   2.930  1.00  0.00    -0.268 OA
BRANCH  16  19
HETATM   19  C   UNL     1      43.989 -11.380   5.596  1.00  0.00     0.150 C 
BRANCH  19  20
HETATM   20  C   UNL     1      43.410 -10.730   6.873  1.00  0.00     0.254 C 
BRANCH  20  21
HETATM   21  N   UNL     1      44.342 -10.773   8.071  1.00  0.00    -0.070 N 
HETATM   22  H   UNL     1      44.187 -11.726   8.450  1.00  0.00     0.279 HD
BRANCH  21  23
HETATM   23  C   UNL     1      45.821 -10.686   7.767  1.00  0.00     0.230 C 
HETATM   24  C   UNL     1      46.372  -9.293   8.015  1.00  0.00     0.034 C 
ENDBRANCH  21  23
BRANCH  21  25
HETATM   25  C   UNL     1      43.920  -9.832   9.182  1.00  0.00     0.230 C 
HETATM   26  C   UNL     1      43.810 -10.562  10.508  1.00  0.00     0.034 C 
ENDBRANCH  21  25
ENDBRANCH  20  21
ENDBRANCH  19  20
ENDBRANCH  16  19
ENDBRANCH   2  15
BRANCH   1  27
HETATM   27  C   UNL     1      40.808 -13.822   1.373  1.00  0.00     0.043 A 
HETATM   28  C   UNL     1      41.022 -12.667   0.613  1.00  0.00     0.030 A 
HETATM   29  C   UNL     1      40.651 -12.612  -0.738  1.00  0.00     0.009 A 
HETATM   30  C   UNL     1      40.035 -13.706  -1.355  1.00  0.00    -0.058 A 
HETATM   31  C   UNL     1      39.788 -14.850  -0.594  1.00  0.00     0.009 A 
HETATM   32  C   UNL     1      40.166 -14.903   0.751  1.00  0.00     0.030 A 
BRANCH  30  33
HETATM   33  C   UNL     1      39.617 -13.645  -2.803  1.00  0.00     0.034 C 
HETATM   34  C   UNL     1      38.586 -14.709  -3.153  1.00  0.00     0.010 C 
ENDBRANCH  30  33
ENDBRANCH   1  27
TORSDOF 9
ENDMDL
MODEL 3
REMARK VINA RESULT:      -7.7      2.544      6.513
REMARK  9 active torsions:
REMARK  status: ('A' for Active; 'I' for Inactive)
REMARK    1  A    between atoms: C_2  and  C_3 
REMARK    2  A    between atoms: C_6  and  N_7 
REMARK    3  A    between atoms: C_8  and  O_9 
REMARK    4  A    between atoms: C_8  and  C_10 
REMARK       I    between atoms: C_10  and  N_11 
REMARK    5  A    between atoms: N_11  and  C_12 
REMARK    6  A    between atoms: C_12  and  C_13 
REMARK    7  A    between atoms: C_13  and  N_14 
REMARK    8  A    between atoms: N_14  and  C_16 
REMARK    9  A    between atoms: N_14  and  C_18 
ROOT
HETATM    1  N   UNL     1      43.240 -12.449   4.886  1.00  0.00    -0.254 N 
HETATM    2  C   UNL     1      42.470 -13.654   5.211  1.00  0.00     0.256 C 
HETATM    3  C   UNL     1      42.820 -14.791   4.289  1.00  0.00     0.034 A 
HETATM    4  C   UNL     1      43.137 -14.449   2.972  1.00  0.00     0.048 A 
HETATM    5  N   UNL     1      43.163 -13.095   2.632  1.00  0.00    -0.308 N 
HETATM    6  C   UNL     1      43.235 -12.064   3.545  1.00  0.00     0.330 C 
HETATM    7  O   UNL     1      43.320 -10.916   3.115  1.00  0.00    -0.246 OA
HETATM    8  C   UNL     1      42.767 -16.142   4.650  1.00  0.00     0.015 A 
HETATM    9  C   UNL     1      43.027 -17.128   3.699  1.00  0.00     0.001 A 
HETATM   10  C   UNL     1      43.330 -16.773   2.385  1.00  0.00     0.002 A 
HETATM   11  C   UNL     1      43.379 -15.429   2.014  1.00  0.00     0.030 A 
HETATM   12  H   UNL     1      43.365 -12.822   1.676  1.00  0.00     0.170 HD
ENDROOT
BRANCH   2  13
HETATM   13  O   UNL     1      42.608 -14.065   6.568  1.00  0.00    -0.359 OA
HETATM   14  H   UNL     1      42.110 -13.410   7.092  1.00  0.00     0.213 HD
ENDBRANCH   2  13
BRANCH   2  15
HETATM   15  C   UNL     1      40.950 -13.186   5.101  1.00  0.00     0.279 C 
HETATM   16  N   UNL     1      40.392 -12.449   6.127  1.00  0.00    -0.355 N 
HETATM   17  H   UNL     1      41.045 -12.015   6.775  1.00  0.00     0.162 HD
HETATM   18  O   UNL     1      40.219 -13.599   4.190  1.00  0.00    -0.268 OA
BRANCH  16  19
HETATM   19  C   UNL     1      39.065 -11.838   6.092  1.00  0.00     0.150 C 
BRANCH  19  20
HETATM   20  C   UNL     1      38.947 -10.297   6.127  1.00  0.00     0.254 C 
BRANCH  20  21
HETATM   21  N   UNL     1      39.210  -9.622   4.792  1.00  0.00    -0.070 N 
HETATM   22  H   UNL     1      38.611  -8.777   4.838  1.00  0.00     0.279 HD
BRANCH  21  23
HETATM   23  C   UNL     1      40.617  -9.118   4.567  1.00  0.00     0.230 C 
HETATM   24  C   UNL     1      40.968  -7.972   5.499  1.00  0.00     0.034 C 
ENDBRANCH  21  23
BRANCH  21  25
HETATM   25  C   UNL     1      38.681 -10.417   3.614  1.00  0.00     0.230 C 
HETATM   26  C   UNL     1      39.725 -10.538   2.519  1.00  0.00     0.034 C 
ENDBRANCH  21  25
ENDBRANCH  20  21
ENDBRANCH  19  20
ENDBRANCH  16  19
ENDBRANCH   2  15
BRANCH   1  27
HETATM   27  C   UNL     1      43.906 -11.666   5.879  1.00  0.00     0.043 A 
HETATM   28  C   UNL     1      45.263 -11.839   6.174  1.00  0.00     0.030 A 
HETATM   29  C   UNL     1      45.886 -11.080   7.175  1.00  0.00     0.009 A 
HETATM   30  C   UNL     1      45.160 -10.147   7.922  1.00  0.00    -0.058 A 
HETATM   31  C   UNL     1      43.798  -9.993   7.655  1.00  0.00     0.009 A 
HETATM   32  C   UNL     1      43.182 -10.745   6.650  1.00  0.00     0.030 A 
BRANCH  30  33
HETATM   33  C   UNL     1      45.822  -9.343   9.013  1.00  0.00     0.034 C 
HETATM   34  C   UNL     1      45.324  -9.729  10.399  1.00  0.00     0.010 C 
ENDBRANCH  30  33
ENDBRANCH   1  27
TORSDOF 9
ENDMDL
MODEL 4
REMARK VINA RESULT:      -7.6      1.835      5.896
REMARK  9 active torsions:
REMARK  status: ('A' for Active; 'I' for Inactive)
REMARK    1  A    between atoms: C_2  and  C_3 
REMARK    2  A    between atoms: C_6  and  N_7 
REMARK    3  A    between atoms: C_8  and  O_9 
REMARK    4  A    between atoms: C_8  and  C_10 
REMARK       I    between atoms: C_10  and  N_11 
REMARK    5  A    between atoms: N_11  and  C_12 
REMARK    6  A    between atoms: C_12  and  C_13 
REMARK    7  A    between atoms: C_13  and  N_14 
REMARK    8  A    between atoms: N_14  and  C_16 
REMARK    9  A    between atoms: N_14  and  C_18 
ROOT
HETATM    1  N   UNL     1      43.152 -12.590   4.822  1.00  0.00    -0.254 N 
HETATM    2  C   UNL     1      42.329 -13.770   5.108  1.00  0.00     0.256 C 
HETATM    3  C   UNL     1      42.730 -14.936   4.245  1.00  0.00     0.034 A 
HETATM    4  C   UNL     1      43.166 -14.633   2.953  1.00  0.00     0.048 A 
HETATM    5  N   UNL     1      43.251 -13.289   2.585  1.00  0.00    -0.308 N 
HETATM    6  C   UNL     1      43.269 -12.238   3.478  1.00  0.00     0.330 C 
HETATM    7  O   UNL     1      43.417 -11.102   3.031  1.00  0.00    -0.246 OA
HETATM    8  C   UNL     1      42.615 -16.276   4.631  1.00  0.00     0.015 A 
HETATM    9  C   UNL     1      42.933 -17.290   3.728  1.00  0.00     0.001 A 
HETATM   10  C   UNL     1      43.354 -16.974   2.436  1.00  0.00     0.002 A 
HETATM   11  C   UNL     1      43.465 -15.641   2.041  1.00  0.00     0.030 A 
HETATM   12  H   UNL     1      43.539 -13.044   1.644  1.00  0.00     0.170 HD
ENDROOT
BRANCH   2  13
HETATM   13  O   UNL     1      42.342 -14.151   6.481  1.00  0.00    -0.359 OA
HETATM   14  H   UNL     1      42.654 -13.365   6.968  1.00  0.00     0.213 HD
ENDBRANCH   2  13
BRANCH   2  15
HETATM   15  C   UNL     1      40.836 -13.273   4.858  1.00  0.00     0.279 C 
HETATM   16  N   UNL     1      40.620 -12.090   4.179  1.00  0.00    -0.355 N 
HETATM   17  H   UNL     1      41.405 -11.730   3.642  1.00  0.00     0.162 HD
HETATM   18  O   UNL     1      39.875 -13.844   5.392  1.00  0.00    -0.268 OA
BRANCH  16  19
HETATM   19  C   UNL     1      39.311 -11.593   3.759  1.00  0.00     0.150 C 
BRANCH  19  20
HETATM   20  C   UNL     1      38.884 -11.760   2.283  1.00  0.00     0.254 C 
BRANCH  20  21
HETATM   21  N   UNL     1      40.011 -12.169   1.351  1.00  0.00    -0.070 N 
HETATM   22  H   UNL     1      40.799 -12.341   2.003  1.00  0.00     0.279 HD
BRANCH  21  23
HETATM   23  C   UNL     1      39.812 -13.461   0.593  1.00  0.00     0.230 C 
HETATM   24  C   UNL     1      39.897 -14.674   1.503  1.00  0.00     0.034 C 
ENDBRANCH  21  23
BRANCH  21  25
HETATM   25  C   UNL     1      40.479 -11.036   0.458  1.00  0.00     0.230 C 
HETATM   26  C   UNL     1      40.916 -11.553  -0.901  1.00  0.00     0.034 C 
ENDBRANCH  21  25
ENDBRANCH  20  21
ENDBRANCH  19  20
ENDBRANCH  16  19
ENDBRANCH   2  15
BRANCH   1  27
HETATM   27  C   UNL     1      43.750 -11.796   5.851  1.00  0.00     0.043 A 
HETATM   28  C   UNL     1      43.038 -10.800   6.527  1.00  0.00     0.030 A 
HETATM   29  C   UNL     1      43.655 -10.013   7.510  1.00  0.00     0.009 A 
HETATM   30  C   UNL     1      45.006 -10.188   7.822  1.00  0.00    -0.058 A 
HETATM   31  C   UNL     1      45.732 -11.158   7.127  1.00  0.00     0.009 A 
HETATM   32  C   UNL     1      45.111 -11.947   6.153  1.00  0.00     0.030 A 
BRANCH  30  33
HETATM   33  C   UNL     1      45.679  -9.331   8.864  1.00  0.00     0.034 C 
HETATM   34  C   UNL     1      45.312  -9.747  10.282  1.00  0.00     0.010 C 
ENDBRANCH  30  33
ENDBRANCH   1  27
TORSDOF 9
ENDMDL
MODEL 5
REMARK VINA RESULT:      -7.4      1.993      5.933
REMARK  9 active torsions:
REMARK  status: ('A' for Active; 'I' for Inactive)
REMARK    1  A    between atoms: C_2  and  C_3 
REMARK    2  A    between atoms: C_6  and  N_7 
REMARK    3  A    between atoms: C_8  and  O_9 
REMARK    4  A    between atoms: C_8  and  C_10 
REMARK       I    between atoms: C_10  and  N_11 
REMARK    5  A    between atoms: N_11  and  C_12 
REMARK    6  A    between atoms: C_12  and  C_13 
REMARK    7  A    between atoms: C_13  and  N_14 
REMARK    8  A    between atoms: N_14  and  C_16 
REMARK    9  A    between atoms: N_14  and  C_18 
ROOT
HETATM    1  N   UNL     1      42.030 -13.697   3.271  1.00  0.00    -0.254 N 
HETATM    2  C   UNL     1      40.679 -13.325   3.707  1.00  0.00     0.256 C 
HETATM    3  C   UNL     1      40.033 -12.378   2.732  1.00  0.00     0.034 A 
HETATM    4  C   UNL     1      40.880 -11.469   2.093  1.00  0.00     0.048 A 
HETATM    5  N   UNL     1      42.249 -11.547   2.358  1.00  0.00    -0.308 N 
HETATM    6  C   UNL     1      42.871 -12.640   2.923  1.00  0.00     0.330 C 
HETATM    7  O   UNL     1      44.094 -12.612   3.042  1.00  0.00    -0.246 OA
HETATM    8  C   UNL     1      38.655 -12.307   2.500  1.00  0.00     0.015 A 
HETATM    9  C   UNL     1      38.143 -11.336   1.641  1.00  0.00     0.001 A 
HETATM   10  C   UNL     1      38.999 -10.426   1.019  1.00  0.00     0.002 A 
HETATM   11  C   UNL     1      40.373 -10.485   1.250  1.00  0.00     0.030 A 
HETATM   12  H   UNL     1      42.882 -10.882   1.928  1.00  0.00     0.170 HD
ENDROOT
BRANCH   2  13
HETATM   13  O   UNL     1      39.829 -14.446   3.935  1.00  0.00    -0.359 OA
HETATM   14  H   UNL     1      39.589 -14.777   3.049  1.00  0.00     0.213 HD
ENDBRANCH   2  13
BRANCH   2  15
HETATM   15  C   UNL     1      40.895 -12.702   5.158  1.00  0.00     0.279 C 
HETATM   16  N   UNL     1      40.941 -11.330   5.306  1.00  0.00    -0.355 N 
HETATM   17  H   UNL     1      40.571 -10.782   4.533  1.00  0.00     0.162 HD
HETATM   18  O   UNL     1      41.176 -13.421   6.126  1.00  0.00    -0.268 OA
BRANCH  16  19
HETATM   19  C   UNL     1      40.989 -10.628   6.587  1.00  0.00     0.150 C 
BRANCH  19  20
HETATM   20  C   UNL     1      42.187  -9.698   6.888  1.00  0.00     0.254 C 
BRANCH  20  21
HETATM   21  N   UNL     1      43.379 -10.402   7.513  1.00  0.00    -0.070 N 
HETATM   22  H   UNL     1      42.942 -11.204   8.004  1.00  0.00     0.279 HD
BRANCH  21  23
HETATM   23  C   UNL     1      44.377 -11.002   6.549  1.00  0.00     0.230 C 
HETATM   24  C   UNL     1      44.451 -12.513   6.673  1.00  0.00     0.034 C 
ENDBRANCH  21  23
BRANCH  21  25
HETATM   25  C   UNL     1      44.042  -9.584   8.604  1.00  0.00     0.230 C 
HETATM   26  C   UNL     1      45.501  -9.318   8.281  1.00  0.00     0.034 C 
ENDBRANCH  21  25
ENDBRANCH  20  21
ENDBRANCH  19  20
ENDBRANCH  16  19
ENDBRANCH   2  15
BRANCH   1  27
HETATM   27  C   UNL     1      42.495 -15.049   3.262  1.00  0.00     0.043 A 
HETATM   28  C   UNL     1      43.081 -15.639   4.387  1.00  0.00     0.030 A 
HETATM   29  C   UNL     1      43.560 -16.956   4.344  1.00  0.00     0.009 A 
HETATM   30  C   UNL     1      43.484 -17.707   3.166  1.00  0.00    -0.058 A 
HETATM   31  C   UNL     1      42.930 -17.113   2.031  1.00  0.00     0.009 A 
HETATM   32  C   UNL     1      42.447 -15.801   2.080  1.00  0.00     0.030 A 
BRANCH  30  33
HETATM   33  C   UNL     1      44.014 -19.117   3.110  1.00  0.00     0.034 C 
HETATM   34  C   UNL     1      43.298 -19.964   2.067  1.00  0.00     0.010 C 
ENDBRANCH  30  33
ENDBRANCH   1  27
TORSDOF 9
ENDMDL
MODEL 6
REMARK VINA RESULT:      -7.3      2.148      2.840
REMARK  9 active torsions:
REMARK  status: ('A' for Active; 'I' for Inactive)
REMARK    1  A    between atoms: C_2  and  C_3 
REMARK    2  A    between atoms: C_6  and  N_7 
REMARK    3  A    between atoms: C_8  and  O_9 
REMARK    4  A    between atoms: C_8  and  C_10 
REMARK       I    between atoms: C_10  and  N_11 
REMARK    5  A    between atoms: N_11  and  C_12 
REMARK    6  A    between atoms: C_12  and  C_13 
REMARK    7  A    between atoms: C_13  and  N_14 
REMARK    8  A    between atoms: N_14  and  C_16 
REMARK    9  A    between atoms: N_14  and  C_18 
ROOT
HETATM    1  N   UNL     1      41.364 -14.052   3.486  1.00  0.00    -0.254 N 
HETATM    2  C   UNL     1      42.003 -12.760   3.758  1.00  0.00     0.256 C 
HETATM    3  C   UNL     1      41.302 -12.029   4.871  1.00  0.00     0.034 A 
HETATM    4  C   UNL     1      39.919 -12.202   4.956  1.00  0.00     0.048 A 
HETATM    5  N   UNL     1      39.308 -13.073   4.052  1.00  0.00    -0.308 N 
HETATM    6  C   UNL     1      39.980 -14.024   3.313  1.00  0.00     0.330 C 
HETATM    7  O   UNL     1      39.319 -14.778   2.602  1.00  0.00    -0.246 OA
HETATM    8  C   UNL     1      41.935 -11.144   5.752  1.00  0.00     0.015 A 
HETATM    9  C   UNL     1      41.185 -10.448   6.698  1.00  0.00     0.001 A 
HETATM   10  C   UNL     1      39.802 -10.620   6.763  1.00  0.00     0.002 A 
HETATM   11  C   UNL     1      39.161 -11.495   5.885  1.00  0.00     0.030 A 
HETATM   12  H   UNL     1      38.302 -13.196   4.075  1.00  0.00     0.170 HD
ENDROOT
BRANCH   2  13
HETATM   13  O   UNL     1      43.395 -12.865   4.043  1.00  0.00    -0.359 OA
HETATM   14  H   UNL     1      43.513 -12.468   4.926  1.00  0.00     0.213 HD
ENDBRANCH   2  13
BRANCH   2  15
HETATM   15  C   UNL     1      41.951 -11.998   2.359  1.00  0.00     0.279 C 
HETATM   16  N   UNL     1      41.324 -12.597   1.284  1.00  0.00    -0.355 N 
HETATM   17  H   UNL     1      40.700 -13.369   1.501  1.00  0.00     0.162 HD
HETATM   18  O   UNL     1      42.590 -10.953   2.177  1.00  0.00    -0.268 OA
BRANCH  16  19
HETATM   19  C   UNL     1      41.080 -11.954  -0.006  1.00  0.00     0.150 C 
BRANCH  19  20
HETATM   20  C   UNL     1      39.628 -11.844  -0.526  1.00  0.00     0.254 C 
BRANCH  20  21
HETATM   21  N   UNL     1      39.365 -12.620  -1.805  1.00  0.00    -0.070 N 
HETATM   22  H   UNL     1      38.376 -12.390  -2.015  1.00  0.00     0.279 HD
BRANCH  21  23
HETATM   23  C   UNL     1      40.156 -12.190  -3.019  1.00  0.00     0.230 C 
HETATM   24  C   UNL     1      39.991 -10.708  -3.310  1.00  0.00     0.034 C 
ENDBRANCH  21  23
BRANCH  21  25
HETATM   25  C   UNL     1      39.385 -14.122  -1.598  1.00  0.00     0.230 C 
HETATM   26  C   UNL     1      38.794 -14.849  -2.793  1.00  0.00     0.034 C 
ENDBRANCH  21  25
ENDBRANCH  20  21
ENDBRANCH  19  20
ENDBRANCH  16  19
ENDBRANCH   2  15
BRANCH   1  27
HETATM   27  C   UNL     1      42.105 -15.265   3.337  1.00  0.00     0.043 A 
HETATM   28  C   UNL     1      42.546 -15.717   2.088  1.00  0.00     0.030 A 
HETATM   29  C   UNL     1      43.244 -16.926   1.962  1.00  0.00     0.009 A 
HETATM   30  C   UNL     1      43.496 -17.725   3.082  1.00  0.00    -0.058 A 
HETATM   31  C   UNL     1      43.030 -17.298   4.326  1.00  0.00     0.009 A 
HETATM   32  C   UNL     1      42.342 -16.086   4.449  1.00  0.00     0.030 A 
BRANCH  30  33
HETATM   33  C   UNL     1      44.229 -19.037   2.949  1.00  0.00     0.034 C 
HETATM   34  C   UNL     1      43.483 -20.031   2.071  1.00  0.00     0.010 C 
ENDBRANCH  30  33
ENDBRANCH   1  27
TORSDOF 9
ENDMDL
MODEL 7
REMARK VINA RESULT:      -7.3      1.535      2.515
REMARK  9 active torsions:
REMARK  status: ('A' for Active; 'I' for Inactive)
REMARK    1  A    between atoms: C_2  and  C_3 
REMARK    2  A    between atoms: C_6  and  N_7 
REMARK    3  A    between atoms: C_8  and  O_9 
REMARK    4  A    between atoms: C_8  and  C_10 
REMARK       I    between atoms: C_10  and  N_11 
REMARK    5  A    between atoms: N_11  and  C_12 
REMARK    6  A    between atoms: C_12  and  C_13 
REMARK    7  A    between atoms: C_13  and  N_14 
REMARK    8  A    between atoms: N_14  and  C_16 
REMARK    9  A    between atoms: N_14  and  C_18 
ROOT
HETATM    1  N   UNL     1      42.605 -14.848   5.119  1.00  0.00    -0.254 N 
HETATM    2  C   UNL     1      42.846 -13.513   4.561  1.00  0.00     0.256 C 
HETATM    3  C   UNL     1      43.669 -12.671   5.498  1.00  0.00     0.034 A 
HETATM    4  C   UNL     1      43.462 -12.875   6.864  1.00  0.00     0.048 A 
HETATM    5  N   UNL     1      42.562 -13.870   7.251  1.00  0.00    -0.308 N 
HETATM    6  C   UNL     1      42.122 -14.885   6.427  1.00  0.00     0.330 C 
HETATM    7  O   UNL     1      41.383 -15.741   6.908  1.00  0.00    -0.246 OA
HETATM    8  C   UNL     1      44.549 -11.664   5.084  1.00  0.00     0.015 A 
HETATM    9  C   UNL     1      45.205 -10.879   6.032  1.00  0.00     0.001 A 
HETATM   10  C   UNL     1      44.977 -11.085   7.392  1.00  0.00     0.002 A 
HETATM   11  C   UNL     1      44.097 -12.081   7.815  1.00  0.00     0.030 A 
HETATM   12  H   UNL     1      42.374 -14.021   8.236  1.00  0.00     0.170 HD
ENDROOT
BRANCH   2  13
HETATM   13  O   UNL     1      43.448 -13.538   3.270  1.00  0.00    -0.359 OA
HETATM   14  H   UNL     1      43.325 -12.642   2.906  1.00  0.00     0.213 HD
ENDBRANCH   2  13
BRANCH   2  15
HETATM   15  C   UNL     1      41.386 -12.932   4.296  1.00  0.00     0.279 C 
HETATM   16  N   UNL     1      40.778 -13.158   3.076  1.00  0.00    -0.355 N 
HETATM   17  H   UNL     1      41.175 -13.902   2.507  1.00  0.00     0.162 HD
HETATM   18  O   UNL     1      40.851 -12.157   5.099  1.00  0.00    -0.268 OA
BRANCH  16  19
HETATM   19  C   UNL     1      39.396 -12.810   2.752  1.00  0.00     0.150 C 
BRANCH  19  20
HETATM   20  C   UNL     1      39.092 -11.412   2.167  1.00  0.00     0.254 C 
BRANCH  20  21
HETATM   21  N   UNL     1      39.542 -10.257   3.045  1.00  0.00    -0.070 N 
HETATM   22  H   UNL     1      39.946 -10.739   3.870  1.00  0.00     0.279 HD
BRANCH  21  23
HETATM   23  C   UNL     1      40.650  -9.391   2.490  1.00  0.00     0.230 C 
HETATM   24  C   UNL     1      40.174  -8.531   1.333  1.00  0.00     0.034 C 
ENDBRANCH  21  23
BRANCH  21  25
HETATM   25  C   UNL     1      38.384  -9.444   3.590  1.00  0.00     0.230 C 
HETATM   26  C   UNL     1      38.332  -9.511   5.106  1.00  0.00     0.034 C 
ENDBRANCH  21  25
ENDBRANCH  20  21
ENDBRANCH  19  20
ENDBRANCH  16  19
ENDBRANCH   2  15
BRANCH   1  27
HETATM   27  C   UNL     1      42.784 -16.046   4.361  1.00  0.00     0.043 A 
HETATM   28  C   UNL     1      43.824 -16.943   4.624  1.00  0.00     0.030 A 
HETATM   29  C   UNL     1      43.998 -18.096   3.845  1.00  0.00     0.009 A 
HETATM   30  C   UNL     1      43.148 -18.367   2.768  1.00  0.00    -0.058 A 
HETATM   31  C   UNL     1      42.128 -17.459   2.479  1.00  0.00     0.009 A 
HETATM   32  C   UNL     1      41.953 -16.314   3.263  1.00  0.00     0.030 A 
BRANCH  30  33
HETATM   33  C   UNL     1      43.343 -19.596   1.916  1.00  0.00     0.034 C 
HETATM   34  C   UNL     1      43.820 -20.793   2.727  1.00  0.00     0.010 C 
ENDBRANCH  30  33
ENDBRANCH   1  27
TORSDOF 9
ENDMDL
MODEL 8
REMARK VINA RESULT:      -7.0      3.026      7.191
REMARK  9 active torsions:
REMARK  status: ('A' for Active; 'I' for Inactive)
REMARK    1  A    between atoms: C_2  and  C_3 
REMARK    2  A    between atoms: C_6  and  N_7 
REMARK    3  A    between atoms: C_8  and  O_9 
REMARK    4  A    between atoms: C_8  and  C_10 
REMARK       I    between atoms: C_10  and  N_11 
REMARK    5  A    between atoms: N_11  and  C_12 
REMARK    6  A    between atoms: C_12  and  C_13 
REMARK    7  A    between atoms: C_13  and  N_14 
REMARK    8  A    between atoms: N_14  and  C_16 
REMARK    9  A    between atoms: N_14  and  C_18 
ROOT
HETATM    1  N   UNL     1      42.483 -12.150   4.942  1.00  0.00    -0.254 N 
HETATM    2  C   UNL     1      41.390 -11.485   5.659  1.00  0.00     0.256 C 
HETATM    3  C   UNL     1      40.502 -10.722   4.713  1.00  0.00     0.034 A 
HETATM    4  C   UNL     1      41.127 -10.136   3.609  1.00  0.00     0.048 A 
HETATM    5  N   UNL     1      42.496 -10.349   3.438  1.00  0.00    -0.308 N 
HETATM    6  C   UNL     1      43.212 -11.350   4.062  1.00  0.00     0.330 C 
HETATM    7  O   UNL     1      44.400 -11.476   3.775  1.00  0.00    -0.246 OA
HETATM    8  C   UNL     1      39.135 -10.505   4.919  1.00  0.00     0.015 A 
HETATM    9  C   UNL     1      38.414  -9.711   4.028  1.00  0.00     0.001 A 
HETATM   10  C   UNL     1      39.053  -9.122   2.937  1.00  0.00     0.002 A 
HETATM   11  C   UNL     1      40.417  -9.327   2.727  1.00  0.00     0.030 A 
HETATM   12  H   UNL     1      42.978  -9.914   2.660  1.00  0.00     0.170 HD
ENDROOT
BRANCH   2  13
HETATM   13  O   UNL     1      40.608 -12.375   6.452  1.00  0.00    -0.359 OA
HETATM   14  H   UNL     1      40.862 -12.193   7.376  1.00  0.00     0.213 HD
ENDBRANCH   2  13
BRANCH   2  15
HETATM   15  C   UNL     1      42.129 -10.562   6.728  1.00  0.00     0.279 C 
HETATM   16  N   UNL     1      41.379  -9.869   7.658  1.00  0.00    -0.355 N 
HETATM   17  H   UNL     1      40.421 -10.184   7.788  1.00  0.00     0.162 HD
HETATM   18  O   UNL     1      43.343 -10.335   6.644  1.00  0.00    -0.268 OA
BRANCH  16  19
HETATM   19  C   UNL     1      41.931  -9.107   8.776  1.00  0.00     0.150 C 
BRANCH  19  20
HETATM   20  C   UNL     1      41.583  -9.534  10.220  1.00  0.00     0.254 C 
BRANCH  20  21
HETATM   21  N   UNL     1      42.681 -10.316  10.920  1.00  0.00    -0.070 N 
HETATM   22  H   UNL     1      42.232 -11.232  11.104  1.00  0.00     0.279 HD
BRANCH  21  23
HETATM   23  C   UNL     1      43.912 -10.617  10.095  1.00  0.00     0.230 C 
HETATM   24  C   UNL     1      45.113  -9.803  10.546  1.00  0.00     0.034 C 
ENDBRANCH  21  23
BRANCH  21  25
HETATM   25  C   UNL     1      43.020  -9.760  12.290  1.00  0.00     0.230 C 
HETATM   26  C   UNL     1      42.300  -8.447  12.543  1.00  0.00     0.034 C 
ENDBRANCH  21  25
ENDBRANCH  20  21
ENDBRANCH  19  20
ENDBRANCH  16  19
ENDBRANCH   2  15
BRANCH   1  27
HETATM   27  C   UNL     1      42.839 -13.516   5.169  1.00  0.00     0.043 A 
HETATM   28  C   UNL     1      43.585 -13.913   6.284  1.00  0.00     0.030 A 
HETATM   29  C   UNL     1      43.950 -15.254   6.468  1.00  0.00     0.009 A 
HETATM   30  C   UNL     1      43.596 -16.227   5.528  1.00  0.00    -0.058 A 
HETATM   31  C   UNL     1      42.880 -15.833   4.397  1.00  0.00     0.009 A 
HETATM   32  C   UNL     1      42.511 -14.495   4.220  1.00  0.00     0.030 A 
BRANCH  30  33
HETATM   33  C   UNL     1      44.002 -17.668   5.713  1.00  0.00     0.034 C 
HETATM   34  C   UNL     1      44.405 -18.328   4.401  1.00  0.00     0.010 C 
ENDBRANCH  30  33
ENDBRANCH   1  27
TORSDOF 9
ENDMDL
MODEL 9
REMARK VINA RESULT:      -7.0      2.323      5.866
REMARK  9 active torsions:
REMARK  status: ('A' for Active; 'I' for Inactive)
REMARK    1  A    between atoms: C_2  and  C_3 
REMARK    2  A    between atoms: C_6  and  N_7 
REMARK    3  A    between atoms: C_8  and  O_9 
REMARK    4  A    between atoms: C_8  and  C_10 
REMARK       I    between atoms: C_10  and  N_11 
REMARK    5  A    between atoms: N_11  and  C_12 
REMARK    6  A    between atoms: C_12  and  C_13 
REMARK    7  A    between atoms: C_13  and  N_14 
REMARK    8  A    between atoms: N_14  and  C_16 
REMARK    9  A    between atoms: N_14  and  C_18 
ROOT
HETATM    1  N   UNL     1      41.926 -13.483   3.185  1.00  0.00    -0.254 N 
HETATM    2  C   UNL     1      40.503 -13.247   3.453  1.00  0.00     0.256 C 
HETATM    3  C   UNL     1      39.925 -12.245   2.491  1.00  0.00     0.034 A 
HETATM    4  C   UNL     1      40.778 -11.221   2.073  1.00  0.00     0.048 A 
HETATM    5  N   UNL     1      42.099 -11.238   2.525  1.00  0.00    -0.308 N 
HETATM    6  C   UNL     1      42.722 -12.343   3.067  1.00  0.00     0.330 C 
HETATM    7  O   UNL     1      43.910 -12.249   3.365  1.00  0.00    -0.246 OA
HETATM    8  C   UNL     1      38.591 -12.238   2.069  1.00  0.00     0.015 A 
HETATM    9  C   UNL     1      38.128 -11.216   1.241  1.00  0.00     0.001 A 
HETATM   10  C   UNL     1      38.987 -10.192   0.842  1.00  0.00     0.002 A 
HETATM   11  C   UNL     1      40.317 -10.187   1.263  1.00  0.00     0.030 A 
HETATM   12  H   UNL     1      42.731 -10.492   2.257  1.00  0.00     0.170 HD
ENDROOT
BRANCH   2  13
HETATM   13  O   UNL     1      39.721 -14.438   3.446  1.00  0.00    -0.359 OA
HETATM   14  H   UNL     1      39.417 -14.547   2.525  1.00  0.00     0.213 HD
ENDBRANCH   2  13
BRANCH   2  15
HETATM   15  C   UNL     1      40.467 -12.770   4.973  1.00  0.00     0.279 C 
HETATM   16  N   UNL     1      39.826 -11.590   5.298  1.00  0.00    -0.355 N 
HETATM   17  H   UNL     1      39.184 -11.222   4.601  1.00  0.00     0.162 HD
HETATM   18  O   UNL     1      41.131 -13.352   5.841  1.00  0.00    -0.268 OA
BRANCH  16  19
HETATM   19  C   UNL     1      39.595 -11.111   6.659  1.00  0.00     0.150 C 
BRANCH  19  20
HETATM   20  C   UNL     1      40.229  -9.772   7.101  1.00  0.00     0.254 C 
BRANCH  20  21
HETATM   21  N   UNL     1      41.506  -9.926   7.909  1.00  0.00    -0.070 N 
HETATM   22  H   UNL     1      41.500 -10.931   8.162  1.00  0.00     0.279 HD
BRANCH  21  23
HETATM   23  C   UNL     1      42.798  -9.696   7.160  1.00  0.00     0.230 C 
HETATM   24  C   UNL     1      43.482 -11.000   6.789  1.00  0.00     0.034 C 
ENDBRANCH  21  23
BRANCH  21  25
HETATM   25  C   UNL     1      41.460  -9.186   9.232  1.00  0.00     0.230 C 
HETATM   26  C   UNL     1      40.066  -8.657   9.516  1.00  0.00     0.034 C 
ENDBRANCH  21  25
ENDBRANCH  20  21
ENDBRANCH  19  20
ENDBRANCH  16  19
ENDBRANCH   2  15
BRANCH   1  27
HETATM   27  C   UNL     1      42.493 -14.793   3.114  1.00  0.00     0.043 A 
HETATM   28  C   UNL     1      42.582 -15.499   1.909  1.00  0.00     0.030 A 
HETATM   29  C   UNL     1      43.113 -16.796   1.869  1.00  0.00     0.009 A 
HETATM   30  C   UNL     1      43.545 -17.428   3.040  1.00  0.00    -0.058 A 
HETATM   31  C   UNL     1      43.427 -16.742   4.251  1.00  0.00     0.009 A 
HETATM   32  C   UNL     1      42.905 -15.445   4.285  1.00  0.00     0.030 A 
BRANCH  30  33
HETATM   33  C   UNL     1      44.098 -18.830   3.005  1.00  0.00     0.034 C 
HETATM   34  C   UNL     1      43.290 -19.749   2.099  1.00  0.00     0.010 C 
ENDBRANCH  30  33
ENDBRANCH   1  27
TORSDOF 9
ENDMDL
MODEL 10
REMARK VINA RESULT:      -6.9      2.777      6.516
REMARK  9 active torsions:
REMARK  status: ('A' for Active; 'I' for Inactive)
REMARK    1  A    between atoms: C_2  and  C_3 
REMARK    2  A    between atoms: C_6  and  N_7 
REMARK    3  A    between atoms: C_8  and  O_9 
REMARK    4  A    between atoms: C_8  and  C_10 
REMARK       I    between atoms: C_10  and  N_11 
REMARK    5  A    between atoms: N_11  and  C_12 
REMARK    6  A    between atoms: C_12  and  C_13 
REMARK    7  A    between atoms: C_13  and  N_14 
REMARK    8  A    between atoms: N_14  and  C_16 
REMARK    9  A    between atoms: N_14  and  C_18 
ROOT
HETATM    1  N   UNL     1      42.451 -13.070   4.516  1.00  0.00    -0.254 N 
HETATM    2  C   UNL     1      41.875 -12.756   5.828  1.00  0.00     0.256 C 
HETATM    3  C   UNL     1      40.931 -11.587   5.744  1.00  0.00     0.034 A 
HETATM    4  C   UNL     1      41.256 -10.590   4.821  1.00  0.00     0.048 A 
HETATM    5  N   UNL     1      42.382 -10.779   4.018  1.00  0.00    -0.308 N 
HETATM    6  C   UNL     1      43.001 -11.996   3.818  1.00  0.00     0.330 C 
HETATM    7  O   UNL     1      43.945 -12.042   3.032  1.00  0.00    -0.246 OA
HETATM    8  C   UNL     1      39.820 -11.412   6.576  1.00  0.00     0.015 A 
HETATM    9  C   UNL     1      39.052 -10.252   6.478  1.00  0.00     0.001 A 
HETATM   10  C   UNL     1      39.396  -9.258   5.561  1.00  0.00     0.002 A 
HETATM   11  C   UNL     1      40.506  -9.421   4.732  1.00  0.00     0.030 A 
HETATM   12  H   UNL     1      42.655 -10.058   3.358  1.00  0.00     0.170 HD
ENDROOT
BRANCH   2  13
HETATM   13  O   UNL     1      41.225 -13.866   6.442  1.00  0.00    -0.359 OA
HETATM   14  H   UNL     1      40.508 -13.483   6.982  1.00  0.00     0.213 HD
ENDBRANCH   2  13
BRANCH   2  15
HETATM   15  C   UNL     1      43.143 -12.488   6.756  1.00  0.00     0.279 C 
HETATM   16  N   UNL     1      43.227 -11.306   7.465  1.00  0.00    -0.355 N 
HETATM   17  H   UNL     1      42.361 -10.783   7.570  1.00  0.00     0.162 HD
HETATM   18  O   UNL     1      44.122 -13.247   6.735  1.00  0.00    -0.268 OA
BRANCH  16  19
HETATM   19  C   UNL     1      44.255 -10.995   8.456  1.00  0.00     0.150 C 
BRANCH  19  20
HETATM   20  C   UNL     1      43.922 -10.010   9.600  1.00  0.00     0.254 C 
BRANCH  20  21
HETATM   21  N   UNL     1      42.458  -9.609   9.669  1.00  0.00    -0.070 N 
HETATM   22  H   UNL     1      42.000 -10.298   9.044  1.00  0.00     0.279 HD
BRANCH  21  23
HETATM   23  C   UNL     1      41.789  -9.764  11.016  1.00  0.00     0.230 C 
HETATM   24  C   UNL     1      42.787  -9.699  12.159  1.00  0.00     0.034 C 
ENDBRANCH  21  23
BRANCH  21  25
HETATM   25  C   UNL     1      42.187  -8.258   9.036  1.00  0.00     0.230 C 
HETATM   26  C   UNL     1      43.440  -7.403   9.009  1.00  0.00     0.034 C 
ENDBRANCH  21  25
ENDBRANCH  20  21
ENDBRANCH  19  20
ENDBRANCH  16  19
ENDBRANCH   2  15
BRANCH   1  27
HETATM   27  C   UNL     1      42.516 -14.401   3.999  1.00  0.00     0.043 A 
HETATM   28  C   UNL     1      43.392 -15.359   4.521  1.00  0.00     0.030 A 
HETATM   29  C   UNL     1      43.460 -16.649   3.976  1.00  0.00     0.009 A 
HETATM   30  C   UNL     1      42.669 -17.004   2.878  1.00  0.00    -0.058 A 
HETATM   31  C   UNL     1      41.817 -16.043   2.331  1.00  0.00     0.009 A 
HETATM   32  C   UNL     1      41.746 -14.760   2.883  1.00  0.00     0.030 A 
BRANCH  30  33
HETATM   33  C   UNL     1      42.754 -18.384   2.276  1.00  0.00     0.034 C 
HETATM   34  C   UNL     1      43.882 -19.211   2.878  1.00  0.00     0.010 C 
ENDBRANCH  30  33
ENDBRANCH   1  27
TORSDOF 9
ENDMDL
