MODEL 1
REMARK VINA RESULT:      -9.5      0.000      0.000
REMARK  7 active torsions:
REMARK  status: ('A' for Active; 'I' for Inactive)
REMARK    1  A    between atoms: C_4  and  C_5 
REMARK    2  A    between atoms: C_5  and  N_6 
REMARK    3  A    between atoms: N_10  and  N_11 
REMARK       I    between atoms: N_11  and  C_12 
REMARK    4  A    between atoms: C_12  and  C_13 
REMARK    5  A    between atoms: C_13  and  N_14 
REMARK       I    between atoms: N_14  and  C_15 
REMARK    6  A    between atoms: C_15  and  C_16 
REMARK    7  A    between atoms: C_17  and  O_18 
ROOT
HETATM    1  N   UNL     1      41.531 -14.554   4.230  1.00  0.00    -0.307 N 
HETATM    2  C   UNL     1      42.415 -13.768   4.947  1.00  0.00     0.280 A 
HETATM    3  O   UNL     1      43.065 -14.022   5.939  1.00  0.00    -0.265 OA
HETATM    4  C   UNL     1      42.444 -12.423   4.230  1.00  0.00     0.157 A 
HETATM    5  N   UNL     1      43.091 -11.345   4.539  1.00  0.00    -0.166 NA
HETATM    6  C   UNL     1      41.553 -12.556   3.085  1.00  0.00     0.027 A 
HETATM    7  C   UNL     1      41.022 -13.844   3.128  1.00  0.00     0.050 A 
HETATM    8  C   UNL     1      41.217 -11.632   2.114  1.00  0.00     0.016 A 
HETATM    9  C   UNL     1      40.305 -12.038   1.141  1.00  0.00     0.001 A 
HETATM   10  C   UNL     1      39.760 -13.336   1.167  1.00  0.00     0.002 A 
HETATM   11  C   UNL     1      40.116 -14.253   2.167  1.00  0.00     0.031 A 
ENDROOT
BRANCH   5  12
HETATM   12  N   UNL     1      43.852 -11.355   5.673  1.00  0.00    -0.245 N 
HETATM   13  C   UNL     1      45.232 -11.261   5.554  1.00  0.00     0.255 C 
HETATM   14  O   UNL     1      45.853 -11.246   4.490  1.00  0.00    -0.270 OA
HETATM   15  H   UNL     1      43.404 -11.376   6.597  1.00  0.00     0.192 HD
BRANCH  13  16
HETATM   16  C   UNL     1      45.961 -11.176   6.890  1.00  0.00     0.227 C 
BRANCH  16  17
HETATM   17  N   UNL     1      45.125 -10.562   7.905  1.00  0.00    -0.348 N 
HETATM   18  C   UNL     1      45.340  -9.272   8.327  1.00  0.00     0.254 C 
HETATM   19  O   UNL     1      46.209  -8.553   7.851  1.00  0.00    -0.268 OA
HETATM   20  H   UNL     1      44.449 -11.149   8.387  1.00  0.00     0.163 HD
BRANCH  18  21
HETATM   21  C   UNL     1      44.466  -8.794   9.425  1.00  0.00     0.065 A 
HETATM   22  C   UNL     1      44.337  -9.471  10.644  1.00  0.00     0.081 A 
HETATM   23  C   UNL     1      43.562  -8.931  11.669  1.00  0.00     0.037 A 
HETATM   24  C   UNL     1      42.888  -7.725  11.471  1.00  0.00     0.003 A 
HETATM   25  C   UNL     1      42.983  -7.061  10.248  1.00  0.00     0.001 A 
HETATM   26  C   UNL     1      43.768  -7.595   9.224  1.00  0.00     0.020 A 
BRANCH  22  27
HETATM   27  O   UNL     1      44.925 -10.679  10.901  1.00  0.00    -0.360 OA
HETATM   28  H   UNL     1      44.327 -11.206  11.464  1.00  0.00     0.217 HD
ENDBRANCH  22  27
ENDBRANCH  18  21
ENDBRANCH  16  17
ENDBRANCH  13  16
ENDBRANCH   5  12
BRANCH   1  29
HETATM   29  C   UNL     1      41.227 -15.927   4.557  1.00  0.00     0.171 C 
BRANCH  29  30
HETATM   30  C   UNL     1      42.251 -16.900   4.022  1.00  0.00    -0.040 A 
HETATM   31  C   UNL     1      42.212 -17.305   2.679  1.00  0.00     0.009 A 
HETATM   32  C   UNL     1      43.155 -18.204   2.180  1.00  0.00     0.001 A 
HETATM   33  C   UNL     1      44.149 -18.710   3.017  1.00  0.00     0.000 A 
HETATM   34  C   UNL     1      44.202 -18.313   4.351  1.00  0.00     0.001 A 
HETATM   35  C   UNL     1      43.261 -17.410   4.851  1.00  0.00     0.009 A 
ENDBRANCH  29  30
ENDBRANCH   1  29
TORSDOF 7
ENDMDL
MODEL 2
REMARK VINA RESULT:      -9.2      1.701      2.652
REMARK  7 active torsions:
REMARK  status: ('A' for Active; 'I' for Inactive)
REMARK    1  A    between atoms: C_4  and  C_5 
REMARK    2  A    between atoms: C_5  and  N_6 
REMARK    3  A    between atoms: N_10  and  N_11 
REMARK       I    between atoms: N_11  and  C_12 
REMARK    4  A    between atoms: C_12  and  C_13 
REMARK    5  A    between atoms: C_13  and  N_14 
REMARK       I    between atoms: N_14  and  C_15 
REMARK    6  A    between atoms: C_15  and  C_16 
REMARK    7  A    between atoms: C_17  and  O_18 
ROOT
HETATM    1  N   UNL     1      42.281 -14.136   5.066  1.00  0.00    -0.307 N 
HETATM    2  C   UNL     1      43.095 -13.462   5.958  1.00  0.00     0.280 A 
HETATM    3  O   UNL     1      43.522 -13.801   7.042  1.00  0.00    -0.265 OA
HETATM    4  C   UNL     1      43.398 -12.119   5.305  1.00  0.00     0.157 A 
HETATM    5  N   UNL     1      44.088 -11.123   5.762  1.00  0.00    -0.166 NA
HETATM    6  C   UNL     1      42.724 -12.136   4.014  1.00  0.00     0.027 A 
HETATM    7  C   UNL     1      42.061 -13.358   3.915  1.00  0.00     0.050 A 
HETATM    8  C   UNL     1      42.672 -11.167   3.030  1.00  0.00     0.016 A 
HETATM    9  C   UNL     1      41.916 -11.456   1.895  1.00  0.00     0.001 A 
HETATM   10  C   UNL     1      41.241 -12.686   1.776  1.00  0.00     0.002 A 
HETATM   11  C   UNL     1      41.309 -13.651   2.792  1.00  0.00     0.031 A 
ENDROOT
BRANCH   5  12
HETATM   12  N   UNL     1      44.622 -11.233   7.015  1.00  0.00    -0.245 N 
HETATM   13  C   UNL     1      44.314 -10.265   7.961  1.00  0.00     0.255 C 
HETATM   14  O   UNL     1      43.649  -9.251   7.747  1.00  0.00    -0.270 OA
HETATM   15  H   UNL     1      45.196 -12.048   7.264  1.00  0.00     0.192 HD
BRANCH  13  16
HETATM   16  C   UNL     1      44.883 -10.555   9.345  1.00  0.00     0.227 C 
BRANCH  16  17
HETATM   17  N   UNL     1      44.224  -9.755  10.361  1.00  0.00    -0.348 N 
HETATM   18  C   UNL     1      43.686 -10.329  11.488  1.00  0.00     0.254 C 
HETATM   19  O   UNL     1      43.765 -11.527  11.726  1.00  0.00    -0.268 OA
HETATM   20  H   UNL     1      44.061  -8.771  10.165  1.00  0.00     0.163 HD
BRANCH  18  21
HETATM   21  C   UNL     1      42.972  -9.411  12.407  1.00  0.00     0.065 A 
HETATM   22  C   UNL     1      41.758  -9.743  13.021  1.00  0.00     0.081 A 
HETATM   23  C   UNL     1      41.173  -8.871  13.938  1.00  0.00     0.037 A 
HETATM   24  C   UNL     1      41.783  -7.649  14.225  1.00  0.00     0.003 A 
HETATM   25  C   UNL     1      42.976  -7.296  13.592  1.00  0.00     0.001 A 
HETATM   26  C   UNL     1      43.569  -8.174  12.682  1.00  0.00     0.020 A 
BRANCH  22  27
HETATM   27  O   UNL     1      41.071 -10.897  12.759  1.00  0.00    -0.360 OA
HETATM   28  H   UNL     1      41.181 -11.504  13.516  1.00  0.00     0.217 HD
ENDBRANCH  22  27
ENDBRANCH  18  21
ENDBRANCH  16  17
ENDBRANCH  13  16
ENDBRANCH   5  12
BRANCH   1  29
HETATM   29  C   UNL     1      41.777 -15.471   5.285  1.00  0.00     0.171 C 
BRANCH  29  30
HETATM   30  C   UNL     1      42.593 -16.529   4.578  1.00  0.00    -0.040 A 
HETATM   31  C   UNL     1      43.677 -17.140   5.226  1.00  0.00     0.009 A 
HETATM   32  C   UNL     1      44.434 -18.117   4.577  1.00  0.00     0.001 A 
HETATM   33  C   UNL     1      44.117 -18.494   3.273  1.00  0.00     0.000 A 
HETATM   34  C   UNL     1      43.040 -17.899   2.620  1.00  0.00     0.001 A 
HETATM   35  C   UNL     1      42.280 -16.924   3.270  1.00  0.00     0.009 A 
ENDBRANCH  29  30
ENDBRANCH   1  29
TORSDOF 7
ENDMDL
MODEL 3
REMARK VINA RESULT:      -9.1      2.083      4.102
REMARK  7 active torsions:
REMARK  status: ('A' for Active; 'I' for Inactive)
REMARK    1  A    between atoms: C_4  and  C_5 
REMARK    2  A    between atoms: C_5  and  N_6 
REMARK    3  A    between atoms: N_10  and  N_11 
REMARK       I    between atoms: N_11  and  C_12 
REMARK    4  A    between atoms: C_12  and  C_13 
REMARK    5  A    between atoms: C_13  and  N_14 
REMARK       I    between atoms: N_14  and  C_15 
REMARK    6  A    between atoms: C_15  and  C_16 
REMARK    7  A    between atoms: C_17  and  O_18 
ROOT
HETATM    1  N   UNL     1      41.402 -14.221   5.168  1.00  0.00    -0.307 N 
HETATM    2  C   UNL     1      41.842 -13.189   5.977  1.00  0.00     0.280 A 
HETATM    3  O   UNL     1      41.340 -12.111   6.218  1.00  0.00    -0.265 OA
HETATM    4  C   UNL     1      43.165 -13.663   6.567  1.00  0.00     0.157 A 
HETATM    5  N   UNL     1      43.981 -13.039   7.354  1.00  0.00    -0.166 NA
HETATM    6  C   UNL     1      43.380 -15.008   6.048  1.00  0.00     0.027 A 
HETATM    7  C   UNL     1      42.305 -15.299   5.210  1.00  0.00     0.050 A 
HETATM    8  C   UNL     1      44.427 -15.883   6.266  1.00  0.00     0.016 A 
HETATM    9  C   UNL     1      44.375 -17.110   5.606  1.00  0.00     0.001 A 
HETATM   10  C   UNL     1      43.296 -17.422   4.756  1.00  0.00     0.002 A 
HETATM   11  C   UNL     1      42.248 -16.513   4.551  1.00  0.00     0.031 A 
ENDROOT
BRANCH   5  12
HETATM   12  N   UNL     1      43.670 -11.760   7.719  1.00  0.00    -0.245 N 
HETATM   13  C   UNL     1      44.701 -10.873   7.997  1.00  0.00     0.255 C 
HETATM   14  O   UNL     1      45.897 -11.162   8.019  1.00  0.00    -0.270 OA
HETATM   15  H   UNL     1      42.690 -11.449   7.733  1.00  0.00     0.192 HD
BRANCH  13  16
HETATM   16  C   UNL     1      44.230  -9.453   8.289  1.00  0.00     0.227 C 
BRANCH  16  17
HETATM   17  N   UNL     1      43.868  -9.297   9.686  1.00  0.00    -0.348 N 
HETATM   18  C   UNL     1      42.556  -9.200  10.081  1.00  0.00     0.254 C 
HETATM   19  O   UNL     1      41.619  -9.283   9.297  1.00  0.00    -0.268 OA
HETATM   20  H   UNL     1      44.615  -9.138  10.358  1.00  0.00     0.163 HD
BRANCH  18  21
HETATM   21  C   UNL     1      42.328  -8.964  11.526  1.00  0.00     0.065 A 
HETATM   22  C   UNL     1      41.305  -9.592  12.247  1.00  0.00     0.081 A 
HETATM   23  C   UNL     1      41.189  -9.392  13.622  1.00  0.00     0.037 A 
HETATM   24  C   UNL     1      42.076  -8.538  14.279  1.00  0.00     0.003 A 
HETATM   25  C   UNL     1      43.077  -7.881  13.562  1.00  0.00     0.001 A 
HETATM   26  C   UNL     1      43.201  -8.090  12.187  1.00  0.00     0.020 A 
BRANCH  22  27
HETATM   27  O   UNL     1      40.367 -10.405  11.672  1.00  0.00    -0.360 OA
HETATM   28  H   UNL     1      39.594  -9.864  11.422  1.00  0.00     0.217 HD
ENDBRANCH  22  27
ENDBRANCH  18  21
ENDBRANCH  16  17
ENDBRANCH  13  16
ENDBRANCH   5  12
BRANCH   1  29
HETATM   29  C   UNL     1      40.161 -14.194   4.432  1.00  0.00     0.171 C 
BRANCH  29  30
HETATM   30  C   UNL     1      40.364 -14.249   2.936  1.00  0.00    -0.040 A 
HETATM   31  C   UNL     1      41.105 -13.252   2.283  1.00  0.00     0.009 A 
HETATM   32  C   UNL     1      41.294 -13.297   0.901  1.00  0.00     0.001 A 
HETATM   33  C   UNL     1      40.745 -14.338   0.155  1.00  0.00     0.000 A 
HETATM   34  C   UNL     1      40.011 -15.337   0.791  1.00  0.00     0.001 A 
HETATM   35  C   UNL     1      39.824 -15.295   2.174  1.00  0.00     0.009 A 
ENDBRANCH  29  30
ENDBRANCH   1  29
TORSDOF 7
ENDMDL
MODEL 4
REMARK VINA RESULT:      -9.1      4.032      8.450
REMARK  7 active torsions:
REMARK  status: ('A' for Active; 'I' for Inactive)
REMARK    1  A    between atoms: C_4  and  C_5 
REMARK    2  A    between atoms: C_5  and  N_6 
REMARK    3  A    between atoms: N_10  and  N_11 
REMARK       I    between atoms: N_11  and  C_12 
REMARK    4  A    between atoms: C_12  and  C_13 
REMARK    5  A    between atoms: C_13  and  N_14 
REMARK       I    between atoms: N_14  and  C_15 
REMARK    6  A    between atoms: C_15  and  C_16 
REMARK    7  A    between atoms: C_17  and  O_18 
ROOT
HETATM    1  N   UNL     1      41.464 -14.320   4.842  1.00  0.00    -0.307 N 
HETATM    2  C   UNL     1      40.671 -13.574   3.988  1.00  0.00     0.280 A 
HETATM    3  O   UNL     1      39.709 -13.900   3.324  1.00  0.00    -0.265 OA
HETATM    4  C   UNL     1      41.247 -12.163   4.019  1.00  0.00     0.157 A 
HETATM    5  N   UNL     1      40.876 -11.113   3.359  1.00  0.00    -0.166 NA
HETATM    6  C   UNL     1      42.362 -12.202   4.956  1.00  0.00     0.027 A 
HETATM    7  C   UNL     1      42.462 -13.513   5.419  1.00  0.00     0.050 A 
HETATM    8  C   UNL     1      43.225 -11.195   5.346  1.00  0.00     0.016 A 
HETATM    9  C   UNL     1      44.230 -11.537   6.250  1.00  0.00     0.001 A 
HETATM   10  C   UNL     1      44.344 -12.856   6.730  1.00  0.00     0.002 A 
HETATM   11  C   UNL     1      43.456 -13.859   6.314  1.00  0.00     0.031 A 
ENDROOT
BRANCH   5  12
HETATM   12  N   UNL     1      39.841 -11.241   2.477  1.00  0.00    -0.245 N 
HETATM   13  C   UNL     1      38.657 -10.561   2.731  1.00  0.00     0.255 C 
HETATM   14  O   UNL     1      38.424  -9.897   3.741  1.00  0.00    -0.270 OA
HETATM   15  H   UNL     1      39.959 -11.788   1.616  1.00  0.00     0.192 HD
BRANCH  13  16
HETATM   16  C   UNL     1      37.619 -10.699   1.624  1.00  0.00     0.227 C 
BRANCH  16  17
HETATM   17  N   UNL     1      37.929 -11.816   0.750  1.00  0.00    -0.348 N 
HETATM   18  C   UNL     1      38.180 -11.631  -0.588  1.00  0.00     0.254 C 
HETATM   19  O   UNL     1      38.200 -10.526  -1.114  1.00  0.00    -0.268 OA
HETATM   20  H   UNL     1      37.839 -12.756   1.125  1.00  0.00     0.163 HD
BRANCH  18  21
HETATM   21  C   UNL     1      38.404 -12.862  -1.383  1.00  0.00     0.065 A 
HETATM   22  C   UNL     1      39.216 -13.915  -0.941  1.00  0.00     0.081 A 
HETATM   23  C   UNL     1      39.326 -15.081  -1.696  1.00  0.00     0.037 A 
HETATM   24  C   UNL     1      38.650 -15.191  -2.912  1.00  0.00     0.003 A 
HETATM   25  C   UNL     1      37.867 -14.133  -3.376  1.00  0.00     0.001 A 
HETATM   26  C   UNL     1      37.747 -12.969  -2.615  1.00  0.00     0.020 A 
BRANCH  22  27
HETATM   27  O   UNL     1      39.948 -13.869   0.214  1.00  0.00    -0.360 OA
HETATM   28  H   UNL     1      39.559 -14.492   0.856  1.00  0.00     0.217 HD
ENDBRANCH  22  27
ENDBRANCH  18  21
ENDBRANCH  16  17
ENDBRANCH  13  16
ENDBRANCH   5  12
BRANCH   1  29
HETATM   29  C   UNL     1      41.248 -15.719   5.126  1.00  0.00     0.171 C 
BRANCH  29  30
HETATM   30  C   UNL     1      42.171 -16.625   4.345  1.00  0.00    -0.040 A 
HETATM   31  C   UNL     1      41.992 -16.803   2.965  1.00  0.00     0.009 A 
HETATM   32  C   UNL     1      42.841 -17.641   2.241  1.00  0.00     0.001 A 
HETATM   33  C   UNL     1      43.879 -18.310   2.886  1.00  0.00     0.000 A 
HETATM   34  C   UNL     1      44.071 -18.139   4.255  1.00  0.00     0.001 A 
HETATM   35  C   UNL     1      43.224 -17.299   4.981  1.00  0.00     0.009 A 
ENDBRANCH  29  30
ENDBRANCH   1  29
TORSDOF 7
ENDMDL
MODEL 5
REMARK VINA RESULT:      -8.9      1.772      4.005
REMARK  7 active torsions:
REMARK  status: ('A' for Active; 'I' for Inactive)
REMARK    1  A    between atoms: C_4  and  C_5 
REMARK    2  A    between atoms: C_5  and  N_6 
REMARK    3  A    between atoms: N_10  and  N_11 
REMARK       I    between atoms: N_11  and  C_12 
REMARK    4  A    between atoms: C_12  and  C_13 
REMARK    5  A    between atoms: C_13  and  N_14 
REMARK       I    between atoms: N_14  and  C_15 
REMARK    6  A    between atoms: C_15  and  C_16 
REMARK    7  A    between atoms: C_17  and  O_18 
ROOT
HETATM    1  N   UNL     1      40.913 -15.136   3.310  1.00  0.00    -0.307 N 
HETATM    2  C   UNL     1      41.066 -14.141   4.259  1.00  0.00     0.280 A 
HETATM    3  O   UNL     1      40.394 -13.154   4.478  1.00  0.00    -0.265 OA
HETATM    4  C   UNL     1      42.312 -14.517   5.052  1.00  0.00     0.157 A 
HETATM    5  N   UNL     1      42.888 -13.881   6.022  1.00  0.00    -0.166 NA
HETATM    6  C   UNL     1      42.787 -15.773   4.487  1.00  0.00     0.027 A 
HETATM    7  C   UNL     1      41.925 -16.104   3.443  1.00  0.00     0.050 A 
HETATM    8  C   UNL     1      43.882 -16.542   4.835  1.00  0.00     0.016 A 
HETATM    9  C   UNL     1      44.107 -17.698   4.090  1.00  0.00     0.001 A 
HETATM   10  C   UNL     1      43.245 -18.049   3.033  1.00  0.00     0.002 A 
HETATM   11  C   UNL     1      42.143 -17.249   2.700  1.00  0.00     0.031 A 
ENDROOT
BRANCH   5  12
HETATM   12  N   UNL     1      42.355 -12.686   6.412  1.00  0.00    -0.245 N 
HETATM   13  C   UNL     1      43.111 -11.532   6.254  1.00  0.00     0.255 C 
HETATM   14  O   UNL     1      44.275 -11.497   5.855  1.00  0.00    -0.270 OA
HETATM   15  H   UNL     1      41.391 -12.639   6.766  1.00  0.00     0.192 HD
BRANCH  13  16
HETATM   16  C   UNL     1      42.369 -10.254   6.628  1.00  0.00     0.227 C 
BRANCH  16  17
HETATM   17  N   UNL     1      42.288 -10.097   8.068  1.00  0.00    -0.348 N 
HETATM   18  C   UNL     1      43.120  -9.237   8.744  1.00  0.00     0.254 C 
HETATM   19  O   UNL     1      43.942  -8.527   8.179  1.00  0.00    -0.268 OA
HETATM   20  H   UNL     1      41.680 -10.727   8.585  1.00  0.00     0.163 HD
BRANCH  18  21
HETATM   21  C   UNL     1      42.987  -9.229  10.220  1.00  0.00     0.065 A 
HETATM   22  C   UNL     1      43.256 -10.351  11.013  1.00  0.00     0.081 A 
HETATM   23  C   UNL     1      43.191 -10.261  12.403  1.00  0.00     0.037 A 
HETATM   24  C   UNL     1      42.825  -9.057  13.007  1.00  0.00     0.003 A 
HETATM   25  C   UNL     1      42.522  -7.943  12.222  1.00  0.00     0.001 A 
HETATM   26  C   UNL     1      42.599  -8.029  10.831  1.00  0.00     0.020 A 
BRANCH  22  27
HETATM   27  O   UNL     1      43.574 -11.579  10.500  1.00  0.00    -0.360 OA
HETATM   28  H   UNL     1      44.337 -11.937  10.993  1.00  0.00     0.217 HD
ENDBRANCH  22  27
ENDBRANCH  18  21
ENDBRANCH  16  17
ENDBRANCH  13  16
ENDBRANCH   5  12
BRANCH   1  29
HETATM   29  C   UNL     1      39.829 -15.180   2.358  1.00  0.00     0.171 C 
BRANCH  29  30
HETATM   30  C   UNL     1      40.118 -14.390   1.103  1.00  0.00    -0.040 A 
HETATM   31  C   UNL     1      39.822 -14.929  -0.159  1.00  0.00     0.009 A 
HETATM   32  C   UNL     1      40.089 -14.203  -1.321  1.00  0.00     0.001 A 
HETATM   33  C   UNL     1      40.655 -12.932  -1.236  1.00  0.00     0.000 A 
HETATM   34  C   UNL     1      40.949 -12.384   0.010  1.00  0.00     0.001 A 
HETATM   35  C   UNL     1      40.680 -13.107   1.174  1.00  0.00     0.009 A 
ENDBRANCH  29  30
ENDBRANCH   1  29
TORSDOF 7
ENDMDL
MODEL 6
REMARK VINA RESULT:      -8.8      3.677      5.138
REMARK  7 active torsions:
REMARK  status: ('A' for Active; 'I' for Inactive)
REMARK    1  A    between atoms: C_4  and  C_5 
REMARK    2  A    between atoms: C_5  and  N_6 
REMARK    3  A    between atoms: N_10  and  N_11 
REMARK       I    between atoms: N_11  and  C_12 
REMARK    4  A    between atoms: C_12  and  C_13 
REMARK    5  A    between atoms: C_13  and  N_14 
REMARK       I    between atoms: N_14  and  C_15 
REMARK    6  A    between atoms: C_15  and  C_16 
REMARK    7  A    between atoms: C_17  and  O_18 
ROOT
HETATM    1  N   UNL     1      40.581 -13.651   0.647  1.00  0.00    -0.307 N 
HETATM    2  C   UNL     1      41.078 -12.754   1.576  1.00  0.00     0.280 A 
HETATM    3  O   UNL     1      41.280 -12.885   2.765  1.00  0.00    -0.265 OA
HETATM    4  C   UNL     1      41.357 -11.471   0.800  1.00  0.00     0.157 A 
HETATM    5  N   UNL     1      41.795 -10.332   1.233  1.00  0.00    -0.166 NA
HETATM    6  C   UNL     1      41.007 -11.753  -0.585  1.00  0.00     0.027 A 
HETATM    7  C   UNL     1      40.540 -13.066  -0.631  1.00  0.00     0.050 A 
HETATM    8  C   UNL     1      41.067 -10.933  -1.697  1.00  0.00     0.016 A 
HETATM    9  C   UNL     1      40.635 -11.474  -2.907  1.00  0.00     0.001 A 
HETATM   10  C   UNL     1      40.162 -12.799  -2.972  1.00  0.00     0.002 A 
HETATM   11  C   UNL     1      40.111 -13.608  -1.828  1.00  0.00     0.031 A 
ENDROOT
BRANCH   5  12
HETATM   12  N   UNL     1      42.033 -10.202   2.571  1.00  0.00    -0.245 N 
HETATM   13  C   UNL     1      41.031  -9.687   3.383  1.00  0.00     0.255 C 
HETATM   14  O   UNL     1      39.949  -9.256   2.985  1.00  0.00    -0.270 OA
HETATM   15  H   UNL     1      42.920 -10.530   2.974  1.00  0.00     0.192 HD
BRANCH  13  16
HETATM   16  C   UNL     1      41.379  -9.689   4.866  1.00  0.00     0.227 C 
BRANCH  16  17
HETATM   17  N   UNL     1      41.215 -11.012   5.442  1.00  0.00    -0.348 N 
HETATM   18  C   UNL     1      42.271 -11.884   5.550  1.00  0.00     0.254 C 
HETATM   19  O   UNL     1      43.411 -11.591   5.213  1.00  0.00    -0.268 OA
HETATM   20  H   UNL     1      40.272 -11.327   5.656  1.00  0.00     0.163 HD
BRANCH  18  21
HETATM   21  C   UNL     1      41.951 -13.229   6.083  1.00  0.00     0.065 A 
HETATM   22  C   UNL     1      40.697 -13.832   5.923  1.00  0.00     0.081 A 
HETATM   23  C   UNL     1      40.480 -15.132   6.376  1.00  0.00     0.037 A 
HETATM   24  C   UNL     1      41.505 -15.826   7.019  1.00  0.00     0.003 A 
HETATM   25  C   UNL     1      42.747 -15.221   7.214  1.00  0.00     0.001 A 
HETATM   26  C   UNL     1      42.970 -13.923   6.749  1.00  0.00     0.020 A 
BRANCH  22  27
HETATM   27  O   UNL     1      39.627 -13.203   5.347  1.00  0.00    -0.360 OA
HETATM   28  H   UNL     1      39.476 -13.588   4.463  1.00  0.00     0.217 HD
ENDBRANCH  22  27
ENDBRANCH  18  21
ENDBRANCH  16  17
ENDBRANCH  13  16
ENDBRANCH   5  12
BRANCH   1  29
HETATM   29  C   UNL     1      40.208 -15.010   0.960  1.00  0.00     0.171 C 
BRANCH  29  30
HETATM   30  C   UNL     1      41.282 -15.753   1.720  1.00  0.00    -0.040 A 
HETATM   31  C   UNL     1      40.997 -16.338   2.964  1.00  0.00     0.009 A 
HETATM   32  C   UNL     1      41.986 -17.024   3.670  1.00  0.00     0.001 A 
HETATM   33  C   UNL     1      43.271 -17.133   3.143  1.00  0.00     0.000 A 
HETATM   34  C   UNL     1      43.567 -16.561   1.908  1.00  0.00     0.001 A 
HETATM   35  C   UNL     1      42.578 -15.877   1.198  1.00  0.00     0.009 A 
ENDBRANCH  29  30
ENDBRANCH   1  29
TORSDOF 7
ENDMDL
MODEL 7
REMARK VINA RESULT:      -8.7      5.584      8.032
REMARK  7 active torsions:
REMARK  status: ('A' for Active; 'I' for Inactive)
REMARK    1  A    between atoms: C_4  and  C_5 
REMARK    2  A    between atoms: C_5  and  N_6 
REMARK    3  A    between atoms: N_10  and  N_11 
REMARK       I    between atoms: N_11  and  C_12 
REMARK    4  A    between atoms: C_12  and  C_13 
REMARK    5  A    between atoms: C_13  and  N_14 
REMARK       I    between atoms: N_14  and  C_15 
REMARK    6  A    between atoms: C_15  and  C_16 
REMARK    7  A    between atoms: C_17  and  O_18 
ROOT
HETATM    1  N   UNL     1      42.644 -16.037   3.299  1.00  0.00    -0.307 N 
HETATM    2  C   UNL     1      41.829 -15.476   2.332  1.00  0.00     0.280 A 
HETATM    3  O   UNL     1      41.979 -15.390   1.131  1.00  0.00    -0.265 OA
HETATM    4  C   UNL     1      40.612 -14.941   3.078  1.00  0.00     0.157 A 
HETATM    5  N   UNL     1      39.587 -14.298   2.618  1.00  0.00    -0.166 NA
HETATM    6  C   UNL     1      40.820 -15.277   4.481  1.00  0.00     0.027 A 
HETATM    7  C   UNL     1      42.051 -15.925   4.569  1.00  0.00     0.050 A 
HETATM    8  C   UNL     1      40.021 -15.018   5.579  1.00  0.00     0.016 A 
HETATM    9  C   UNL     1      40.495 -15.441   6.820  1.00  0.00     0.001 A 
HETATM   10  C   UNL     1      41.736 -16.098   6.928  1.00  0.00     0.002 A 
HETATM   11  C   UNL     1      42.527 -16.345   5.796  1.00  0.00     0.031 A 
ENDROOT
BRANCH   5  12
HETATM   12  N   UNL     1      39.555 -14.011   1.284  1.00  0.00    -0.245 N 
HETATM   13  C   UNL     1      39.776 -12.703   0.874  1.00  0.00     0.255 C 
HETATM   14  O   UNL     1      39.927 -11.741   1.628  1.00  0.00    -0.270 OA
HETATM   15  H   UNL     1      39.423 -14.762   0.595  1.00  0.00     0.192 HD
BRANCH  13  16
HETATM   16  C   UNL     1      39.819 -12.530  -0.639  1.00  0.00     0.227 C 
BRANCH  16  17
HETATM   17  N   UNL     1      40.661 -11.410  -1.016  1.00  0.00    -0.348 N 
HETATM   18  C   UNL     1      40.135 -10.278  -1.591  1.00  0.00     0.254 C 
HETATM   19  O   UNL     1      38.935 -10.126  -1.781  1.00  0.00    -0.268 OA
HETATM   20  H   UNL     1      41.669 -11.528  -0.956  1.00  0.00     0.163 HD
BRANCH  18  21
HETATM   21  C   UNL     1      41.113  -9.242  -2.000  1.00  0.00     0.065 A 
HETATM   22  C   UNL     1      42.161  -8.818  -1.174  1.00  0.00     0.081 A 
HETATM   23  C   UNL     1      43.097  -7.899  -1.644  1.00  0.00     0.037 A 
HETATM   24  C   UNL     1      42.974  -7.374  -2.931  1.00  0.00     0.003 A 
HETATM   25  C   UNL     1      41.912  -7.765  -3.748  1.00  0.00     0.001 A 
HETATM   26  C   UNL     1      40.981  -8.695  -3.283  1.00  0.00     0.020 A 
BRANCH  22  27
HETATM   27  O   UNL     1      42.326  -9.247   0.114  1.00  0.00    -0.360 OA
HETATM   28  H   UNL     1      43.275  -9.206   0.339  1.00  0.00     0.217 HD
ENDBRANCH  22  27
ENDBRANCH  18  21
ENDBRANCH  16  17
ENDBRANCH  13  16
ENDBRANCH   5  12
BRANCH   1  29
HETATM   29  C   UNL     1      43.902 -16.685   3.014  1.00  0.00     0.171 C 
BRANCH  29  30
HETATM   30  C   UNL     1      43.829 -18.189   3.140  1.00  0.00    -0.040 A 
HETATM   31  C   UNL     1      44.355 -18.833   4.271  1.00  0.00     0.009 A 
HETATM   32  C   UNL     1      44.292 -20.222   4.391  1.00  0.00     0.001 A 
HETATM   33  C   UNL     1      43.702 -20.984   3.383  1.00  0.00     0.000 A 
HETATM   34  C   UNL     1      43.172 -20.357   2.258  1.00  0.00     0.001 A 
HETATM   35  C   UNL     1      43.232 -18.967   2.138  1.00  0.00     0.009 A 
ENDBRANCH  29  30
ENDBRANCH   1  29
TORSDOF 7
ENDMDL
MODEL 8
REMARK VINA RESULT:      -8.7      3.497      7.133
REMARK  7 active torsions:
REMARK  status: ('A' for Active; 'I' for Inactive)
REMARK    1  A    between atoms: C_4  and  C_5 
REMARK    2  A    between atoms: C_5  and  N_6 
REMARK    3  A    between atoms: N_10  and  N_11 
REMARK       I    between atoms: N_11  and  C_12 
REMARK    4  A    between atoms: C_12  and  C_13 
REMARK    5  A    between atoms: C_13  and  N_14 
REMARK       I    between atoms: N_14  and  C_15 
REMARK    6  A    between atoms: C_15  and  C_16 
REMARK    7  A    between atoms: C_17  and  O_18 
ROOT
HETATM    1  N   UNL     1      42.136 -15.002   4.812  1.00  0.00    -0.307 N 
HETATM    2  C   UNL     1      41.847 -14.493   3.558  1.00  0.00     0.280 A 
HETATM    3  O   UNL     1      41.310 -13.453   3.237  1.00  0.00    -0.265 OA
HETATM    4  C   UNL     1      42.356 -15.531   2.565  1.00  0.00     0.157 A 
HETATM    5  N   UNL     1      42.286 -15.531   1.273  1.00  0.00    -0.166 NA
HETATM    6  C   UNL     1      42.951 -16.595   3.363  1.00  0.00     0.027 A 
HETATM    7  C   UNL     1      42.790 -16.242   4.702  1.00  0.00     0.050 A 
HETATM    8  C   UNL     1      43.552 -17.773   2.959  1.00  0.00     0.016 A 
HETATM    9  C   UNL     1      44.013 -18.625   3.961  1.00  0.00     0.001 A 
HETATM   10  C   UNL     1      43.861 -18.283   5.319  1.00  0.00     0.002 A 
HETATM   11  C   UNL     1      43.244 -17.083   5.700  1.00  0.00     0.031 A 
ENDROOT
BRANCH   5  12
HETATM   12  N   UNL     1      41.653 -14.485   0.664  1.00  0.00    -0.245 N 
HETATM   13  C   UNL     1      40.330 -14.640   0.270  1.00  0.00     0.255 C 
HETATM   14  O   UNL     1      39.685 -15.685   0.352  1.00  0.00    -0.270 OA
HETATM   15  H   UNL     1      42.133 -13.583   0.551  1.00  0.00     0.192 HD
BRANCH  13  16
HETATM   16  C   UNL     1      39.705 -13.373  -0.300  1.00  0.00     0.227 C 
BRANCH  16  17
HETATM   17  N   UNL     1      39.530 -12.365   0.730  1.00  0.00    -0.348 N 
HETATM   18  C   UNL     1      40.328 -11.247   0.783  1.00  0.00     0.254 C 
HETATM   19  O   UNL     1      41.196 -11.011  -0.047  1.00  0.00    -0.268 OA
HETATM   20  H   UNL     1      38.880 -12.563   1.487  1.00  0.00     0.163 HD
BRANCH  18  21
HETATM   21  C   UNL     1      40.096 -10.338   1.930  1.00  0.00     0.065 A 
HETATM   22  C   UNL     1      41.107  -9.975   2.829  1.00  0.00     0.081 A 
HETATM   23  C   UNL     1      40.848  -9.053   3.842  1.00  0.00     0.037 A 
HETATM   24  C   UNL     1      39.570  -8.511   3.982  1.00  0.00     0.003 A 
HETATM   25  C   UNL     1      38.548  -8.893   3.112  1.00  0.00     0.001 A 
HETATM   26  C   UNL     1      38.809  -9.807   2.089  1.00  0.00     0.020 A 
BRANCH  22  27
HETATM   27  O   UNL     1      42.371 -10.495   2.791  1.00  0.00    -0.360 OA
HETATM   28  H   UNL     1      42.468 -11.024   1.977  1.00  0.00     0.217 HD
ENDBRANCH  22  27
ENDBRANCH  18  21
ENDBRANCH  16  17
ENDBRANCH  13  16
ENDBRANCH   5  12
BRANCH   1  29
HETATM   29  C   UNL     1      41.840 -14.316   6.047  1.00  0.00     0.171 C 
BRANCH  29  30
HETATM   30  C   UNL     1      42.720 -13.108   6.273  1.00  0.00    -0.040 A 
HETATM   31  C   UNL     1      44.079 -13.268   6.583  1.00  0.00     0.009 A 
HETATM   32  C   UNL     1      44.895 -12.155   6.794  1.00  0.00     0.001 A 
HETATM   33  C   UNL     1      44.362 -10.870   6.698  1.00  0.00     0.000 A 
HETATM   34  C   UNL     1      43.016 -10.698   6.386  1.00  0.00     0.001 A 
HETATM   35  C   UNL     1      42.199 -11.810   6.171  1.00  0.00     0.009 A 
ENDBRANCH  29  30
ENDBRANCH   1  29
TORSDOF 7
ENDMDL
MODEL 9
REMARK VINA RESULT:      -8.6      2.534      3.621
REMARK  7 active torsions:
REMARK  status: ('A' for Active; 'I' for Inactive)
REMARK    1  A    between atoms: C_4  and  C_5 
REMARK    2  A    between atoms: C_5  and  N_6 
REMARK    3  A    between atoms: N_10  and  N_11 
REMARK       I    between atoms: N_11  and  C_12 
REMARK    4  A    between atoms: C_12  and  C_13 
REMARK    5  A    between atoms: C_13  and  N_14 
REMARK       I    between atoms: N_14  and  C_15 
REMARK    6  A    between atoms: C_15  and  C_16 
REMARK    7  A    between atoms: C_17  and  O_18 
ROOT
HETATM    1  N   UNL     1      41.971 -12.659   2.560  1.00  0.00    -0.307 N 
HETATM    2  C   UNL     1      41.647 -11.821   3.611  1.00  0.00     0.280 A 
HETATM    3  O   UNL     1      42.270 -11.543   4.615  1.00  0.00    -0.265 OA
HETATM    4  C   UNL     1      40.273 -11.253   3.277  1.00  0.00     0.157 A 
HETATM    5  N   UNL     1      39.529 -10.450   3.968  1.00  0.00    -0.166 NA
HETATM    6  C   UNL     1      39.907 -11.815   1.984  1.00  0.00     0.027 A 
HETATM    7  C   UNL     1      40.948 -12.657   1.595  1.00  0.00     0.050 A 
HETATM    8  C   UNL     1      38.763 -11.630   1.231  1.00  0.00     0.016 A 
HETATM    9  C   UNL     1      38.677 -12.329   0.028  1.00  0.00     0.001 A 
HETATM   10  C   UNL     1      39.719 -13.183  -0.382  1.00  0.00     0.002 A 
HETATM   11  C   UNL     1      40.868 -13.354   0.404  1.00  0.00     0.031 A 
ENDROOT
BRANCH   5  12
HETATM   12  N   UNL     1      39.985 -10.043   5.190  1.00  0.00    -0.245 N 
HETATM   13  C   UNL     1      39.176 -10.231   6.303  1.00  0.00     0.255 C 
HETATM   14  O   UNL     1      38.027 -10.672   6.277  1.00  0.00    -0.270 OA
HETATM   15  H   UNL     1      40.931  -9.655   5.287  1.00  0.00     0.192 HD
BRANCH  13  16
HETATM   16  C   UNL     1      39.836  -9.834   7.617  1.00  0.00     0.227 C 
BRANCH  16  17
HETATM   17  N   UNL     1      41.266 -10.080   7.582  1.00  0.00    -0.348 N 
HETATM   18  C   UNL     1      42.111  -9.539   8.521  1.00  0.00     0.254 C 
HETATM   19  O   UNL     1      41.714  -8.861   9.460  1.00  0.00    -0.268 OA
HETATM   20  H   UNL     1      41.648 -10.565   6.774  1.00  0.00     0.163 HD
BRANCH  18  21
HETATM   21  C   UNL     1      43.556  -9.804   8.325  1.00  0.00     0.065 A 
HETATM   22  C   UNL     1      44.043 -11.000   7.784  1.00  0.00     0.081 A 
HETATM   23  C   UNL     1      45.408 -11.160   7.548  1.00  0.00     0.037 A 
HETATM   24  C   UNL     1      46.297 -10.137   7.880  1.00  0.00     0.003 A 
HETATM   25  C   UNL     1      45.824  -8.955   8.451  1.00  0.00     0.001 A 
HETATM   26  C   UNL     1      44.456  -8.789   8.676  1.00  0.00     0.020 A 
BRANCH  22  27
HETATM   27  O   UNL     1      43.246 -12.068   7.476  1.00  0.00    -0.360 OA
HETATM   28  H   UNL     1      42.851 -12.412   8.300  1.00  0.00     0.217 HD
ENDBRANCH  22  27
ENDBRANCH  18  21
ENDBRANCH  16  17
ENDBRANCH  13  16
ENDBRANCH   5  12
BRANCH   1  29
HETATM   29  C   UNL     1      43.213 -13.388   2.464  1.00  0.00     0.171 C 
BRANCH  29  30
HETATM   30  C   UNL     1      43.076 -14.839   2.865  1.00  0.00    -0.040 A 
HETATM   31  C   UNL     1      43.202 -15.855   1.906  1.00  0.00     0.009 A 
HETATM   32  C   UNL     1      43.074 -17.196   2.271  1.00  0.00     0.001 A 
HETATM   33  C   UNL     1      42.817 -17.537   3.597  1.00  0.00     0.000 A 
HETATM   34  C   UNL     1      42.694 -16.538   4.560  1.00  0.00     0.001 A 
HETATM   35  C   UNL     1      42.825 -15.196   4.197  1.00  0.00     0.009 A 
ENDBRANCH  29  30
ENDBRANCH   1  29
TORSDOF 7
ENDMDL
MODEL 10
REMARK VINA RESULT:      -8.4     17.692     19.922
REMARK  7 active torsions:
REMARK  status: ('A' for Active; 'I' for Inactive)
REMARK    1  A    between atoms: C_4  and  C_5 
REMARK    2  A    between atoms: C_5  and  N_6 
REMARK    3  A    between atoms: N_10  and  N_11 
REMARK       I    between atoms: N_11  and  C_12 
REMARK    4  A    between atoms: C_12  and  C_13 
REMARK    5  A    between atoms: C_13  and  N_14 
REMARK       I    between atoms: N_14  and  C_15 
REMARK    6  A    between atoms: C_15  and  C_16 
REMARK    7  A    between atoms: C_17  and  O_18 
ROOT
HETATM    1  N   UNL     1      45.232 -28.640   0.118  1.00  0.00    -0.307 N 
HETATM    2  C   UNL     1      46.426 -28.744   0.809  1.00  0.00     0.280 A 
HETATM    3  O   UNL     1      47.541 -28.368   0.511  1.00  0.00    -0.265 OA
HETATM    4  C   UNL     1      46.088 -29.461   2.110  1.00  0.00     0.157 A 
HETATM    5  N   UNL     1      46.874 -29.825   3.073  1.00  0.00    -0.166 NA
HETATM    6  C   UNL     1      44.651 -29.702   2.077  1.00  0.00     0.027 A 
HETATM    7  C   UNL     1      44.181 -29.202   0.864  1.00  0.00     0.050 A 
HETATM    8  C   UNL     1      43.837 -30.322   3.006  1.00  0.00     0.016 A 
HETATM    9  C   UNL     1      42.484 -30.434   2.688  1.00  0.00     0.001 A 
HETATM   10  C   UNL     1      41.990 -29.933   1.468  1.00  0.00     0.002 A 
HETATM   11  C   UNL     1      42.841 -29.311   0.542  1.00  0.00     0.031 A 
ENDROOT
BRANCH   5  12
HETATM   12  N   UNL     1      48.210 -29.574   2.941  1.00  0.00    -0.245 N 
HETATM   13  C   UNL     1      49.100 -30.234   3.776  1.00  0.00     0.255 C 
HETATM   14  O   UNL     1      48.783 -30.985   4.699  1.00  0.00    -0.270 OA
HETATM   15  H   UNL     1      48.549 -28.949   2.199  1.00  0.00     0.192 HD
BRANCH  13  16
HETATM   16  C   UNL     1      50.564 -29.951   3.462  1.00  0.00     0.227 C 
BRANCH  16  17
HETATM   17  N   UNL     1      50.834 -30.095   2.043  1.00  0.00    -0.348 N 
HETATM   18  C   UNL     1      50.980 -31.332   1.463  1.00  0.00     0.254 C 
HETATM   19  O   UNL     1      50.852 -32.377   2.087  1.00  0.00    -0.268 OA
HETATM   20  H   UNL     1      51.033 -29.255   1.506  1.00  0.00     0.163 HD
BRANCH  18  21
HETATM   21  C   UNL     1      51.331 -31.337   0.023  1.00  0.00     0.065 A 
HETATM   22  C   UNL     1      50.823 -30.400  -0.886  1.00  0.00     0.081 A 
HETATM   23  C   UNL     1      51.252 -30.405  -2.213  1.00  0.00     0.037 A 
HETATM   24  C   UNL     1      52.167 -31.365  -2.646  1.00  0.00     0.003 A 
HETATM   25  C   UNL     1      52.652 -32.324  -1.754  1.00  0.00     0.001 A 
HETATM   26  C   UNL     1      52.233 -32.312  -0.423  1.00  0.00     0.020 A 
BRANCH  22  27
HETATM   27  O   UNL     1      49.889 -29.458  -0.555  1.00  0.00    -0.360 OA
HETATM   28  H   UNL     1      49.215 -29.872   0.017  1.00  0.00     0.217 HD
ENDBRANCH  22  27
ENDBRANCH  18  21
ENDBRANCH  16  17
ENDBRANCH  13  16
ENDBRANCH   5  12
BRANCH   1  29
HETATM   29  C   UNL     1      45.099 -27.997  -1.168  1.00  0.00     0.171 C 
BRANCH  29  30
HETATM   30  C   UNL     1      45.134 -28.975  -2.320  1.00  0.00    -0.040 A 
HETATM   31  C   UNL     1      44.021 -29.120  -3.162  1.00  0.00     0.009 A 
HETATM   32  C   UNL     1      44.048 -30.023  -4.226  1.00  0.00     0.001 A 
HETATM   33  C   UNL     1      45.186 -30.792  -4.460  1.00  0.00     0.000 A 
HETATM   34  C   UNL     1      46.299 -30.655  -3.634  1.00  0.00     0.001 A 
HETATM   35  C   UNL     1      46.275 -29.749  -2.571  1.00  0.00     0.009 A 
ENDBRANCH  29  30
ENDBRANCH   1  29
TORSDOF 7
ENDMDL
