MODEL 1
REMARK VINA RESULT:      -7.7      0.000      0.000
REMARK  2 active torsions:
REMARK  status: ('A' for Active; 'I' for Inactive)
REMARK    1  A    between atoms: C_6  and  C_7 
REMARK    2  A    between atoms: C_7  and  N_8 
ROOT
HETATM    1  N   UNL     1      43.123 -15.996   5.208  1.00  0.00    -0.203 NA
HETATM    2  S   UNL     1      42.361 -15.550   3.756  1.00  0.00     0.219 S 
HETATM    3  O   UNL     1      41.203 -16.384   3.564  1.00  0.00    -0.211 OA
HETATM    4  O   UNL     1      43.380 -15.358   2.747  1.00  0.00    -0.211 OA
HETATM    5  C   UNL     1      41.876 -13.909   4.266  1.00  0.00     0.164 C 
HETATM    6  C   UNL     1      42.160 -13.850   5.759  1.00  0.00     0.116 C 
HETATM    7  O   UNL     1      40.893 -14.208   6.356  1.00  0.00    -0.369 OA
HETATM    8  C   UNL     1      39.923 -13.455   5.594  1.00  0.00     0.149 C 
HETATM    9  C   UNL     1      39.998 -11.996   6.094  1.00  0.00     0.264 C 
HETATM   10  N   UNL     1      41.401 -11.446   5.886  1.00  0.00    -0.070 N 
HETATM   11  H   UNL     1      41.510 -11.134   4.911  1.00  0.00     0.277 HD
HETATM   12  H   UNL     1      41.505 -10.592   6.455  1.00  0.00     0.277 HD
HETATM   13  C   UNL     1      42.496 -12.429   6.261  1.00  0.00     0.273 C 
HETATM   14  C   UNL     1      43.277 -14.839   6.111  1.00  0.00     0.148 C 
HETATM   15  C   UNL     1      40.388 -13.608   4.145  1.00  0.00     0.058 C 
ENDROOT
BRANCH   1  16
HETATM   16  C   UNL     1      44.357 -16.813   5.077  1.00  0.00     0.145 C 
BRANCH  16  17
HETATM   17  C   UNL     1      44.126 -18.269   4.767  1.00  0.00    -0.043 A 
HETATM   18  C   UNL     1      44.080 -18.715   3.439  1.00  0.00     0.032 A 
HETATM   19  C   UNL     1      43.814 -20.057   3.160  1.00  0.00     0.034 A 
HETATM   20  C   UNL     1      43.597 -20.966   4.192  1.00  0.00     0.024 A 
HETATM   21 CL   UNL     1      43.742 -20.586   1.524  1.00  0.00    -0.084 Cl
HETATM   22  C   UNL     1      43.652 -20.533   5.516  1.00  0.00     0.002 A 
HETATM   23  C   UNL     1      43.916 -19.193   5.802  1.00  0.00     0.008 A 
ENDBRANCH  16  17
ENDBRANCH   1  16
TORSDOF 2
ENDMDL
MODEL 2
REMARK VINA RESULT:      -7.6      1.985      2.603
REMARK  2 active torsions:
REMARK  status: ('A' for Active; 'I' for Inactive)
REMARK    1  A    between atoms: C_6  and  C_7 
REMARK    2  A    between atoms: C_7  and  N_8 
ROOT
HETATM    1  N   UNL     1      42.327 -14.568   3.392  1.00  0.00    -0.203 NA
HETATM    2  S   UNL     1      40.732 -14.283   3.908  1.00  0.00     0.219 S 
HETATM    3  O   UNL     1      40.577 -14.801   5.243  1.00  0.00    -0.211 OA
HETATM    4  O   UNL     1      39.837 -14.607   2.819  1.00  0.00    -0.211 OA
HETATM    5  C   UNL     1      40.832 -12.501   3.932  1.00  0.00     0.164 C 
HETATM    6  C   UNL     1      42.303 -12.176   3.733  1.00  0.00     0.116 C 
HETATM    7  O   UNL     1      42.804 -12.036   5.082  1.00  0.00    -0.369 OA
HETATM    8  C   UNL     1      41.791 -11.250   5.749  1.00  0.00     0.149 C 
HETATM    9  C   UNL     1      41.986  -9.788   5.289  1.00  0.00     0.264 C 
HETATM   10  N   UNL     1      41.841  -9.695   3.778  1.00  0.00    -0.070 N 
HETATM   11  H   UNL     1      40.843  -9.657   3.527  1.00  0.00     0.277 HD
HETATM   12  H   UNL     1      42.231  -8.792   3.468  1.00  0.00     0.277 HD
HETATM   13  C   UNL     1      42.540 -10.819   3.034  1.00  0.00     0.273 C 
HETATM   14  C   UNL     1      42.985 -13.317   2.967  1.00  0.00     0.148 C 
HETATM   15  C   UNL     1      40.472 -11.852   5.262  1.00  0.00     0.058 C 
ENDROOT
BRANCH   1  16
HETATM   16  C   UNL     1      42.517 -15.691   2.438  1.00  0.00     0.145 C 
BRANCH  16  17
HETATM   17  C   UNL     1      43.140 -16.928   3.029  1.00  0.00    -0.043 A 
HETATM   18  C   UNL     1      43.231 -18.108   2.277  1.00  0.00     0.032 A 
HETATM   19  C   UNL     1      43.762 -19.264   2.849  1.00  0.00     0.034 A 
HETATM   20  C   UNL     1      44.211 -19.261   4.167  1.00  0.00     0.024 A 
HETATM   21 CL   UNL     1      43.850 -20.710   1.919  1.00  0.00    -0.084 Cl
HETATM   22  C   UNL     1      44.135 -18.090   4.919  1.00  0.00     0.002 A 
HETATM   23  C   UNL     1      43.603 -16.930   4.354  1.00  0.00     0.008 A 
ENDBRANCH  16  17
ENDBRANCH   1  16
TORSDOF 2
ENDMDL
MODEL 3
REMARK VINA RESULT:      -7.4      2.041      2.601
REMARK  2 active torsions:
REMARK  status: ('A' for Active; 'I' for Inactive)
REMARK    1  A    between atoms: C_6  and  C_7 
REMARK    2  A    between atoms: C_7  and  N_8 
ROOT
HETATM    1  N   UNL     1      42.643 -15.755   2.908  1.00  0.00    -0.203 NA
HETATM    2  S   UNL     1      40.952 -15.635   3.023  1.00  0.00     0.219 S 
HETATM    3  O   UNL     1      40.528 -16.225   4.266  1.00  0.00    -0.211 OA
HETATM    4  O   UNL     1      40.383 -15.985   1.740  1.00  0.00    -0.211 OA
HETATM    5  C   UNL     1      40.870 -13.853   3.113  1.00  0.00     0.164 C 
HETATM    6  C   UNL     1      42.308 -13.392   3.288  1.00  0.00     0.116 C 
HETATM    7  O   UNL     1      42.450 -13.271   4.722  1.00  0.00    -0.369 OA
HETATM    8  C   UNL     1      41.236 -12.609   5.138  1.00  0.00     0.149 C 
HETATM    9  C   UNL     1      41.394 -11.116   4.774  1.00  0.00     0.264 C 
HETATM   10  N   UNL     1      41.612 -10.966   3.277  1.00  0.00    -0.070 N 
HETATM   11  H   UNL     1      40.706 -11.004   2.789  1.00  0.00     0.277 HD
HETATM   12  H   UNL     1      41.976 -10.019   3.093  1.00  0.00     0.277 HD
HETATM   13  C   UNL     1      42.576 -11.989   2.701  1.00  0.00     0.273 C 
HETATM   14  C   UNL     1      43.261 -14.432   2.688  1.00  0.00     0.148 C 
HETATM   15  C   UNL     1      40.138 -13.301   4.328  1.00  0.00     0.058 C 
ENDROOT
BRANCH   1  16
HETATM   16  C   UNL     1      43.167 -16.811   2.005  1.00  0.00     0.145 C 
BRANCH  16  17
HETATM   17  C   UNL     1      43.364 -18.158   2.648  1.00  0.00    -0.043 A 
HETATM   18  C   UNL     1      43.471 -18.274   4.041  1.00  0.00     0.032 A 
HETATM   19  C   UNL     1      43.706 -19.519   4.625  1.00  0.00     0.034 A 
HETATM   20  C   UNL     1      43.832 -20.659   3.835  1.00  0.00     0.024 A 
HETATM   21 CL   UNL     1      43.853 -19.642   6.335  1.00  0.00    -0.084 Cl
HETATM   22  C   UNL     1      43.717 -20.556   2.450  1.00  0.00     0.002 A 
HETATM   23  C   UNL     1      43.483 -19.313   1.859  1.00  0.00     0.008 A 
ENDBRANCH  16  17
ENDBRANCH   1  16
TORSDOF 2
ENDMDL
MODEL 4
REMARK VINA RESULT:      -7.3      3.812      6.987
REMARK  2 active torsions:
REMARK  status: ('A' for Active; 'I' for Inactive)
REMARK    1  A    between atoms: C_6  and  C_7 
REMARK    2  A    between atoms: C_7  and  N_8 
ROOT
HETATM    1  N   UNL     1      43.361 -14.201   5.804  1.00  0.00    -0.203 NA
HETATM    2  S   UNL     1      42.352 -14.764   4.557  1.00  0.00     0.219 S 
HETATM    3  O   UNL     1      42.979 -14.482   3.291  1.00  0.00    -0.211 OA
HETATM    4  O   UNL     1      40.989 -14.394   4.872  1.00  0.00    -0.211 OA
HETATM    5  C   UNL     1      42.479 -16.501   4.949  1.00  0.00     0.164 C 
HETATM    6  C   UNL     1      43.578 -16.599   5.995  1.00  0.00     0.116 C 
HETATM    7  O   UNL     1      44.762 -16.880   5.214  1.00  0.00    -0.369 OA
HETATM    8  C   UNL     1      44.327 -17.883   4.270  1.00  0.00     0.149 C 
HETATM    9  C   UNL     1      44.250 -19.219   5.041  1.00  0.00     0.264 C 
HETATM   10  N   UNL     1      43.269 -19.096   6.196  1.00  0.00    -0.070 N 
HETATM   11  H   UNL     1      42.307 -19.223   5.850  1.00  0.00     0.277 HD
HETATM   12  H   UNL     1      43.427 -19.883   6.844  1.00  0.00     0.277 HD
HETATM   13  C   UNL     1      43.398 -17.790   6.961  1.00  0.00     0.273 C 
HETATM   14  C   UNL     1      43.680 -15.276   6.763  1.00  0.00     0.148 C 
HETATM   15  C   UNL     1      42.955 -17.388   3.806  1.00  0.00     0.058 C 
ENDROOT
BRANCH   1  16
HETATM   16  C   UNL     1      42.952 -12.929   6.455  1.00  0.00     0.145 C 
BRANCH  16  17
HETATM   17  C   UNL     1      44.088 -12.070   6.942  1.00  0.00    -0.043 A 
HETATM   18  C   UNL     1      44.007 -11.414   8.178  1.00  0.00     0.032 A 
HETATM   19  C   UNL     1      45.043 -10.579   8.598  1.00  0.00     0.034 A 
HETATM   20  C   UNL     1      46.168 -10.389   7.800  1.00  0.00     0.024 A 
HETATM   21 CL   UNL     1      44.920  -9.766  10.110  1.00  0.00    -0.084 Cl
HETATM   22  C   UNL     1      46.263 -11.046   6.574  1.00  0.00     0.002 A 
HETATM   23  C   UNL     1      45.230 -11.882   6.147  1.00  0.00     0.008 A 
ENDBRANCH  16  17
ENDBRANCH   1  16
TORSDOF 2
ENDMDL
MODEL 5
REMARK VINA RESULT:      -7.2      4.566      5.844
REMARK  2 active torsions:
REMARK  status: ('A' for Active; 'I' for Inactive)
REMARK    1  A    between atoms: C_6  and  C_7 
REMARK    2  A    between atoms: C_7  and  N_8 
ROOT
HETATM    1  N   UNL     1      40.394 -14.604   1.162  1.00  0.00    -0.203 NA
HETATM    2  S   UNL     1      40.023 -13.052   1.747  1.00  0.00     0.219 S 
HETATM    3  O   UNL     1      41.251 -12.363   2.047  1.00  0.00    -0.211 OA
HETATM    4  O   UNL     1      38.926 -13.169   2.684  1.00  0.00    -0.211 OA
HETATM    5  C   UNL     1      39.300 -12.424   0.240  1.00  0.00     0.164 C 
HETATM    6  C   UNL     1      39.605 -13.469  -0.820  1.00  0.00     0.116 C 
HETATM    7  O   UNL     1      40.827 -12.988  -1.426  1.00  0.00    -0.369 OA
HETATM    8  C   UNL     1      40.596 -11.572  -1.598  1.00  0.00     0.149 C 
HETATM    9  C   UNL     1      39.668 -11.417  -2.823  1.00  0.00     0.264 C 
HETATM   10  N   UNL     1      38.361 -12.157  -2.582  1.00  0.00    -0.070 N 
HETATM   11  H   UNL     1      37.733 -11.573  -2.012  1.00  0.00     0.277 HD
HETATM   12  H   UNL     1      37.878 -12.269  -3.486  1.00  0.00     0.277 HD
HETATM   13  C   UNL     1      38.550 -13.524  -1.946  1.00  0.00     0.273 C 
HETATM   14  C   UNL     1      39.777 -14.841  -0.158  1.00  0.00     0.148 C 
HETATM   15  C   UNL     1      39.928 -11.142  -0.291  1.00  0.00     0.058 C 
ENDROOT
BRANCH   1  16
HETATM   16  C   UNL     1      40.204 -15.728   2.115  1.00  0.00     0.145 C 
BRANCH  16  17
HETATM   17  C   UNL     1      41.455 -16.181   2.820  1.00  0.00    -0.043 A 
HETATM   18  C   UNL     1      42.114 -17.351   2.419  1.00  0.00     0.032 A 
HETATM   19  C   UNL     1      43.243 -17.792   3.111  1.00  0.00     0.034 A 
HETATM   20  C   UNL     1      43.729 -17.076   4.203  1.00  0.00     0.024 A 
HETATM   21 CL   UNL     1      44.031 -19.240   2.619  1.00  0.00    -0.084 Cl
HETATM   22  C   UNL     1      43.086 -15.906   4.603  1.00  0.00     0.002 A 
HETATM   23  C   UNL     1      41.956 -15.460   3.915  1.00  0.00     0.008 A 
ENDBRANCH  16  17
ENDBRANCH   1  16
TORSDOF 2
ENDMDL
MODEL 6
REMARK VINA RESULT:      -7.1      3.739      5.925
REMARK  2 active torsions:
REMARK  status: ('A' for Active; 'I' for Inactive)
REMARK    1  A    between atoms: C_6  and  C_7 
REMARK    2  A    between atoms: C_7  and  N_8 
ROOT
HETATM    1  N   UNL     1      41.092 -15.478   2.639  1.00  0.00    -0.203 NA
HETATM    2  S   UNL     1      42.466 -16.475   2.719  1.00  0.00     0.219 S 
HETATM    3  O   UNL     1      43.601 -15.744   2.217  1.00  0.00    -0.211 OA
HETATM    4  O   UNL     1      42.098 -17.794   2.251  1.00  0.00    -0.211 OA
HETATM    5  C   UNL     1      42.535 -16.600   4.499  1.00  0.00     0.164 C 
HETATM    6  C   UNL     1      41.525 -15.587   5.013  1.00  0.00     0.116 C 
HETATM    7  O   UNL     1      42.324 -14.406   5.252  1.00  0.00    -0.369 OA
HETATM    8  C   UNL     1      43.506 -14.912   5.910  1.00  0.00     0.149 C 
HETATM    9  C   UNL     1      43.110 -15.209   7.373  1.00  0.00     0.264 C 
HETATM   10  N   UNL     1      41.985 -16.232   7.410  1.00  0.00    -0.070 N 
HETATM   11  H   UNL     1      42.374 -17.179   7.308  1.00  0.00     0.277 HD
HETATM   12  H   UNL     1      41.560 -16.216   8.350  1.00  0.00     0.277 HD
HETATM   13  C   UNL     1      40.905 -15.979   6.373  1.00  0.00     0.273 C 
HETATM   14  C   UNL     1      40.437 -15.359   3.956  1.00  0.00     0.148 C 
HETATM   15  C   UNL     1      43.857 -16.177   5.125  1.00  0.00     0.058 C 
ENDROOT
BRANCH   1  16
HETATM   16  C   UNL     1      40.144 -15.755   1.530  1.00  0.00     0.145 C 
BRANCH  16  17
HETATM   17  C   UNL     1      40.147 -14.736   0.421  1.00  0.00    -0.043 A 
HETATM   18  C   UNL     1      39.496 -15.001  -0.792  1.00  0.00     0.032 A 
HETATM   19  C   UNL     1      39.548 -14.073  -1.833  1.00  0.00     0.034 A 
HETATM   20  C   UNL     1      40.240 -12.874  -1.679  1.00  0.00     0.024 A 
HETATM   21 CL   UNL     1      38.760 -14.420  -3.323  1.00  0.00    -0.084 Cl
HETATM   22  C   UNL     1      40.881 -12.596  -0.473  1.00  0.00     0.002 A 
HETATM   23  C   UNL     1      40.834 -13.521   0.571  1.00  0.00     0.008 A 
ENDBRANCH  16  17
ENDBRANCH   1  16
TORSDOF 2
ENDMDL
MODEL 7
REMARK VINA RESULT:      -6.9      2.550      3.527
REMARK  2 active torsions:
REMARK  status: ('A' for Active; 'I' for Inactive)
REMARK    1  A    between atoms: C_6  and  C_7 
REMARK    2  A    between atoms: C_7  and  N_8 
ROOT
HETATM    1  N   UNL     1      41.912 -14.597   3.792  1.00  0.00    -0.203 NA
HETATM    2  S   UNL     1      42.835 -13.525   2.849  1.00  0.00     0.219 S 
HETATM    3  O   UNL     1      43.503 -14.273   1.815  1.00  0.00    -0.211 OA
HETATM    4  O   UNL     1      43.517 -12.609   3.738  1.00  0.00    -0.211 OA
HETATM    5  C   UNL     1      41.463 -12.603   2.173  1.00  0.00     0.164 C 
HETATM    6  C   UNL     1      40.219 -13.380   2.572  1.00  0.00     0.116 C 
HETATM    7  O   UNL     1      39.970 -14.229   1.428  1.00  0.00    -0.369 OA
HETATM    8  C   UNL     1      40.158 -13.352   0.296  1.00  0.00     0.149 C 
HETATM    9  C   UNL     1      38.893 -12.473   0.196  1.00  0.00     0.264 C 
HETATM   10  N   UNL     1      38.711 -11.676   1.479  1.00  0.00    -0.070 N 
HETATM   11  H   UNL     1      39.312 -10.840   1.456  1.00  0.00     0.277 HD
HETATM   12  H   UNL     1      37.746 -11.313   1.504  1.00  0.00     0.277 HD
HETATM   13  C   UNL     1      38.968 -12.488   2.736  1.00  0.00     0.273 C 
HETATM   14  C   UNL     1      40.498 -14.180   3.850  1.00  0.00     0.148 C 
HETATM   15  C   UNL     1      41.410 -12.548   0.652  1.00  0.00     0.058 C 
ENDROOT
BRANCH   1  16
HETATM   16  C   UNL     1      42.478 -14.958   5.117  1.00  0.00     0.145 C 
BRANCH  16  17
HETATM   17  C   UNL     1      42.979 -16.374   5.231  1.00  0.00    -0.043 A 
HETATM   18  C   UNL     1      43.353 -17.091   4.086  1.00  0.00     0.032 A 
HETATM   19  C   UNL     1      43.768 -18.419   4.195  1.00  0.00     0.034 A 
HETATM   20  C   UNL     1      43.818 -19.045   5.437  1.00  0.00     0.024 A 
HETATM   21 CL   UNL     1      44.206 -19.292   2.778  1.00  0.00    -0.084 Cl
HETATM   22  C   UNL     1      43.458 -18.337   6.583  1.00  0.00     0.002 A 
HETATM   23  C   UNL     1      43.042 -17.009   6.481  1.00  0.00     0.008 A 
ENDBRANCH  16  17
ENDBRANCH   1  16
TORSDOF 2
ENDMDL
MODEL 8
REMARK VINA RESULT:      -6.8      4.386      6.360
REMARK  2 active torsions:
REMARK  status: ('A' for Active; 'I' for Inactive)
REMARK    1  A    between atoms: C_6  and  C_7 
REMARK    2  A    between atoms: C_7  and  N_8 
ROOT
HETATM    1  N   UNL     1      40.832 -14.583   1.699  1.00  0.00    -0.203 NA
HETATM    2  S   UNL     1      42.065 -15.582   2.307  1.00  0.00     0.219 S 
HETATM    3  O   UNL     1      43.320 -15.174   1.731  1.00  0.00    -0.211 OA
HETATM    4  O   UNL     1      41.590 -16.949   2.297  1.00  0.00    -0.211 OA
HETATM    5  C   UNL     1      41.951 -15.049   4.008  1.00  0.00     0.164 C 
HETATM    6  C   UNL     1      41.023 -13.845   3.992  1.00  0.00     0.116 C 
HETATM    7  O   UNL     1      41.930 -12.722   3.896  1.00  0.00    -0.369 OA
HETATM    8  C   UNL     1      42.977 -13.039   4.840  1.00  0.00     0.149 C 
HETATM    9  C   UNL     1      42.413 -12.746   6.247  1.00  0.00     0.264 C 
HETATM   10  N   UNL     1      41.177 -13.596   6.499  1.00  0.00    -0.070 N 
HETATM   11  H   UNL     1      41.460 -14.542   6.792  1.00  0.00     0.277 HD
HETATM   12  H   UNL     1      40.671 -13.204   7.307  1.00  0.00     0.277 HD
HETATM   13  C   UNL     1      40.237 -13.662   5.308  1.00  0.00     0.273 C 
HETATM   14  C   UNL     1      40.075 -13.940   2.791  1.00  0.00     0.148 C 
HETATM   15  C   UNL     1      43.249 -14.526   4.609  1.00  0.00     0.058 C 
ENDROOT
BRANCH   1  16
HETATM   16  C   UNL     1      39.966 -15.176   0.648  1.00  0.00     0.145 C 
BRANCH  16  17
HETATM   17  C   UNL     1      39.900 -14.394  -0.638  1.00  0.00    -0.043 A 
HETATM   18  C   UNL     1      40.540 -13.152  -0.750  1.00  0.00     0.032 A 
HETATM   19  C   UNL     1      40.431 -12.411  -1.927  1.00  0.00     0.034 A 
HETATM   20  C   UNL     1      39.691 -12.894  -3.003  1.00  0.00     0.024 A 
HETATM   21 CL   UNL     1      41.207 -10.879  -2.043  1.00  0.00    -0.084 Cl
HETATM   22  C   UNL     1      39.060 -14.134  -2.905  1.00  0.00     0.002 A 
HETATM   23  C   UNL     1      39.164 -14.880  -1.730  1.00  0.00     0.008 A 
ENDBRANCH  16  17
ENDBRANCH   1  16
TORSDOF 2
ENDMDL
MODEL 9
REMARK VINA RESULT:      -6.8      2.019      2.469
REMARK  2 active torsions:
REMARK  status: ('A' for Active; 'I' for Inactive)
REMARK    1  A    between atoms: C_6  and  C_7 
REMARK    2  A    between atoms: C_7  and  N_8 
ROOT
HETATM    1  N   UNL     1      42.121 -14.533   3.636  1.00  0.00    -0.203 NA
HETATM    2  S   UNL     1      40.987 -13.700   2.681  1.00  0.00     0.219 S 
HETATM    3  O   UNL     1      39.777 -14.478   2.613  1.00  0.00    -0.211 OA
HETATM    4  O   UNL     1      41.669 -13.182   1.515  1.00  0.00    -0.211 OA
HETATM    5  C   UNL     1      40.776 -12.303   3.773  1.00  0.00     0.164 C 
HETATM    6  C   UNL     1      41.495 -12.681   5.057  1.00  0.00     0.116 C 
HETATM    7  O   UNL     1      40.445 -13.243   5.878  1.00  0.00    -0.369 OA
HETATM    8  C   UNL     1      39.340 -12.330   5.701  1.00  0.00     0.149 C 
HETATM    9  C   UNL     1      39.647 -11.084   6.560  1.00  0.00     0.264 C 
HETATM   10  N   UNL     1      40.954 -10.451   6.108  1.00  0.00    -0.070 N 
HETATM   11  H   UNL     1      40.785  -9.859   5.282  1.00  0.00     0.277 HD
HETATM   12  H   UNL     1      41.274  -9.802   6.843  1.00  0.00     0.277 HD
HETATM   13  C   UNL     1      42.051 -11.464   5.828  1.00  0.00     0.273 C 
HETATM   14  C   UNL     1      42.606 -13.692   4.749  1.00  0.00     0.148 C 
HETATM   15  C   UNL     1      39.341 -12.029   4.201  1.00  0.00     0.058 C 
ENDROOT
BRANCH   1  16
HETATM   16  C   UNL     1      43.208 -15.232   2.905  1.00  0.00     0.145 C 
BRANCH  16  17
HETATM   17  C   UNL     1      43.329 -16.704   3.200  1.00  0.00    -0.043 A 
HETATM   18  C   UNL     1      43.383 -17.162   4.524  1.00  0.00     0.032 A 
HETATM   19  C   UNL     1      43.548 -18.523   4.788  1.00  0.00     0.034 A 
HETATM   20  C   UNL     1      43.656 -19.439   3.745  1.00  0.00     0.024 A 
HETATM   21 CL   UNL     1      43.631 -19.069   6.418  1.00  0.00    -0.084 Cl
HETATM   22  C   UNL     1      43.593 -18.994   2.425  1.00  0.00     0.002 A 
HETATM   23  C   UNL     1      43.429 -17.634   2.154  1.00  0.00     0.008 A 
ENDBRANCH  16  17
ENDBRANCH   1  16
TORSDOF 2
ENDMDL
MODEL 10
REMARK VINA RESULT:      -6.8      4.574      7.490
REMARK  2 active torsions:
REMARK  status: ('A' for Active; 'I' for Inactive)
REMARK    1  A    between atoms: C_6  and  C_7 
REMARK    2  A    between atoms: C_7  and  N_8 
ROOT
HETATM    1  N   UNL     1      42.779 -11.726   5.699  1.00  0.00    -0.203 NA
HETATM    2  S   UNL     1      43.040 -11.374   4.057  1.00  0.00     0.219 S 
HETATM    3  O   UNL     1      44.450 -11.467   3.781  1.00  0.00    -0.211 OA
HETATM    4  O   UNL     1      42.233 -10.226   3.704  1.00  0.00    -0.211 OA
HETATM    5  C   UNL     1      42.175 -12.789   3.396  1.00  0.00     0.164 C 
HETATM    6  C   UNL     1      41.880 -13.677   4.593  1.00  0.00     0.116 C 
HETATM    7  O   UNL     1      42.993 -14.600   4.609  1.00  0.00    -0.369 OA
HETATM    8  C   UNL     1      43.151 -14.980   3.225  1.00  0.00     0.149 C 
HETATM    9  C   UNL     1      42.030 -15.993   2.909  1.00  0.00     0.264 C 
HETATM   10  N   UNL     1      40.670 -15.355   3.147  1.00  0.00    -0.070 N 
HETATM   11  H   UNL     1      40.406 -14.786   2.331  1.00  0.00     0.277 HD
HETATM   12  H   UNL     1      39.961 -16.103   3.193  1.00  0.00     0.277 HD
HETATM   13  C   UNL     1      40.605 -14.531   4.422  1.00  0.00     0.273 C 
HETATM   14  C   UNL     1      41.805 -12.823   5.864  1.00  0.00     0.148 C 
HETATM   15  C   UNL     1      42.993 -13.666   2.458  1.00  0.00     0.058 C 
ENDROOT
BRANCH   1  16
HETATM   16  C   UNL     1      42.518 -10.564   6.586  1.00  0.00     0.145 C 
BRANCH  16  17
HETATM   17  C   UNL     1      43.542 -10.347   7.669  1.00  0.00    -0.043 A 
HETATM   18  C   UNL     1      43.184  -9.728   8.875  1.00  0.00     0.032 A 
HETATM   19  C   UNL     1      44.150  -9.485   9.852  1.00  0.00     0.034 A 
HETATM   20  C   UNL     1      45.476  -9.856   9.644  1.00  0.00     0.024 A 
HETATM   21 CL   UNL     1      43.699  -8.707  11.319  1.00  0.00    -0.084 Cl
HETATM   22  C   UNL     1      45.840 -10.482   8.453  1.00  0.00     0.002 A 
HETATM   23  C   UNL     1      44.879 -10.727   7.472  1.00  0.00     0.008 A 
ENDBRANCH  16  17
ENDBRANCH   1  16
TORSDOF 2
ENDMDL
