MODEL 1
REMARK VINA RESULT:      -7.8      0.000      0.000
REMARK  2 active torsions:
REMARK  status: ('A' for Active; 'I' for Inactive)
REMARK    1  A    between atoms: C_7  and  N_8 
REMARK       I    between atoms: N_8  and  C_9 
REMARK       I    between atoms: C_9  and  N_10 
REMARK    2  A    between atoms: N_10  and  C_11 
ROOT
HETATM    1  C   UNL     1      43.933 -18.216   4.548  1.00  0.00     0.025 A 
HETATM    2  C   UNL     1      43.698 -18.740   3.277  1.00  0.00     0.044 A 
HETATM    3  C   UNL     1      43.876 -20.141   3.025  1.00  0.00     0.099 C 
HETATM    4  N   UNL     1      44.006 -21.273   2.815  1.00  0.00    -0.191 NA
HETATM    5  C   UNL     1      43.261 -17.893   2.255  1.00  0.00     0.025 A 
HETATM    6  C   UNL     1      43.046 -16.531   2.506  1.00  0.00     0.031 A 
HETATM    7  C   UNL     1      43.277 -15.999   3.777  1.00  0.00     0.036 A 
HETATM    8  C   UNL     1      43.723 -16.854   4.794  1.00  0.00     0.031 A 
ENDROOT
BRANCH   7   9
HETATM    9  N   UNL     1      42.988 -14.670   4.149  1.00  0.00    -0.309 N 
HETATM   10  C   UNL     1      42.025 -13.815   3.721  1.00  0.00     0.321 C 
HETATM   11  N   UNL     1      41.647 -13.896   2.421  1.00  0.00    -0.338 N 
HETATM   12  O   UNL     1      41.549 -12.995   4.499  1.00  0.00    -0.247 OA
HETATM   13  H   UNL     1      42.358 -14.290   1.811  1.00  0.00     0.164 HD
HETATM   14  H   UNL     1      43.391 -14.372   5.032  1.00  0.00     0.170 HD
BRANCH  11  15
HETATM   15  C   UNL     1      40.500 -13.246   1.793  1.00  0.00     0.089 C 
HETATM   16  C   UNL     1      39.655 -14.129   0.847  1.00  0.00     0.058 C 
HETATM   17  C   UNL     1      40.095 -14.076  -0.607  1.00  0.00     0.190 C 
HETATM   18  N   UNL     1      40.266 -12.643  -1.038  1.00  0.00    -0.067 N 
HETATM   19  C   UNL     1      39.109 -14.568  -1.652  1.00  0.00     0.035 C 
HETATM   20  H   UNL     1      39.379 -12.144  -0.889  1.00  0.00     0.280 HD
HETATM   21  C   UNL     1      41.333 -11.944  -0.262  1.00  0.00     0.237 C 
HETATM   22  C   UNL     1      40.465 -12.723  -2.528  1.00  0.00     0.235 C 
HETATM   23  C   UNL     1      40.883 -11.883   1.191  1.00  0.00     0.053 C 
HETATM   24  C   UNL     1      39.646 -13.947  -2.945  1.00  0.00     0.030 C 
ENDBRANCH  11  15
ENDBRANCH   7   9
TORSDOF 2
ENDMDL
MODEL 2
REMARK VINA RESULT:      -7.6      1.294      1.533
REMARK  2 active torsions:
REMARK  status: ('A' for Active; 'I' for Inactive)
REMARK    1  A    between atoms: C_7  and  N_8 
REMARK       I    between atoms: N_8  and  C_9 
REMARK       I    between atoms: C_9  and  N_10 
REMARK    2  A    between atoms: N_10  and  C_11 
ROOT
HETATM    1  C   UNL     1      44.205 -18.384   4.241  1.00  0.00     0.025 A 
HETATM    2  C   UNL     1      43.602 -18.616   3.005  1.00  0.00     0.044 A 
HETATM    3  C   UNL     1      43.734 -19.891   2.360  1.00  0.00     0.099 C 
HETATM    4  N   UNL     1      43.825 -20.921   1.837  1.00  0.00    -0.191 NA
HETATM    5  C   UNL     1      42.844 -17.604   2.410  1.00  0.00     0.025 A 
HETATM    6  C   UNL     1      42.678 -16.371   3.055  1.00  0.00     0.031 A 
HETATM    7  C   UNL     1      43.277 -16.132   4.295  1.00  0.00     0.036 A 
HETATM    8  C   UNL     1      44.042 -17.150   4.880  1.00  0.00     0.031 A 
ENDROOT
BRANCH   7   9
HETATM    9  N   UNL     1      43.080 -14.967   5.064  1.00  0.00    -0.309 N 
HETATM   10  C   UNL     1      42.200 -13.942   4.918  1.00  0.00     0.321 C 
HETATM   11  N   UNL     1      41.863 -13.580   3.656  1.00  0.00    -0.338 N 
HETATM   12  O   UNL     1      41.763 -13.371   5.911  1.00  0.00    -0.247 OA
HETATM   13  H   UNL     1      42.562 -13.822   2.959  1.00  0.00     0.164 HD
HETATM   14  H   UNL     1      43.473 -14.995   5.999  1.00  0.00     0.170 HD
BRANCH  11  15
HETATM   15  C   UNL     1      40.792 -12.672   3.255  1.00  0.00     0.089 C 
HETATM   16  C   UNL     1      39.874 -13.169   2.116  1.00  0.00     0.058 C 
HETATM   17  C   UNL     1      40.332 -12.755   0.726  1.00  0.00     0.190 C 
HETATM   18  N   UNL     1      40.648 -11.282   0.709  1.00  0.00    -0.067 N 
HETATM   19  C   UNL     1      39.312 -12.836  -0.397  1.00  0.00     0.035 C 
HETATM   20  H   UNL     1      39.813 -10.761   1.007  1.00  0.00     0.280 HD
HETATM   21  C   UNL     1      41.770 -10.936   1.630  1.00  0.00     0.237 C 
HETATM   22  C   UNL     1      40.853 -10.962  -0.748  1.00  0.00     0.235 C 
HETATM   23  C   UNL     1      41.315 -11.239   3.050  1.00  0.00     0.053 C 
HETATM   24  C   UNL     1      39.922 -11.935  -1.475  1.00  0.00     0.030 C 
ENDBRANCH  11  15
ENDBRANCH   7   9
TORSDOF 2
ENDMDL
MODEL 3
REMARK VINA RESULT:      -7.6      3.247      5.909
REMARK  2 active torsions:
REMARK  status: ('A' for Active; 'I' for Inactive)
REMARK    1  A    between atoms: C_7  and  N_8 
REMARK       I    between atoms: N_8  and  C_9 
REMARK       I    between atoms: C_9  and  N_10 
REMARK    2  A    between atoms: N_10  and  C_11 
ROOT
HETATM    1  C   UNL     1      42.882 -17.226   4.907  1.00  0.00     0.025 A 
HETATM    2  C   UNL     1      43.571 -18.125   4.092  1.00  0.00     0.044 A 
HETATM    3  C   UNL     1      44.119 -19.330   4.642  1.00  0.00     0.099 C 
HETATM    4  N   UNL     1      44.555 -20.313   5.075  1.00  0.00    -0.191 NA
HETATM    5  C   UNL     1      43.701 -17.853   2.728  1.00  0.00     0.025 A 
HETATM    6  C   UNL     1      43.133 -16.696   2.177  1.00  0.00     0.031 A 
HETATM    7  C   UNL     1      42.438 -15.793   2.987  1.00  0.00     0.036 A 
HETATM    8  C   UNL     1      42.320 -16.069   4.355  1.00  0.00     0.031 A 
ENDROOT
BRANCH   7   9
HETATM    9  N   UNL     1      41.745 -14.663   2.506  1.00  0.00    -0.309 N 
HETATM   10  C   UNL     1      42.019 -13.337   2.617  1.00  0.00     0.321 C 
HETATM   11  N   UNL     1      42.615 -12.913   3.759  1.00  0.00    -0.338 N 
HETATM   12  O   UNL     1      41.704 -12.574   1.711  1.00  0.00    -0.247 OA
HETATM   13  H   UNL     1      42.452 -13.520   4.557  1.00  0.00     0.164 HD
HETATM   14  H   UNL     1      41.078 -14.849   1.765  1.00  0.00     0.170 HD
BRANCH  11  15
HETATM   15  C   UNL     1      43.196 -11.598   4.014  1.00  0.00     0.089 C 
HETATM   16  C   UNL     1      44.593 -11.591   4.673  1.00  0.00     0.058 C 
HETATM   17  C   UNL     1      44.562 -11.536   6.192  1.00  0.00     0.190 C 
HETATM   18  N   UNL     1      43.626 -10.447   6.646  1.00  0.00    -0.067 N 
HETATM   19  C   UNL     1      45.840 -11.122   6.902  1.00  0.00     0.035 C 
HETATM   20  H   UNL     1      43.934  -9.555   6.238  1.00  0.00     0.280 HD
HETATM   21  C   UNL     1      42.219 -10.698   6.216  1.00  0.00     0.237 C 
HETATM   22  C   UNL     1      43.866 -10.343   8.129  1.00  0.00     0.235 C 
HETATM   23  C   UNL     1      42.185 -10.658   4.695  1.00  0.00     0.053 C 
HETATM   24  C   UNL     1      45.341 -10.718   8.292  1.00  0.00     0.030 C 
ENDBRANCH  11  15
ENDBRANCH   7   9
TORSDOF 2
ENDMDL
MODEL 4
REMARK VINA RESULT:      -7.2     14.163     17.331
REMARK  2 active torsions:
REMARK  status: ('A' for Active; 'I' for Inactive)
REMARK    1  A    between atoms: C_7  and  N_8 
REMARK       I    between atoms: N_8  and  C_9 
REMARK       I    between atoms: C_9  and  N_10 
REMARK    2  A    between atoms: N_10  and  C_11 
ROOT
HETATM    1  C   UNL     1      45.452 -28.394  -3.247  1.00  0.00     0.025 A 
HETATM    2  C   UNL     1      44.555 -29.446  -3.437  1.00  0.00     0.044 A 
HETATM    3  C   UNL     1      44.238 -29.900  -4.759  1.00  0.00     0.099 C 
HETATM    4  N   UNL     1      43.985 -30.282  -5.824  1.00  0.00    -0.191 NA
HETATM    5  C   UNL     1      43.986 -30.071  -2.324  1.00  0.00     0.025 A 
HETATM    6  C   UNL     1      44.323 -29.658  -1.029  1.00  0.00     0.031 A 
HETATM    7  C   UNL     1      45.223 -28.608  -0.831  1.00  0.00     0.036 A 
HETATM    8  C   UNL     1      45.783 -27.980  -1.952  1.00  0.00     0.031 A 
ENDROOT
BRANCH   7   9
HETATM    9  N   UNL     1      45.702 -28.195   0.430  1.00  0.00    -0.309 N 
HETATM   10  C   UNL     1      46.870 -28.461   1.070  1.00  0.00     0.321 C 
HETATM   11  N   UNL     1      47.428 -29.681   0.875  1.00  0.00    -0.338 N 
HETATM   12  O   UNL     1      47.365 -27.616   1.808  1.00  0.00    -0.247 OA
HETATM   13  H   UNL     1      46.761 -30.399   0.605  1.00  0.00     0.164 HD
HETATM   14  H   UNL     1      45.229 -27.390   0.829  1.00  0.00     0.170 HD
BRANCH  11  15
HETATM   15  C   UNL     1      48.765 -30.113   1.271  1.00  0.00     0.089 C 
HETATM   16  C   UNL     1      49.886 -29.884   0.233  1.00  0.00     0.058 C 
HETATM   17  C   UNL     1      50.115 -31.060  -0.703  1.00  0.00     0.190 C 
HETATM   18  N   UNL     1      50.218 -32.334   0.092  1.00  0.00    -0.067 N 
HETATM   19  C   UNL     1      51.426 -31.098  -1.468  1.00  0.00     0.035 C 
HETATM   20  H   UNL     1      50.981 -32.237   0.776  1.00  0.00     0.280 HD
HETATM   21  C   UNL     1      48.960 -32.640   0.834  1.00  0.00     0.237 C 
HETATM   22  C   UNL     1      50.673 -33.363  -0.909  1.00  0.00     0.235 C 
HETATM   23  C   UNL     1      48.747 -31.535   1.860  1.00  0.00     0.053 C 
HETATM   24  C   UNL     1      51.527 -32.565  -1.897  1.00  0.00     0.030 C 
ENDBRANCH  11  15
ENDBRANCH   7   9
TORSDOF 2
ENDMDL
MODEL 5
REMARK VINA RESULT:      -7.2      3.407      7.181
REMARK  2 active torsions:
REMARK  status: ('A' for Active; 'I' for Inactive)
REMARK    1  A    between atoms: C_7  and  N_8 
REMARK       I    between atoms: N_8  and  C_9 
REMARK       I    between atoms: C_9  and  N_10 
REMARK    2  A    between atoms: N_10  and  C_11 
ROOT
HETATM    1  C   UNL     1      42.853 -10.397   7.257  1.00  0.00     0.025 A 
HETATM    2  C   UNL     1      44.189 -10.750   7.441  1.00  0.00     0.044 A 
HETATM    3  C   UNL     1      44.837 -10.508   8.698  1.00  0.00     0.099 C 
HETATM    4  N   UNL     1      45.366 -10.327   9.713  1.00  0.00    -0.191 NA
HETATM    5  C   UNL     1      44.887 -11.366   6.399  1.00  0.00     0.025 A 
HETATM    6  C   UNL     1      44.247 -11.642   5.183  1.00  0.00     0.031 A 
HETATM    7  C   UNL     1      42.907 -11.294   4.992  1.00  0.00     0.036 A 
HETATM    8  C   UNL     1      42.218 -10.669   6.039  1.00  0.00     0.031 A 
ENDROOT
BRANCH   7   9
HETATM    9  N   UNL     1      42.153 -11.626   3.847  1.00  0.00    -0.309 N 
HETATM   10  C   UNL     1      41.544 -12.785   3.487  1.00  0.00     0.321 C 
HETATM   11  N   UNL     1      42.141 -13.946   3.852  1.00  0.00    -0.338 N 
HETATM   12  O   UNL     1      40.506 -12.749   2.836  1.00  0.00    -0.247 OA
HETATM   13  H   UNL     1      43.142 -13.864   4.004  1.00  0.00     0.164 HD
HETATM   14  H   UNL     1      41.798 -10.834   3.320  1.00  0.00     0.170 HD
BRANCH  11  15
HETATM   15  C   UNL     1      41.576 -15.290   3.774  1.00  0.00     0.089 C 
HETATM   16  C   UNL     1      41.959 -16.254   4.920  1.00  0.00     0.058 C 
HETATM   17  C   UNL     1      43.198 -17.088   4.640  1.00  0.00     0.190 C 
HETATM   18  N   UNL     1      43.097 -17.713   3.274  1.00  0.00    -0.067 N 
HETATM   19  C   UNL     1      43.417 -18.322   5.499  1.00  0.00     0.035 C 
HETATM   20  H   UNL     1      42.239 -18.279   3.232  1.00  0.00     0.280 HD
HETATM   21  C   UNL     1      43.039 -16.691   2.189  1.00  0.00     0.237 C 
HETATM   22  C   UNL     1      44.249 -18.682   3.221  1.00  0.00     0.235 C 
HETATM   23  C   UNL     1      41.753 -15.896   2.370  1.00  0.00     0.053 C 
HETATM   24  C   UNL     1      44.415 -19.138   4.673  1.00  0.00     0.030 C 
ENDBRANCH  11  15
ENDBRANCH   7   9
TORSDOF 2
ENDMDL
MODEL 6
REMARK VINA RESULT:      -7.2     14.750     17.519
REMARK  2 active torsions:
REMARK  status: ('A' for Active; 'I' for Inactive)
REMARK    1  A    between atoms: C_7  and  N_8 
REMARK       I    between atoms: N_8  and  C_9 
REMARK       I    between atoms: C_9  and  N_10 
REMARK    2  A    between atoms: N_10  and  C_11 
ROOT
HETATM    1  C   UNL     1      44.092 -30.704  -5.582  1.00  0.00     0.025 A 
HETATM    2  C   UNL     1      44.174 -32.085  -5.404  1.00  0.00     0.044 A 
HETATM    3  C   UNL     1      44.285 -32.958  -6.536  1.00  0.00     0.099 C 
HETATM    4  N   UNL     1      44.386 -33.670  -7.445  1.00  0.00    -0.191 NA
HETATM    5  C   UNL     1      44.175 -32.611  -4.110  1.00  0.00     0.025 A 
HETATM    6  C   UNL     1      44.108 -31.760  -2.998  1.00  0.00     0.031 A 
HETATM    7  C   UNL     1      44.028 -30.375  -3.169  1.00  0.00     0.036 A 
HETATM    8  C   UNL     1      44.020 -29.857  -4.470  1.00  0.00     0.031 A 
ENDROOT
BRANCH   7   9
HETATM    9  N   UNL     1      44.064 -29.439  -2.115  1.00  0.00    -0.309 N 
HETATM   10  C   UNL     1      45.092 -28.713  -1.604  1.00  0.00     0.321 C 
HETATM   11  N   UNL     1      46.321 -29.286  -1.595  1.00  0.00    -0.338 N 
HETATM   12  O   UNL     1      44.879 -27.593  -1.153  1.00  0.00    -0.247 OA
HETATM   13  H   UNL     1      46.300 -30.301  -1.599  1.00  0.00     0.164 HD
HETATM   14  H   UNL     1      43.163 -29.057  -1.845  1.00  0.00     0.170 HD
BRANCH  11  15
HETATM   15  C   UNL     1      47.595 -28.635  -1.305  1.00  0.00     0.089 C 
HETATM   16  C   UNL     1      48.835 -29.229  -2.010  1.00  0.00     0.058 C 
HETATM   17  C   UNL     1      49.549 -30.304  -1.206  1.00  0.00     0.190 C 
HETATM   18  N   UNL     1      49.772 -29.825   0.205  1.00  0.00    -0.067 N 
HETATM   19  C   UNL     1      50.970 -30.651  -1.612  1.00  0.00     0.035 C 
HETATM   20  H   UNL     1      50.311 -28.949   0.175  1.00  0.00     0.280 HD
HETATM   21  C   UNL     1      48.489 -29.562   0.921  1.00  0.00     0.237 C 
HETATM   22  C   UNL     1      50.678 -30.862   0.812  1.00  0.00     0.235 C 
HETATM   23  C   UNL     1      47.786 -28.416   0.206  1.00  0.00     0.053 C 
HETATM   24  C   UNL     1      51.517 -31.357  -0.368  1.00  0.00     0.030 C 
ENDBRANCH  11  15
ENDBRANCH   7   9
TORSDOF 2
ENDMDL
MODEL 7
REMARK VINA RESULT:      -7.1      2.153      7.546
REMARK  2 active torsions:
REMARK  status: ('A' for Active; 'I' for Inactive)
REMARK    1  A    between atoms: C_7  and  N_8 
REMARK       I    between atoms: N_8  and  C_9 
REMARK       I    between atoms: C_9  and  N_10 
REMARK    2  A    between atoms: N_10  and  C_11 
ROOT
HETATM    1  C   UNL     1      39.549 -11.563  -0.981  1.00  0.00     0.025 A 
HETATM    2  C   UNL     1      39.620 -11.728  -2.364  1.00  0.00     0.044 A 
HETATM    3  C   UNL     1      39.659 -10.585  -3.230  1.00  0.00     0.099 C 
HETATM    4  N   UNL     1      39.703  -9.668  -3.937  1.00  0.00    -0.191 NA
HETATM    5  C   UNL     1      39.679 -13.017  -2.900  1.00  0.00     0.025 A 
HETATM    6  C   UNL     1      39.683 -14.136  -2.057  1.00  0.00     0.031 A 
HETATM    7  C   UNL     1      39.615 -13.979  -0.670  1.00  0.00     0.036 A 
HETATM    8  C   UNL     1      39.547 -12.683  -0.141  1.00  0.00     0.031 A 
ENDROOT
BRANCH   7   9
HETATM    9  N   UNL     1      39.719 -15.037   0.258  1.00  0.00    -0.309 N 
HETATM   10  C   UNL     1      40.704 -15.355   1.137  1.00  0.00     0.321 C 
HETATM   11  N   UNL     1      41.983 -15.098   0.767  1.00  0.00    -0.338 N 
HETATM   12  O   UNL     1      40.416 -15.878   2.208  1.00  0.00    -0.247 OA
HETATM   13  H   UNL     1      42.120 -15.063  -0.239  1.00  0.00     0.164 HD
HETATM   14  H   UNL     1      38.844 -15.494   0.491  1.00  0.00     0.170 HD
BRANCH  11  15
HETATM   15  C   UNL     1      43.172 -15.148   1.612  1.00  0.00     0.089 C 
HETATM   16  C   UNL     1      43.489 -16.516   2.255  1.00  0.00     0.058 C 
HETATM   17  C   UNL     1      42.876 -16.710   3.632  1.00  0.00     0.190 C 
HETATM   18  N   UNL     1      43.159 -15.508   4.493  1.00  0.00    -0.067 N 
HETATM   19  C   UNL     1      43.446 -17.818   4.501  1.00  0.00     0.035 C 
HETATM   20  H   UNL     1      44.177 -15.370   4.545  1.00  0.00     0.280 HD
HETATM   21  C   UNL     1      42.546 -14.263   3.944  1.00  0.00     0.237 C 
HETATM   22  C   UNL     1      42.715 -15.922   5.871  1.00  0.00     0.235 C 
HETATM   23  C   UNL     1      43.209 -13.972   2.605  1.00  0.00     0.053 C 
HETATM   24  C   UNL     1      42.969 -17.431   5.903  1.00  0.00     0.030 C 
ENDBRANCH  11  15
ENDBRANCH   7   9
TORSDOF 2
ENDMDL
MODEL 8
REMARK VINA RESULT:      -7.1      7.042      9.712
REMARK  2 active torsions:
REMARK  status: ('A' for Active; 'I' for Inactive)
REMARK    1  A    between atoms: C_7  and  N_8 
REMARK       I    between atoms: N_8  and  C_9 
REMARK       I    between atoms: C_9  and  N_10 
REMARK    2  A    between atoms: N_10  and  C_11 
ROOT
HETATM    1  C   UNL     1      43.065 -10.596  12.483  1.00  0.00     0.025 A 
HETATM    2  C   UNL     1      42.503  -9.323  12.581  1.00  0.00     0.044 A 
HETATM    3  C   UNL     1      41.557  -9.025  13.616  1.00  0.00     0.099 C 
HETATM    4  N   UNL     1      40.800  -8.771  14.457  1.00  0.00    -0.191 NA
HETATM    5  C   UNL     1      42.889  -8.331  11.676  1.00  0.00     0.025 A 
HETATM    6  C   UNL     1      43.843  -8.605  10.687  1.00  0.00     0.031 A 
HETATM    7  C   UNL     1      44.413  -9.877  10.585  1.00  0.00     0.036 A 
HETATM    8  C   UNL     1      44.014 -10.869  11.491  1.00  0.00     0.031 A 
ENDROOT
BRANCH   7   9
HETATM    9  N   UNL     1      45.454 -10.215   9.695  1.00  0.00    -0.309 N 
HETATM   10  C   UNL     1      45.426 -10.556   8.381  1.00  0.00     0.321 C 
HETATM   11  N   UNL     1      44.355 -11.261   7.939  1.00  0.00    -0.338 N 
HETATM   12  O   UNL     1      46.361 -10.244   7.652  1.00  0.00    -0.247 OA
HETATM   13  H   UNL     1      43.886 -11.793   8.665  1.00  0.00     0.164 HD
HETATM   14  H   UNL     1      46.383  -9.935   9.991  1.00  0.00     0.170 HD
BRANCH  11  15
HETATM   15  C   UNL     1      44.000 -11.548   6.552  1.00  0.00     0.089 C 
HETATM   16  C   UNL     1      42.795 -10.763   5.985  1.00  0.00     0.058 C 
HETATM   17  C   UNL     1      41.460 -11.469   6.155  1.00  0.00     0.190 C 
HETATM   18  N   UNL     1      41.576 -12.899   5.696  1.00  0.00    -0.067 N 
HETATM   19  C   UNL     1      40.304 -10.991   5.294  1.00  0.00     0.035 C 
HETATM   20  H   UNL     1      41.891 -12.909   4.717  1.00  0.00     0.280 HD
HETATM   21  C   UNL     1      42.555 -13.675   6.511  1.00  0.00     0.237 C 
HETATM   22  C   UNL     1      40.157 -13.405   5.692  1.00  0.00     0.235 C 
HETATM   23  C   UNL     1      43.931 -13.063   6.289  1.00  0.00     0.053 C 
HETATM   24  C   UNL     1      39.324 -12.166   5.357  1.00  0.00     0.030 C 
ENDBRANCH  11  15
ENDBRANCH   7   9
TORSDOF 2
ENDMDL
MODEL 9
REMARK VINA RESULT:      -7.0     14.400     15.648
REMARK  2 active torsions:
REMARK  status: ('A' for Active; 'I' for Inactive)
REMARK    1  A    between atoms: C_7  and  N_8 
REMARK       I    between atoms: N_8  and  C_9 
REMARK       I    between atoms: C_9  and  N_10 
REMARK    2  A    between atoms: N_10  and  C_11 
ROOT
HETATM    1  C   UNL     1      43.168 -31.829   3.258  1.00  0.00     0.025 A 
HETATM    2  C   UNL     1      41.983 -31.235   2.823  1.00  0.00     0.044 A 
HETATM    3  C   UNL     1      40.738 -31.940   2.924  1.00  0.00     0.099 C 
HETATM    4  N   UNL     1      39.726 -32.497   3.012  1.00  0.00    -0.191 NA
HETATM    5  C   UNL     1      42.015 -29.935   2.311  1.00  0.00     0.025 A 
HETATM    6  C   UNL     1      43.222 -29.227   2.248  1.00  0.00     0.031 A 
HETATM    7  C   UNL     1      44.413 -29.814   2.684  1.00  0.00     0.036 A 
HETATM    8  C   UNL     1      44.373 -31.121   3.189  1.00  0.00     0.031 A 
ENDROOT
BRANCH   7   9
HETATM    9  N   UNL     1      45.652 -29.144   2.758  1.00  0.00    -0.309 N 
HETATM   10  C   UNL     1      46.492 -28.717   1.781  1.00  0.00     0.321 C 
HETATM   11  N   UNL     1      46.574 -29.465   0.653  1.00  0.00    -0.338 N 
HETATM   12  O   UNL     1      47.156 -27.700   1.952  1.00  0.00    -0.247 OA
HETATM   13  H   UNL     1      46.322 -30.440   0.788  1.00  0.00     0.164 HD
HETATM   14  H   UNL     1      45.845 -28.692   3.646  1.00  0.00     0.170 HD
BRANCH  11  15
HETATM   15  C   UNL     1      47.228 -29.102  -0.601  1.00  0.00     0.089 C 
HETATM   16  C   UNL     1      46.393 -28.240  -1.575  1.00  0.00     0.058 C 
HETATM   17  C   UNL     1      45.588 -29.046  -2.582  1.00  0.00     0.190 C 
HETATM   18  N   UNL     1      46.467 -30.086  -3.225  1.00  0.00    -0.067 N 
HETATM   19  C   UNL     1      45.073 -28.315  -3.809  1.00  0.00     0.035 C 
HETATM   20  H   UNL     1      47.268 -29.614  -3.667  1.00  0.00     0.280 HD
HETATM   21  C   UNL     1      46.992 -31.072  -2.236  1.00  0.00     0.237 C 
HETATM   22  C   UNL     1      45.629 -30.641  -4.346  1.00  0.00     0.235 C 
HETATM   23  C   UNL     1      47.892 -30.321  -1.265  1.00  0.00     0.053 C 
HETATM   24  C   UNL     1      44.760 -29.458  -4.779  1.00  0.00     0.030 C 
ENDBRANCH  11  15
ENDBRANCH   7   9
TORSDOF 2
ENDMDL
MODEL 10
REMARK VINA RESULT:      -6.9      2.281      7.021
REMARK  2 active torsions:
REMARK  status: ('A' for Active; 'I' for Inactive)
REMARK    1  A    between atoms: C_7  and  N_8 
REMARK       I    between atoms: N_8  and  C_9 
REMARK       I    between atoms: C_9  and  N_10 
REMARK    2  A    between atoms: N_10  and  C_11 
ROOT
HETATM    1  C   UNL     1      37.989 -12.873  -2.009  1.00  0.00     0.025 A 
HETATM    2  C   UNL     1      38.809 -13.657  -2.822  1.00  0.00     0.044 A 
HETATM    3  C   UNL     1      38.242 -14.463  -3.863  1.00  0.00     0.099 C 
HETATM    4  N   UNL     1      37.794 -15.109  -4.715  1.00  0.00    -0.191 NA
HETATM    5  C   UNL     1      40.193 -13.629  -2.630  1.00  0.00     0.025 A 
HETATM    6  C   UNL     1      40.756 -12.812  -1.640  1.00  0.00     0.031 A 
HETATM    7  C   UNL     1      39.941 -12.022  -0.824  1.00  0.00     0.036 A 
HETATM    8  C   UNL     1      38.554 -12.062  -1.018  1.00  0.00     0.031 A 
ENDROOT
BRANCH   7   9
HETATM    9  N   UNL     1      40.422 -11.093   0.121  1.00  0.00    -0.309 N 
HETATM   10  C   UNL     1      41.384 -11.208   1.072  1.00  0.00     0.321 C 
HETATM   11  N   UNL     1      41.532 -12.415   1.673  1.00  0.00    -0.338 N 
HETATM   12  O   UNL     1      42.063 -10.232   1.371  1.00  0.00    -0.247 OA
HETATM   13  H   UNL     1      40.694 -12.989   1.652  1.00  0.00     0.164 HD
HETATM   14  H   UNL     1      40.204 -10.122  -0.078  1.00  0.00     0.170 HD
BRANCH  11  15
HETATM   15  C   UNL     1      42.620 -12.837   2.550  1.00  0.00     0.089 C 
HETATM   16  C   UNL     1      43.312 -14.168   2.180  1.00  0.00     0.058 C 
HETATM   17  C   UNL     1      42.704 -15.389   2.850  1.00  0.00     0.190 C 
HETATM   18  N   UNL     1      42.538 -15.134   4.325  1.00  0.00    -0.067 N 
HETATM   19  C   UNL     1      43.540 -16.657   2.878  1.00  0.00     0.035 C 
HETATM   20  H   UNL     1      43.455 -14.895   4.726  1.00  0.00     0.280 HD
HETATM   21  C   UNL     1      41.599 -14.007   4.600  1.00  0.00     0.237 C 
HETATM   22  C   UNL     1      42.160 -16.475   4.896  1.00  0.00     0.235 C 
HETATM   23  C   UNL     1      42.219 -12.738   4.033  1.00  0.00     0.053 C 
HETATM   24  C   UNL     1      42.876 -17.478   3.988  1.00  0.00     0.030 C 
ENDBRANCH  11  15
ENDBRANCH   7   9
TORSDOF 2
ENDMDL
