MODEL 1
REMARK VINA RESULT:      -9.2      0.000      0.000
REMARK  9 active torsions:
REMARK  status: ('A' for Active; 'I' for Inactive)
REMARK    1  A    between atoms: C_3  and  C_4 
REMARK    2  A    between atoms: C_4  and  C_5 
REMARK    3  A    between atoms: C_5  and  N_6 
REMARK       I    between atoms: N_6  and  C_7 
REMARK    4  A    between atoms: C_7  and  C_8 
REMARK    5  A    between atoms: C_8  and  C_9 
REMARK    6  A    between atoms: C_9  and  C_10 
REMARK    7  A    between atoms: C_9  and  C_26 
REMARK    8  A    between atoms: C_14  and  C_15 
REMARK    9  A    between atoms: C_28  and  N_29 
ROOT
HETATM    1  C   UNL     1      40.738 -11.617   1.237  1.00  0.00     0.062 C 
ENDROOT
BRANCH   1   2
HETATM    2  C   UNL     1      42.022 -10.928   1.753  1.00  0.00     0.116 C 
BRANCH   2   3
HETATM    3  C   UNL     1      42.027 -10.593   3.237  1.00  0.00     0.218 C 
HETATM    4  N   UNL     1      43.120 -11.053   3.932  1.00  0.00    -0.361 N 
HETATM    5  H   UNL     1      43.852 -11.547   3.433  1.00  0.00     0.162 HD
HETATM    6  O   UNL     1      41.104  -9.980   3.770  1.00  0.00    -0.274 OA
BRANCH   4   7
HETATM    7  C   UNL     1      43.281 -10.896   5.364  1.00  0.00     0.128 C 
BRANCH   7   8
HETATM    8  C   UNL     1      43.892 -12.122   6.048  1.00  0.00     0.079 C 
BRANCH   8   9
HETATM    9  C   UNL     1      43.035 -13.355   6.211  1.00  0.00     0.035 A 
HETATM   10  C   UNL     1      43.557 -14.592   6.580  1.00  0.00     0.027 A 
HETATM   11  C   UNL     1      42.689 -15.660   6.798  1.00  0.00     0.003 A 
HETATM   12  C   UNL     1      41.321 -15.469   6.666  1.00  0.00     0.019 A 
HETATM   13  C   UNL     1      40.875 -14.210   6.314  1.00  0.00     0.117 A 
HETATM   14  N   UNL     1      41.694 -13.160   6.074  1.00  0.00    -0.266 NA
ENDBRANCH   8   9
ENDBRANCH   7   8
ENDBRANCH   4   7
ENDBRANCH   2   3
ENDBRANCH   1   2
BRANCH   1  15
HETATM   15  C   UNL     1      40.289 -12.784   2.099  1.00  0.00    -0.021 C 
HETATM   16  C   UNL     1      41.190 -13.816   2.559  1.00  0.00    -0.001 A 
HETATM   17  C   UNL     1      40.419 -14.904   2.953  1.00  0.00     0.043 A 
HETATM   18  C   UNL     1      42.586 -13.973   2.531  1.00  0.00     0.015 A 
HETATM   19  C   UNL     1      40.962 -16.178   3.195  1.00  0.00     0.044 A 
HETATM   20  N   UNL     1      39.114 -14.478   2.970  1.00  0.00    -0.365 N 
HETATM   21  C   UNL     1      42.351 -16.369   3.044  1.00  0.00    -0.005 A 
HETATM   22  C   UNL     1      43.140 -15.237   2.768  1.00  0.00     0.015 A 
HETATM   23  H   UNL     1      38.318 -15.070   3.169  1.00  0.00     0.165 HD
HETATM   24  C   UNL     1      39.032 -13.184   2.515  1.00  0.00     0.097 C 
BRANCH  21  25
HETATM   25  C   UNL     1      42.982 -17.714   3.090  1.00  0.00     0.066 A 
HETATM   26  N   UNL     1      42.685 -18.526   2.040  1.00  0.00    -0.260 NA
HETATM   27  C   UNL     1      43.161 -19.789   2.045  1.00  0.00     0.117 A 
HETATM   28  C   UNL     1      43.935 -20.311   3.061  1.00  0.00     0.019 A 
HETATM   29  C   UNL     1      44.250 -19.482   4.129  1.00  0.00     0.004 A 
HETATM   30  C   UNL     1      43.773 -18.170   4.145  1.00  0.00     0.032 A 
ENDBRANCH  21  25
ENDBRANCH   1  15
BRANCH   1  31
HETATM   31  C   UNL     1      40.882 -11.965  -0.242  1.00  0.00    -0.047 A 
HETATM   32  C   UNL     1      40.161 -13.071  -0.737  1.00  0.00     0.043 A 
HETATM   33  C   UNL     1      40.090 -13.321  -2.118  1.00  0.00     0.103 A 
HETATM   34  C   UNL     1      40.763 -12.502  -3.028  1.00  0.00     0.036 A 
HETATM   35  C   UNL     1      41.482 -11.409  -2.553  1.00  0.00     0.003 A 
HETATM   36  C   UNL     1      41.516 -11.133  -1.181  1.00  0.00     0.008 A 
BRANCH  33  37
HETATM   37  N   UNL     1      39.248 -14.416  -2.615  1.00  0.00    -0.116 N 
HETATM   38  O   UNL     1      38.872 -14.366  -3.796  1.00  0.00    -0.532 OA
HETATM   39  O   UNL     1      38.969 -15.334  -1.830  1.00  0.00    -0.532 OA
ENDBRANCH  33  37
ENDBRANCH   1  31
TORSDOF 9
ENDMDL
MODEL 2
REMARK VINA RESULT:      -9.2      2.486      5.906
REMARK  9 active torsions:
REMARK  status: ('A' for Active; 'I' for Inactive)
REMARK    1  A    between atoms: C_3  and  C_4 
REMARK    2  A    between atoms: C_4  and  C_5 
REMARK    3  A    between atoms: C_5  and  N_6 
REMARK       I    between atoms: N_6  and  C_7 
REMARK    4  A    between atoms: C_7  and  C_8 
REMARK    5  A    between atoms: C_8  and  C_9 
REMARK    6  A    between atoms: C_9  and  C_10 
REMARK    7  A    between atoms: C_9  and  C_26 
REMARK    8  A    between atoms: C_14  and  C_15 
REMARK    9  A    between atoms: C_28  and  N_29 
ROOT
HETATM    1  C   UNL     1      41.038 -14.296   2.138  1.00  0.00     0.062 C 
ENDROOT
BRANCH   1   2
HETATM    2  C   UNL     1      40.648 -15.701   2.649  1.00  0.00     0.116 C 
BRANCH   2   3
HETATM    3  C   UNL     1      41.142 -16.045   4.046  1.00  0.00     0.218 C 
HETATM    4  N   UNL     1      42.503 -15.955   4.218  1.00  0.00    -0.361 N 
HETATM    5  H   UNL     1      43.081 -15.647   3.443  1.00  0.00     0.162 HD
HETATM    6  O   UNL     1      40.376 -16.402   4.939  1.00  0.00    -0.274 OA
BRANCH   4   7
HETATM    7  C   UNL     1      43.177 -16.304   5.453  1.00  0.00     0.128 C 
BRANCH   7   8
HETATM    8  C   UNL     1      44.377 -17.235   5.251  1.00  0.00     0.079 C 
BRANCH   8   9
HETATM    9  C   UNL     1      44.186 -18.484   4.424  1.00  0.00     0.035 A 
HETATM   10  C   UNL     1      44.197 -19.762   4.975  1.00  0.00     0.027 A 
HETATM   11  C   UNL     1      43.921 -20.858   4.160  1.00  0.00     0.003 A 
HETATM   12  C   UNL     1      43.619 -20.657   2.821  1.00  0.00     0.019 A 
HETATM   13  C   UNL     1      43.610 -19.359   2.348  1.00  0.00     0.117 A 
HETATM   14  N   UNL     1      43.895 -18.278   3.109  1.00  0.00    -0.266 NA
ENDBRANCH   8   9
ENDBRANCH   7   8
ENDBRANCH   4   7
ENDBRANCH   2   3
ENDBRANCH   1   2
BRANCH   1  15
HETATM   15  C   UNL     1      40.700 -13.182   3.112  1.00  0.00    -0.021 C 
HETATM   16  C   UNL     1      41.706 -12.403   3.799  1.00  0.00    -0.001 A 
HETATM   17  C   UNL     1      41.094 -11.780   4.879  1.00  0.00     0.043 A 
HETATM   18  C   UNL     1      43.104 -12.300   3.683  1.00  0.00     0.015 A 
HETATM   19  C   UNL     1      41.815 -11.169   5.920  1.00  0.00     0.044 A 
HETATM   20  N   UNL     1      39.741 -11.961   4.724  1.00  0.00    -0.365 N 
HETATM   21  C   UNL     1      43.225 -11.175   5.870  1.00  0.00    -0.005 A 
HETATM   22  C   UNL     1      43.835 -11.695   4.713  1.00  0.00     0.015 A 
HETATM   23  H   UNL     1      39.041 -11.661   5.389  1.00  0.00     0.165 HD
HETATM   24  C   UNL     1      39.491 -12.753   3.630  1.00  0.00     0.097 C 
BRANCH  21  25
HETATM   25  C   UNL     1      44.066 -10.727   7.009  1.00  0.00     0.066 A 
HETATM   26  N   UNL     1      43.390 -10.113   8.018  1.00  0.00    -0.260 NA
HETATM   27  C   UNL     1      44.094  -9.613   9.056  1.00  0.00     0.117 A 
HETATM   28  C   UNL     1      45.469  -9.686   9.155  1.00  0.00     0.019 A 
HETATM   29  C   UNL     1      46.160 -10.321   8.133  1.00  0.00     0.004 A 
HETATM   30  C   UNL     1      45.455 -10.851   7.050  1.00  0.00     0.032 A 
ENDBRANCH  21  25
ENDBRANCH   1  15
BRANCH   1  31
HETATM   31  C   UNL     1      40.487 -14.072   0.732  1.00  0.00    -0.047 A 
HETATM   32  C   UNL     1      40.908 -12.924   0.029  1.00  0.00     0.043 A 
HETATM   33  C   UNL     1      40.601 -12.763  -1.333  1.00  0.00     0.103 A 
HETATM   34  C   UNL     1      39.839 -13.718  -2.010  1.00  0.00     0.036 A 
HETATM   35  C   UNL     1      39.412 -14.854  -1.327  1.00  0.00     0.003 A 
HETATM   36  C   UNL     1      39.757 -15.036   0.017  1.00  0.00     0.008 A 
BRANCH  33  37
HETATM   37  N   UNL     1      41.140 -11.612  -2.068  1.00  0.00    -0.116 N 
HETATM   38  O   UNL     1      41.118 -11.656  -3.307  1.00  0.00    -0.532 OA
HETATM   39  O   UNL     1      41.574 -10.656  -1.409  1.00  0.00    -0.532 OA
ENDBRANCH  33  37
ENDBRANCH   1  31
TORSDOF 9
ENDMDL
MODEL 3
REMARK VINA RESULT:      -9.2      2.088      5.156
REMARK  9 active torsions:
REMARK  status: ('A' for Active; 'I' for Inactive)
REMARK    1  A    between atoms: C_3  and  C_4 
REMARK    2  A    between atoms: C_4  and  C_5 
REMARK    3  A    between atoms: C_5  and  N_6 
REMARK       I    between atoms: N_6  and  C_7 
REMARK    4  A    between atoms: C_7  and  C_8 
REMARK    5  A    between atoms: C_8  and  C_9 
REMARK    6  A    between atoms: C_9  and  C_10 
REMARK    7  A    between atoms: C_9  and  C_26 
REMARK    8  A    between atoms: C_14  and  C_15 
REMARK    9  A    between atoms: C_28  and  N_29 
ROOT
HETATM    1  C   UNL     1      40.962 -14.123   1.356  1.00  0.00     0.062 C 
ENDROOT
BRANCH   1   2
HETATM    2  C   UNL     1      40.389 -15.537   1.601  1.00  0.00     0.116 C 
BRANCH   2   3
HETATM    3  C   UNL     1      41.023 -16.304   2.750  1.00  0.00     0.218 C 
HETATM    4  N   UNL     1      42.189 -16.961   2.436  1.00  0.00    -0.361 N 
HETATM    5  H   UNL     1      42.567 -16.878   1.499  1.00  0.00     0.162 HD
HETATM    6  O   UNL     1      40.508 -16.351   3.866  1.00  0.00    -0.274 OA
BRANCH   4   7
HETATM    7  C   UNL     1      42.910 -17.802   3.372  1.00  0.00     0.128 C 
BRANCH   7   8
HETATM    8  C   UNL     1      44.048 -17.073   4.095  1.00  0.00     0.079 C 
BRANCH   8   9
HETATM    9  C   UNL     1      43.748 -16.409   5.418  1.00  0.00     0.035 A 
HETATM   10  C   UNL     1      43.259 -15.109   5.514  1.00  0.00     0.027 A 
HETATM   11  C   UNL     1      42.920 -14.600   6.767  1.00  0.00     0.003 A 
HETATM   12  C   UNL     1      43.054 -15.400   7.891  1.00  0.00     0.019 A 
HETATM   13  C   UNL     1      43.530 -16.686   7.717  1.00  0.00     0.117 A 
HETATM   14  N   UNL     1      43.888 -17.201   6.518  1.00  0.00    -0.266 NA
ENDBRANCH   8   9
ENDBRANCH   7   8
ENDBRANCH   4   7
ENDBRANCH   2   3
ENDBRANCH   1   2
BRANCH   1  15
HETATM   15  C   UNL     1      40.631 -13.136   2.461  1.00  0.00    -0.021 C 
HETATM   16  C   UNL     1      41.638 -12.375   3.166  1.00  0.00    -0.001 A 
HETATM   17  C   UNL     1      41.065 -11.902   4.340  1.00  0.00     0.043 A 
HETATM   18  C   UNL     1      43.018 -12.179   2.979  1.00  0.00     0.015 A 
HETATM   19  C   UNL     1      41.821 -11.360   5.396  1.00  0.00     0.044 A 
HETATM   20  N   UNL     1      39.716 -12.145   4.248  1.00  0.00    -0.365 N 
HETATM   21  C   UNL     1      43.222 -11.279   5.262  1.00  0.00    -0.005 A 
HETATM   22  C   UNL     1      43.782 -11.642   4.023  1.00  0.00     0.015 A 
HETATM   23  H   UNL     1      39.047 -11.955   4.981  1.00  0.00     0.165 HD
HETATM   24  C   UNL     1      39.438 -12.833   3.093  1.00  0.00     0.097 C 
BRANCH  21  25
HETATM   25  C   UNL     1      44.112 -10.903   6.391  1.00  0.00     0.066 A 
HETATM   26  N   UNL     1      43.549 -10.082   7.318  1.00  0.00    -0.260 NA
HETATM   27  C   UNL     1      44.316  -9.637   8.337  1.00  0.00     0.117 A 
HETATM   28  C   UNL     1      45.647  -9.965   8.493  1.00  0.00     0.019 A 
HETATM   29  C   UNL     1      46.221 -10.811   7.554  1.00  0.00     0.004 A 
HETATM   30  C   UNL     1      45.449 -11.288   6.494  1.00  0.00     0.032 A 
ENDBRANCH  21  25
ENDBRANCH   1  15
BRANCH   1  31
HETATM   31  C   UNL     1      40.585 -13.632  -0.039  1.00  0.00    -0.047 A 
HETATM   32  C   UNL     1      39.947 -14.538  -0.912  1.00  0.00     0.043 A 
HETATM   33  C   UNL     1      39.396 -14.096  -2.127  1.00  0.00     0.103 A 
HETATM   34  C   UNL     1      39.501 -12.758  -2.515  1.00  0.00     0.036 A 
HETATM   35  C   UNL     1      40.132 -11.854  -1.665  1.00  0.00     0.003 A 
HETATM   36  C   UNL     1      40.641 -12.285  -0.434  1.00  0.00     0.008 A 
BRANCH  33  37
HETATM   37  N   UNL     1      38.646 -15.037  -2.968  1.00  0.00    -0.116 N 
HETATM   38  O   UNL     1      38.307 -14.658  -4.099  1.00  0.00    -0.532 OA
HETATM   39  O   UNL     1      38.404 -16.162  -2.505  1.00  0.00    -0.532 OA
ENDBRANCH  33  37
ENDBRANCH   1  31
TORSDOF 9
ENDMDL
MODEL 4
REMARK VINA RESULT:      -9.1      2.872      6.535
REMARK  9 active torsions:
REMARK  status: ('A' for Active; 'I' for Inactive)
REMARK    1  A    between atoms: C_3  and  C_4 
REMARK    2  A    between atoms: C_4  and  C_5 
REMARK    3  A    between atoms: C_5  and  N_6 
REMARK       I    between atoms: N_6  and  C_7 
REMARK    4  A    between atoms: C_7  and  C_8 
REMARK    5  A    between atoms: C_8  and  C_9 
REMARK    6  A    between atoms: C_9  and  C_10 
REMARK    7  A    between atoms: C_9  and  C_26 
REMARK    8  A    between atoms: C_14  and  C_15 
REMARK    9  A    between atoms: C_28  and  N_29 
ROOT
HETATM    1  C   UNL     1      42.117 -11.804   5.311  1.00  0.00     0.062 C 
ENDROOT
BRANCH   1   2
HETATM    2  C   UNL     1      41.101 -10.647   5.179  1.00  0.00     0.116 C 
BRANCH   2   3
HETATM    3  C   UNL     1      40.128 -10.767   4.016  1.00  0.00     0.218 C 
HETATM    4  N   UNL     1      40.638 -11.375   2.894  1.00  0.00    -0.361 N 
HETATM    5  H   UNL     1      41.590 -11.726   2.910  1.00  0.00     0.162 HD
HETATM    6  O   UNL     1      38.983 -10.323   4.075  1.00  0.00    -0.274 OA
BRANCH   4   7
HETATM    7  C   UNL     1      39.895 -11.525   1.658  1.00  0.00     0.128 C 
BRANCH   7   8
HETATM    8  C   UNL     1      39.677 -12.986   1.250  1.00  0.00     0.079 C 
BRANCH   8   9
HETATM    9  C   UNL     1      40.707 -14.008   1.667  1.00  0.00     0.035 A 
HETATM   10  C   UNL     1      40.378 -15.325   1.976  1.00  0.00     0.027 A 
HETATM   11  C   UNL     1      41.397 -16.232   2.263  1.00  0.00     0.003 A 
HETATM   12  C   UNL     1      42.719 -15.815   2.216  1.00  0.00     0.019 A 
HETATM   13  C   UNL     1      42.970 -14.497   1.885  1.00  0.00     0.117 A 
HETATM   14  N   UNL     1      42.002 -13.589   1.623  1.00  0.00    -0.266 NA
ENDBRANCH   8   9
ENDBRANCH   7   8
ENDBRANCH   4   7
ENDBRANCH   2   3
ENDBRANCH   1   2
BRANCH   1  15
HETATM   15  C   UNL     1      41.501 -13.096   5.815  1.00  0.00    -0.021 C 
HETATM   16  C   UNL     1      42.240 -14.335   5.914  1.00  0.00    -0.001 A 
HETATM   17  C   UNL     1      41.318 -15.370   6.009  1.00  0.00     0.043 A 
HETATM   18  C   UNL     1      43.599 -14.671   5.778  1.00  0.00     0.015 A 
HETATM   19  C   UNL     1      41.667 -16.723   5.845  1.00  0.00     0.044 A 
HETATM   20  N   UNL     1      40.090 -14.789   6.208  1.00  0.00    -0.365 N 
HETATM   21  C   UNL     1      43.012 -17.055   5.582  1.00  0.00    -0.005 A 
HETATM   22  C   UNL     1      43.960 -16.015   5.612  1.00  0.00     0.015 A 
HETATM   23  H   UNL     1      39.216 -15.295   6.262  1.00  0.00     0.165 HD
HETATM   24  C   UNL     1      40.200 -13.421   6.153  1.00  0.00     0.097 C 
BRANCH  21  25
HETATM   25  C   UNL     1      43.437 -18.428   5.206  1.00  0.00     0.066 A 
HETATM   26  N   UNL     1      43.632 -18.627   3.875  1.00  0.00    -0.260 NA
HETATM   27  C   UNL     1      43.949 -19.867   3.447  1.00  0.00     0.117 A 
HETATM   28  C   UNL     1      44.086 -20.955   4.285  1.00  0.00     0.019 A 
HETATM   29  C   UNL     1      43.898 -20.753   5.646  1.00  0.00     0.004 A 
HETATM   30  C   UNL     1      43.574 -19.479   6.114  1.00  0.00     0.032 A 
ENDBRANCH  21  25
ENDBRANCH   1  15
BRANCH   1  31
HETATM   31  C   UNL     1      43.335 -11.350   6.111  1.00  0.00    -0.047 A 
HETATM   32  C   UNL     1      43.132 -10.899   7.431  1.00  0.00     0.043 A 
HETATM   33  C   UNL     1      44.223 -10.661   8.284  1.00  0.00     0.103 A 
HETATM   34  C   UNL     1      45.534 -10.828   7.831  1.00  0.00     0.036 A 
HETATM   35  C   UNL     1      45.749 -11.268   6.528  1.00  0.00     0.003 A 
HETATM   36  C   UNL     1      44.662 -11.549   5.693  1.00  0.00     0.008 A 
BRANCH  33  37
HETATM   37  N   UNL     1      43.983 -10.294   9.685  1.00  0.00    -0.116 N 
HETATM   38  O   UNL     1      43.949 -11.206  10.524  1.00  0.00    -0.532 OA
HETATM   39  O   UNL     1      43.841  -9.092   9.953  1.00  0.00    -0.532 OA
ENDBRANCH  33  37
ENDBRANCH   1  31
TORSDOF 9
ENDMDL
MODEL 5
REMARK VINA RESULT:      -9.1      3.270      8.132
REMARK  9 active torsions:
REMARK  status: ('A' for Active; 'I' for Inactive)
REMARK    1  A    between atoms: C_3  and  C_4 
REMARK    2  A    between atoms: C_4  and  C_5 
REMARK    3  A    between atoms: C_5  and  N_6 
REMARK       I    between atoms: N_6  and  C_7 
REMARK    4  A    between atoms: C_7  and  C_8 
REMARK    5  A    between atoms: C_8  and  C_9 
REMARK    6  A    between atoms: C_9  and  C_10 
REMARK    7  A    between atoms: C_9  and  C_26 
REMARK    8  A    between atoms: C_14  and  C_15 
REMARK    9  A    between atoms: C_28  and  N_29 
ROOT
HETATM    1  C   UNL     1      41.775 -15.134   3.682  1.00  0.00     0.062 C 
ENDROOT
BRANCH   1   2
HETATM    2  C   UNL     1      40.579 -15.068   2.706  1.00  0.00     0.116 C 
BRANCH   2   3
HETATM    3  C   UNL     1      39.772 -13.780   2.754  1.00  0.00     0.218 C 
HETATM    4  N   UNL     1      39.468 -13.239   1.528  1.00  0.00    -0.361 N 
HETATM    5  H   UNL     1      39.760 -13.724   0.686  1.00  0.00     0.162 HD
HETATM    6  O   UNL     1      39.446 -13.254   3.817  1.00  0.00    -0.274 OA
BRANCH   4   7
HETATM    7  C   UNL     1      38.766 -11.981   1.360  1.00  0.00     0.128 C 
BRANCH   7   8
HETATM    8  C   UNL     1      38.678 -11.521  -0.098  1.00  0.00     0.079 C 
BRANCH   8   9
HETATM    9  C   UNL     1      38.645 -12.572  -1.182  1.00  0.00     0.035 A 
HETATM   10  C   UNL     1      37.499 -12.856  -1.921  1.00  0.00     0.027 A 
HETATM   11  C   UNL     1      37.573 -13.775  -2.966  1.00  0.00     0.003 A 
HETATM   12  C   UNL     1      38.787 -14.374  -3.266  1.00  0.00     0.019 A 
HETATM   13  C   UNL     1      39.885 -14.031  -2.501  1.00  0.00     0.117 A 
HETATM   14  N   UNL     1      39.840 -13.160  -1.467  1.00  0.00    -0.266 NA
ENDBRANCH   8   9
ENDBRANCH   7   8
ENDBRANCH   4   7
ENDBRANCH   2   3
ENDBRANCH   1   2
BRANCH   1  15
HETATM   15  C   UNL     1      42.631 -13.880   3.677  1.00  0.00    -0.021 C 
HETATM   16  C   UNL     1      43.335 -13.402   4.846  1.00  0.00    -0.001 A 
HETATM   17  C   UNL     1      43.667 -12.072   4.624  1.00  0.00     0.043 A 
HETATM   18  C   UNL     1      43.580 -13.940   6.121  1.00  0.00     0.015 A 
HETATM   19  C   UNL     1      44.110 -11.213   5.645  1.00  0.00     0.044 A 
HETATM   20  N   UNL     1      43.406 -11.814   3.300  1.00  0.00    -0.365 N 
HETATM   21  C   UNL     1      44.236 -11.718   6.956  1.00  0.00    -0.005 A 
HETATM   22  C   UNL     1      44.020 -13.095   7.149  1.00  0.00     0.015 A 
HETATM   23  H   UNL     1      43.501 -10.909   2.861  1.00  0.00     0.165 HD
HETATM   24  C   UNL     1      42.838 -12.916   2.707  1.00  0.00     0.097 C 
BRANCH  21  25
HETATM   25  C   UNL     1      44.510 -10.844   8.126  1.00  0.00     0.066 A 
HETATM   26  N   UNL     1      43.914 -11.231   9.286  1.00  0.00    -0.260 NA
HETATM   27  C   UNL     1      44.056 -10.449  10.377  1.00  0.00     0.117 A 
HETATM   28  C   UNL     1      44.772  -9.269  10.386  1.00  0.00     0.019 A 
HETATM   29  C   UNL     1      45.390  -8.877   9.206  1.00  0.00     0.004 A 
HETATM   30  C   UNL     1      45.263  -9.671   8.065  1.00  0.00     0.032 A 
ENDBRANCH  21  25
ENDBRANCH   1  15
BRANCH   1  31
HETATM   31  C   UNL     1      42.568 -16.420   3.461  1.00  0.00    -0.047 A 
HETATM   32  C   UNL     1      42.941 -17.173   4.594  1.00  0.00     0.043 A 
HETATM   33  C   UNL     1      43.490 -18.458   4.453  1.00  0.00     0.103 A 
HETATM   34  C   UNL     1      43.714 -19.004   3.186  1.00  0.00     0.036 A 
HETATM   35  C   UNL     1      43.356 -18.270   2.059  1.00  0.00     0.003 A 
HETATM   36  C   UNL     1      42.766 -17.008   2.201  1.00  0.00     0.008 A 
BRANCH  33  37
HETATM   37  N   UNL     1      43.772 -19.263   5.648  1.00  0.00    -0.116 N 
HETATM   38  O   UNL     1      44.343 -20.352   5.490  1.00  0.00    -0.532 OA
HETATM   39  O   UNL     1      43.434 -18.803   6.749  1.00  0.00    -0.532 OA
ENDBRANCH  33  37
ENDBRANCH   1  31
TORSDOF 9
ENDMDL
MODEL 6
REMARK VINA RESULT:      -9.0      2.692      6.593
REMARK  9 active torsions:
REMARK  status: ('A' for Active; 'I' for Inactive)
REMARK    1  A    between atoms: C_3  and  C_4 
REMARK    2  A    between atoms: C_4  and  C_5 
REMARK    3  A    between atoms: C_5  and  N_6 
REMARK       I    between atoms: N_6  and  C_7 
REMARK    4  A    between atoms: C_7  and  C_8 
REMARK    5  A    between atoms: C_8  and  C_9 
REMARK    6  A    between atoms: C_9  and  C_10 
REMARK    7  A    between atoms: C_9  and  C_26 
REMARK    8  A    between atoms: C_14  and  C_15 
REMARK    9  A    between atoms: C_28  and  N_29 
ROOT
HETATM    1  C   UNL     1      41.951 -11.323   5.263  1.00  0.00     0.062 C 
ENDROOT
BRANCH   1   2
HETATM    2  C   UNL     1      41.144 -10.548   4.197  1.00  0.00     0.116 C 
BRANCH   2   3
HETATM    3  C   UNL     1      41.353 -11.008   2.763  1.00  0.00     0.218 C 
HETATM    4  N   UNL     1      40.278 -11.651   2.197  1.00  0.00    -0.361 N 
HETATM    5  H   UNL     1      39.424 -11.755   2.734  1.00  0.00     0.162 HD
HETATM    6  O   UNL     1      42.418 -10.839   2.173  1.00  0.00    -0.274 OA
BRANCH   4   7
HETATM    7  C   UNL     1      40.300 -12.225   0.865  1.00  0.00     0.128 C 
BRANCH   7   8
HETATM    8  C   UNL     1      40.021 -13.731   0.844  1.00  0.00     0.079 C 
BRANCH   8   9
HETATM    9  C   UNL     1      41.056 -14.660   1.432  1.00  0.00     0.035 A 
HETATM   10  C   UNL     1      40.755 -15.952   1.854  1.00  0.00     0.027 A 
HETATM   11  C   UNL     1      41.784 -16.780   2.300  1.00  0.00     0.003 A 
HETATM   12  C   UNL     1      43.090 -16.313   2.296  1.00  0.00     0.019 A 
HETATM   13  C   UNL     1      43.315 -15.026   1.847  1.00  0.00     0.117 A 
HETATM   14  N   UNL     1      42.335 -14.191   1.429  1.00  0.00    -0.266 NA
ENDBRANCH   8   9
ENDBRANCH   7   8
ENDBRANCH   4   7
ENDBRANCH   2   3
ENDBRANCH   1   2
BRANCH   1  15
HETATM   15  C   UNL     1      41.279 -12.606   5.717  1.00  0.00    -0.021 C 
HETATM   16  C   UNL     1      42.012 -13.815   6.022  1.00  0.00    -0.001 A 
HETATM   17  C   UNL     1      41.110 -14.871   6.004  1.00  0.00     0.043 A 
HETATM   18  C   UNL     1      43.378 -14.115   6.160  1.00  0.00     0.015 A 
HETATM   19  C   UNL     1      41.511 -16.219   5.985  1.00  0.00     0.044 A 
HETATM   20  N   UNL     1      39.854 -14.319   5.939  1.00  0.00    -0.365 N 
HETATM   21  C   UNL     1      42.889 -16.522   5.995  1.00  0.00    -0.005 A 
HETATM   22  C   UNL     1      43.792 -15.453   6.141  1.00  0.00     0.015 A 
HETATM   23  H   UNL     1      38.997 -14.848   5.858  1.00  0.00     0.165 HD
HETATM   24  C   UNL     1      39.944 -12.953   5.827  1.00  0.00     0.097 C 
BRANCH  21  25
HETATM   25  C   UNL     1      43.405 -17.900   5.784  1.00  0.00     0.066 A 
HETATM   26  N   UNL     1      44.136 -18.073   4.650  1.00  0.00    -0.260 NA
HETATM   27  C   UNL     1      44.579 -19.313   4.350  1.00  0.00     0.117 A 
HETATM   28  C   UNL     1      44.330 -20.424   5.130  1.00  0.00     0.019 A 
HETATM   29  C   UNL     1      43.593 -20.248   6.294  1.00  0.00     0.004 A 
HETATM   30  C   UNL     1      43.127 -18.976   6.628  1.00  0.00     0.032 A 
ENDBRANCH  21  25
ENDBRANCH   1  15
BRANCH   1  31
HETATM   31  C   UNL     1      42.342 -10.395   6.410  1.00  0.00    -0.047 A 
HETATM   32  C   UNL     1      43.618 -10.553   6.988  1.00  0.00     0.043 A 
HETATM   33  C   UNL     1      44.115  -9.609   7.902  1.00  0.00     0.103 A 
HETATM   34  C   UNL     1      43.339  -8.513   8.289  1.00  0.00     0.036 A 
HETATM   35  C   UNL     1      42.075  -8.347   7.730  1.00  0.00     0.003 A 
HETATM   36  C   UNL     1      41.599  -9.262   6.785  1.00  0.00     0.008 A 
BRANCH  33  37
HETATM   37  N   UNL     1      45.487  -9.740   8.408  1.00  0.00    -0.116 N 
HETATM   38  O   UNL     1      45.838 -10.844   8.848  1.00  0.00    -0.532 OA
HETATM   39  O   UNL     1      46.221  -8.741   8.356  1.00  0.00    -0.532 OA
ENDBRANCH  33  37
ENDBRANCH   1  31
TORSDOF 9
ENDMDL
MODEL 7
REMARK VINA RESULT:      -9.0      2.067      5.547
REMARK  9 active torsions:
REMARK  status: ('A' for Active; 'I' for Inactive)
REMARK    1  A    between atoms: C_3  and  C_4 
REMARK    2  A    between atoms: C_4  and  C_5 
REMARK    3  A    between atoms: C_5  and  N_6 
REMARK       I    between atoms: N_6  and  C_7 
REMARK    4  A    between atoms: C_7  and  C_8 
REMARK    5  A    between atoms: C_8  and  C_9 
REMARK    6  A    between atoms: C_9  and  C_10 
REMARK    7  A    between atoms: C_9  and  C_26 
REMARK    8  A    between atoms: C_14  and  C_15 
REMARK    9  A    between atoms: C_28  and  N_29 
ROOT
HETATM    1  C   UNL     1      41.043 -13.901   1.271  1.00  0.00     0.062 C 
ENDROOT
BRANCH   1   2
HETATM    2  C   UNL     1      40.526 -15.310   1.639  1.00  0.00     0.116 C 
BRANCH   2   3
HETATM    3  C   UNL     1      40.868 -15.781   3.044  1.00  0.00     0.218 C 
HETATM    4  N   UNL     1      42.189 -15.642   3.397  1.00  0.00    -0.361 N 
HETATM    5  H   UNL     1      42.836 -15.222   2.738  1.00  0.00     0.162 HD
HETATM    6  O   UNL     1      40.024 -16.274   3.790  1.00  0.00    -0.274 OA
BRANCH   4   7
HETATM    7  C   UNL     1      42.729 -16.092   4.665  1.00  0.00     0.128 C 
BRANCH   7   8
HETATM    8  C   UNL     1      44.006 -16.927   4.523  1.00  0.00     0.079 C 
BRANCH   8   9
HETATM    9  C   UNL     1      43.875 -18.375   4.115  1.00  0.00     0.035 A 
HETATM   10  C   UNL     1      43.598 -18.768   2.808  1.00  0.00     0.027 A 
HETATM   11  C   UNL     1      43.584 -20.125   2.493  1.00  0.00     0.003 A 
HETATM   12  C   UNL     1      43.866 -21.060   3.478  1.00  0.00     0.019 A 
HETATM   13  C   UNL     1      44.148 -20.596   4.749  1.00  0.00     0.117 A 
HETATM   14  N   UNL     1      44.148 -19.287   5.090  1.00  0.00    -0.266 NA
ENDBRANCH   8   9
ENDBRANCH   7   8
ENDBRANCH   4   7
ENDBRANCH   2   3
ENDBRANCH   1   2
BRANCH   1  15
HETATM   15  C   UNL     1      40.716 -12.845   2.313  1.00  0.00    -0.021 C 
HETATM   16  C   UNL     1      41.726 -12.174   3.099  1.00  0.00    -0.001 A 
HETATM   17  C   UNL     1      41.096 -11.601   4.196  1.00  0.00     0.043 A 
HETATM   18  C   UNL     1      43.131 -12.137   3.050  1.00  0.00     0.015 A 
HETATM   19  C   UNL     1      41.798 -11.107   5.310  1.00  0.00     0.044 A 
HETATM   20  N   UNL     1      39.745 -11.698   3.971  1.00  0.00    -0.365 N 
HETATM   21  C   UNL     1      43.206 -11.184   5.320  1.00  0.00    -0.005 A 
HETATM   22  C   UNL     1      43.843 -11.650   4.154  1.00  0.00     0.015 A 
HETATM   23  H   UNL     1      39.031 -11.411   4.627  1.00  0.00     0.165 HD
HETATM   24  C   UNL     1      39.507 -12.393   2.810  1.00  0.00     0.097 C 
BRANCH  21  25
HETATM   25  C   UNL     1      44.016 -10.868   6.525  1.00  0.00     0.066 A 
HETATM   26  N   UNL     1      43.347 -10.212   7.511  1.00  0.00    -0.260 NA
HETATM   27  C   UNL     1      44.032  -9.825   8.608  1.00  0.00     0.117 A 
HETATM   28  C   UNL     1      45.380 -10.053   8.790  1.00  0.00     0.019 A 
HETATM   29  C   UNL     1      46.063 -10.732   7.789  1.00  0.00     0.004 A 
HETATM   30  C   UNL     1      45.377 -11.147   6.647  1.00  0.00     0.032 A 
ENDBRANCH  21  25
ENDBRANCH   1  15
BRANCH   1  31
HETATM   31  C   UNL     1      40.603 -13.527  -0.142  1.00  0.00    -0.047 A 
HETATM   32  C   UNL     1      39.958 -14.512  -0.919  1.00  0.00     0.043 A 
HETATM   33  C   UNL     1      39.351 -14.177  -2.142  1.00  0.00     0.103 A 
HETATM   34  C   UNL     1      39.408 -12.870  -2.633  1.00  0.00     0.036 A 
HETATM   35  C   UNL     1      40.047 -11.890  -1.879  1.00  0.00     0.003 A 
HETATM   36  C   UNL     1      40.610 -12.214  -0.639  1.00  0.00     0.008 A 
BRANCH  33  37
HETATM   37  N   UNL     1      38.596 -15.196  -2.880  1.00  0.00    -0.116 N 
HETATM   38  O   UNL     1      38.201 -14.910  -4.020  1.00  0.00    -0.532 OA
HETATM   39  O   UNL     1      38.405 -16.290  -2.327  1.00  0.00    -0.532 OA
ENDBRANCH  33  37
ENDBRANCH   1  31
TORSDOF 9
ENDMDL
MODEL 8
REMARK VINA RESULT:      -8.9      1.627      2.639
REMARK  9 active torsions:
REMARK  status: ('A' for Active; 'I' for Inactive)
REMARK    1  A    between atoms: C_3  and  C_4 
REMARK    2  A    between atoms: C_4  and  C_5 
REMARK    3  A    between atoms: C_5  and  N_6 
REMARK       I    between atoms: N_6  and  C_7 
REMARK    4  A    between atoms: C_7  and  C_8 
REMARK    5  A    between atoms: C_8  and  C_9 
REMARK    6  A    between atoms: C_9  and  C_10 
REMARK    7  A    between atoms: C_9  and  C_26 
REMARK    8  A    between atoms: C_14  and  C_15 
REMARK    9  A    between atoms: C_28  and  N_29 
ROOT
HETATM    1  C   UNL     1      39.429 -12.554   1.794  1.00  0.00     0.062 C 
ENDROOT
BRANCH   1   2
HETATM    2  C   UNL     1      39.038 -11.447   2.799  1.00  0.00     0.116 C 
BRANCH   2   3
HETATM    3  C   UNL     1      39.607 -11.612   4.199  1.00  0.00     0.218 C 
HETATM    4  N   UNL     1      39.385 -12.840   4.775  1.00  0.00    -0.361 N 
HETATM    5  H   UNL     1      38.899 -13.555   4.245  1.00  0.00     0.162 HD
HETATM    6  O   UNL     1      40.195 -10.699   4.776  1.00  0.00    -0.274 OA
BRANCH   4   7
HETATM    7  C   UNL     1      39.788 -13.174   6.128  1.00  0.00     0.128 C 
BRANCH   7   8
HETATM    8  C   UNL     1      40.133 -14.655   6.314  1.00  0.00     0.079 C 
BRANCH   8   9
HETATM    9  C   UNL     1      41.588 -15.044   6.423  1.00  0.00     0.035 A 
HETATM   10  C   UNL     1      42.623 -14.216   5.999  1.00  0.00     0.027 A 
HETATM   11  C   UNL     1      43.943 -14.608   6.218  1.00  0.00     0.003 A 
HETATM   12  C   UNL     1      44.203 -15.803   6.871  1.00  0.00     0.019 A 
HETATM   13  C   UNL     1      43.125 -16.566   7.277  1.00  0.00     0.117 A 
HETATM   14  N   UNL     1      41.834 -16.223   7.060  1.00  0.00    -0.266 NA
ENDBRANCH   8   9
ENDBRANCH   7   8
ENDBRANCH   4   7
ENDBRANCH   2   3
ENDBRANCH   1   2
BRANCH   1  15
HETATM   15  C   UNL     1      40.891 -12.957   1.875  1.00  0.00    -0.021 C 
HETATM   16  C   UNL     1      41.334 -14.331   1.799  1.00  0.00    -0.001 A 
HETATM   17  C   UNL     1      42.629 -14.385   2.302  1.00  0.00     0.043 A 
HETATM   18  C   UNL     1      40.695 -15.545   1.491  1.00  0.00     0.015 A 
HETATM   19  C   UNL     1      43.271 -15.591   2.635  1.00  0.00     0.044 A 
HETATM   20  N   UNL     1      43.051 -13.086   2.446  1.00  0.00    -0.365 N 
HETATM   21  C   UNL     1      42.582 -16.807   2.445  1.00  0.00    -0.005 A 
HETATM   22  C   UNL     1      41.322 -16.753   1.819  1.00  0.00     0.015 A 
HETATM   23  H   UNL     1      43.939 -12.811   2.844  1.00  0.00     0.165 HD
HETATM   24  C   UNL     1      42.032 -12.219   2.134  1.00  0.00     0.097 C 
BRANCH  21  25
HETATM   25  C   UNL     1      43.102 -18.106   2.944  1.00  0.00     0.066 A 
HETATM   26  N   UNL     1      43.681 -18.060   4.174  1.00  0.00    -0.260 NA
HETATM   27  C   UNL     1      44.243 -19.185   4.666  1.00  0.00     0.117 A 
HETATM   28  C   UNL     1      44.268 -20.387   3.989  1.00  0.00     0.019 A 
HETATM   29  C   UNL     1      43.668 -20.440   2.738  1.00  0.00     0.004 A 
HETATM   30  C   UNL     1      43.076 -19.292   2.209  1.00  0.00     0.032 A 
ENDBRANCH  21  25
ENDBRANCH   1  15
BRANCH   1  31
HETATM   31  C   UNL     1      38.973 -12.177   0.387  1.00  0.00    -0.047 A 
HETATM   32  C   UNL     1      39.549 -12.860  -0.704  1.00  0.00     0.043 A 
HETATM   33  C   UNL     1      39.032 -12.706  -2.002  1.00  0.00     0.103 A 
HETATM   34  C   UNL     1      37.960 -11.844  -2.246  1.00  0.00     0.036 A 
HETATM   35  C   UNL     1      37.385 -11.159  -1.179  1.00  0.00     0.003 A 
HETATM   36  C   UNL     1      37.870 -11.348   0.120  1.00  0.00     0.008 A 
BRANCH  33  37
HETATM   37  N   UNL     1      39.582 -13.508  -3.102  1.00  0.00    -0.116 N 
HETATM   38  O   UNL     1      40.786 -13.377  -3.367  1.00  0.00    -0.532 OA
HETATM   39  O   UNL     1      38.813 -14.278  -3.696  1.00  0.00    -0.532 OA
ENDBRANCH  33  37
ENDBRANCH   1  31
TORSDOF 9
ENDMDL
MODEL 9
REMARK VINA RESULT:      -8.8      2.978      7.352
REMARK  9 active torsions:
REMARK  status: ('A' for Active; 'I' for Inactive)
REMARK    1  A    between atoms: C_3  and  C_4 
REMARK    2  A    between atoms: C_4  and  C_5 
REMARK    3  A    between atoms: C_5  and  N_6 
REMARK       I    between atoms: N_6  and  C_7 
REMARK    4  A    between atoms: C_7  and  C_8 
REMARK    5  A    between atoms: C_8  and  C_9 
REMARK    6  A    between atoms: C_9  and  C_10 
REMARK    7  A    between atoms: C_9  and  C_26 
REMARK    8  A    between atoms: C_14  and  C_15 
REMARK    9  A    between atoms: C_28  and  N_29 
ROOT
HETATM    1  C   UNL     1      41.542 -15.844   2.674  1.00  0.00     0.062 C 
ENDROOT
BRANCH   1   2
HETATM    2  C   UNL     1      42.027 -15.217   1.347  1.00  0.00     0.116 C 
BRANCH   2   3
HETATM    3  C   UNL     1      40.937 -14.602   0.484  1.00  0.00     0.218 C 
HETATM    4  N   UNL     1      41.290 -13.437  -0.154  1.00  0.00    -0.361 N 
HETATM    5  H   UNL     1      42.233 -13.078  -0.043  1.00  0.00     0.162 HD
HETATM    6  O   UNL     1      39.817 -15.102   0.392  1.00  0.00    -0.274 OA
BRANCH   4   7
HETATM    7  C   UNL     1      40.375 -12.661  -0.968  1.00  0.00     0.128 C 
BRANCH   7   8
HETATM    8  C   UNL     1      40.161 -11.234  -0.454  1.00  0.00     0.079 C 
BRANCH   8   9
HETATM    9  C   UNL     1      40.155 -11.002   1.038  1.00  0.00     0.035 A 
HETATM   10  C   UNL     1      41.084 -10.186   1.677  1.00  0.00     0.027 A 
HETATM   11  C   UNL     1      40.956  -9.949   3.045  1.00  0.00     0.003 A 
HETATM   12  C   UNL     1      39.896 -10.510   3.741  1.00  0.00     0.019 A 
HETATM   13  C   UNL     1      39.004 -11.295   3.037  1.00  0.00     0.117 A 
HETATM   14  N   UNL     1      39.113 -11.561   1.715  1.00  0.00    -0.266 NA
ENDBRANCH   8   9
ENDBRANCH   7   8
ENDBRANCH   4   7
ENDBRANCH   2   3
ENDBRANCH   1   2
BRANCH   1  15
HETATM   15  C   UNL     1      41.060 -14.821   3.687  1.00  0.00    -0.021 C 
HETATM   16  C   UNL     1      41.860 -13.695   4.112  1.00  0.00    -0.001 A 
HETATM   17  C   UNL     1      41.317 -13.215   5.297  1.00  0.00     0.043 A 
HETATM   18  C   UNL     1      43.078 -13.147   3.674  1.00  0.00     0.015 A 
HETATM   19  C   UNL     1      41.991 -12.308   6.135  1.00  0.00     0.044 A 
HETATM   20  N   UNL     1      40.109 -13.846   5.463  1.00  0.00    -0.365 N 
HETATM   21  C   UNL     1      43.271 -11.851   5.759  1.00  0.00    -0.005 A 
HETATM   22  C   UNL     1      43.760 -12.243   4.499  1.00  0.00     0.015 A 
HETATM   23  H   UNL     1      39.508 -13.735   6.269  1.00  0.00     0.165 HD
HETATM   24  C   UNL     1      39.918 -14.771   4.466  1.00  0.00     0.097 C 
BRANCH  21  25
HETATM   25  C   UNL     1      44.131 -11.050   6.667  1.00  0.00     0.066 A 
HETATM   26  N   UNL     1      43.491 -10.052   7.335  1.00  0.00    -0.260 NA
HETATM   27  C   UNL     1      44.219  -9.233   8.125  1.00  0.00     0.117 A 
HETATM   28  C   UNL     1      45.584  -9.346   8.294  1.00  0.00     0.019 A 
HETATM   29  C   UNL     1      46.238 -10.370   7.622  1.00  0.00     0.004 A 
HETATM   30  C   UNL     1      45.508 -11.233   6.803  1.00  0.00     0.032 A 
ENDBRANCH  21  25
ENDBRANCH   1  15
BRANCH   1  31
HETATM   31  C   UNL     1      42.595 -16.803   3.223  1.00  0.00    -0.047 A 
HETATM   32  C   UNL     1      42.690 -16.956   4.622  1.00  0.00     0.043 A 
HETATM   33  C   UNL     1      43.493 -17.965   5.181  1.00  0.00     0.103 A 
HETATM   34  C   UNL     1      44.245 -18.813   4.364  1.00  0.00     0.036 A 
HETATM   35  C   UNL     1      44.165 -18.670   2.982  1.00  0.00     0.003 A 
HETATM   36  C   UNL     1      43.330 -17.695   2.424  1.00  0.00     0.008 A 
BRANCH  33  37
HETATM   37  N   UNL     1      43.492 -18.171   6.634  1.00  0.00    -0.116 N 
HETATM   38  O   UNL     1      43.716 -17.190   7.357  1.00  0.00    -0.532 OA
HETATM   39  O   UNL     1      43.256 -19.313   7.057  1.00  0.00    -0.532 OA
ENDBRANCH  33  37
ENDBRANCH   1  31
TORSDOF 9
ENDMDL
MODEL 10
REMARK VINA RESULT:      -8.6      3.284      6.930
REMARK  9 active torsions:
REMARK  status: ('A' for Active; 'I' for Inactive)
REMARK    1  A    between atoms: C_3  and  C_4 
REMARK    2  A    between atoms: C_4  and  C_5 
REMARK    3  A    between atoms: C_5  and  N_6 
REMARK       I    between atoms: N_6  and  C_7 
REMARK    4  A    between atoms: C_7  and  C_8 
REMARK    5  A    between atoms: C_8  and  C_9 
REMARK    6  A    between atoms: C_9  and  C_10 
REMARK    7  A    between atoms: C_9  and  C_26 
REMARK    8  A    between atoms: C_14  and  C_15 
REMARK    9  A    between atoms: C_28  and  N_29 
ROOT
HETATM    1  C   UNL     1      42.877 -14.710   5.258  1.00  0.00     0.062 C 
ENDROOT
BRANCH   1   2
HETATM    2  C   UNL     1      43.422 -13.869   6.435  1.00  0.00     0.116 C 
BRANCH   2   3
HETATM    3  C   UNL     1      44.107 -12.570   6.041  1.00  0.00     0.218 C 
HETATM    4  N   UNL     1      45.018 -12.095   6.955  1.00  0.00    -0.361 N 
HETATM    5  H   UNL     1      45.201 -12.631   7.796  1.00  0.00     0.162 HD
HETATM    6  O   UNL     1      43.838 -11.981   4.996  1.00  0.00    -0.274 OA
BRANCH   4   7
HETATM    7  C   UNL     1      45.727 -10.839   6.798  1.00  0.00     0.128 C 
BRANCH   7   8
HETATM    8  C   UNL     1      46.040 -10.146   8.128  1.00  0.00     0.079 C 
BRANCH   8   9
HETATM    9  C   UNL     1      44.899  -9.864   9.076  1.00  0.00     0.035 A 
HETATM   10  C   UNL     1      45.084  -9.681  10.444  1.00  0.00     0.027 A 
HETATM   11  C   UNL     1      43.993  -9.334  11.239  1.00  0.00     0.003 A 
HETATM   12  C   UNL     1      42.748  -9.156  10.653  1.00  0.00     0.019 A 
HETATM   13  C   UNL     1      42.644  -9.339   9.288  1.00  0.00     0.117 A 
HETATM   14  N   UNL     1      43.679  -9.696   8.494  1.00  0.00    -0.266 NA
ENDBRANCH   8   9
ENDBRANCH   7   8
ENDBRANCH   4   7
ENDBRANCH   2   3
ENDBRANCH   1   2
BRANCH   1  15
HETATM   15  C   UNL     1      41.485 -14.298   4.813  1.00  0.00    -0.021 C 
HETATM   16  C   UNL     1      41.038 -14.384   3.441  1.00  0.00    -0.001 A 
HETATM   17  C   UNL     1      39.915 -13.577   3.312  1.00  0.00     0.043 A 
HETATM   18  C   UNL     1      41.579 -14.955   2.276  1.00  0.00     0.015 A 
HETATM   19  C   UNL     1      39.380 -13.204   2.065  1.00  0.00     0.044 A 
HETATM   20  N   UNL     1      39.542 -13.211   4.582  1.00  0.00    -0.365 N 
HETATM   21  C   UNL     1      39.999 -13.674   0.888  1.00  0.00    -0.005 A 
HETATM   22  C   UNL     1      41.057 -14.591   1.028  1.00  0.00     0.015 A 
HETATM   23  H   UNL     1      38.784 -12.577   4.799  1.00  0.00     0.165 HD
HETATM   24  C   UNL     1      40.447 -13.690   5.497  1.00  0.00     0.097 C 
BRANCH  21  25
HETATM   25  C   UNL     1      39.625 -13.180  -0.462  1.00  0.00     0.066 A 
HETATM   26  N   UNL     1      38.505 -12.408  -0.503  1.00  0.00    -0.260 NA
HETATM   27  C   UNL     1      38.059 -11.982  -1.704  1.00  0.00     0.117 A 
HETATM   28  C   UNL     1      38.673 -12.286  -2.902  1.00  0.00     0.019 A 
HETATM   29  C   UNL     1      39.822 -13.065  -2.862  1.00  0.00     0.004 A 
HETATM   30  C   UNL     1      40.306 -13.515  -1.633  1.00  0.00     0.032 A 
ENDBRANCH  21  25
ENDBRANCH   1  15
BRANCH   1  31
HETATM   31  C   UNL     1      43.008 -16.199   5.565  1.00  0.00    -0.047 A 
HETATM   32  C   UNL     1      43.314 -17.072   4.500  1.00  0.00     0.043 A 
HETATM   33  C   UNL     1      43.646 -18.415   4.746  1.00  0.00     0.103 A 
HETATM   34  C   UNL     1      43.643 -18.925   6.048  1.00  0.00     0.036 A 
HETATM   35  C   UNL     1      43.338 -18.075   7.107  1.00  0.00     0.003 A 
HETATM   36  C   UNL     1      43.052 -16.727   6.866  1.00  0.00     0.008 A 
BRANCH  33  37
HETATM   37  N   UNL     1      44.062 -19.276   3.633  1.00  0.00    -0.116 N 
HETATM   38  O   UNL     1      44.403 -18.728   2.574  1.00  0.00    -0.532 OA
HETATM   39  O   UNL     1      44.061 -20.503   3.817  1.00  0.00    -0.532 OA
ENDBRANCH  33  37
ENDBRANCH   1  31
TORSDOF 9
ENDMDL
