MODEL 1
REMARK VINA RESULT:      -8.8      0.000      0.000
REMARK  7 active torsions:
REMARK  status: ('A' for Active; 'I' for Inactive)
REMARK    1  A    between atoms: O_2  and  C_3 
REMARK    2  A    between atoms: C_4  and  O_5 
REMARK    3  A    between atoms: C_9  and  C_10 
REMARK    4  A    between atoms: C_11  and  C_12 
REMARK       I    between atoms: C_12  and  N_13 
REMARK    5  A    between atoms: N_13  and  C_14 
REMARK    6  A    between atoms: C_14  and  C_15 
REMARK    7  A    between atoms: C_15  and  C_16 
ROOT
HETATM    1  C   UNL     1      42.461 -15.256   2.021  1.00  0.00     0.040 C 
HETATM    2  C   UNL     1      41.940 -14.092   2.464  1.00  0.00     0.113 C 
HETATM    3  C   UNL     1      41.558 -13.100   1.517  1.00  0.00     0.105 C 
HETATM    4  N   UNL     1      41.277 -12.267   0.760  1.00  0.00    -0.191 NA
ENDROOT
BRANCH   2   5
HETATM    5  C   UNL     1      41.723 -13.796   3.913  1.00  0.00     0.262 C 
HETATM    6  N   UNL     1      42.662 -12.964   4.487  1.00  0.00    -0.356 N 
HETATM    7  H   UNL     1      43.344 -12.482   3.913  1.00  0.00     0.162 HD
HETATM    8  O   UNL     1      40.788 -14.275   4.543  1.00  0.00    -0.267 OA
BRANCH   6   9
HETATM    9  C   UNL     1      42.538 -12.554   5.878  1.00  0.00     0.127 C 
BRANCH   9  10
HETATM   10  C   UNL     1      43.740 -12.997   6.713  1.00  0.00     0.060 C 
BRANCH  10  11
HETATM   11  C   UNL     1      44.658 -11.864   7.039  1.00  0.00    -0.029 A 
HETATM   12  C   UNL     1      44.623 -11.039   8.209  1.00  0.00    -0.002 A 
HETATM   13  C   UNL     1      45.666 -10.118   8.101  1.00  0.00     0.042 A 
HETATM   14  C   UNL     1      43.802 -10.991   9.354  1.00  0.00     0.014 A 
HETATM   15  C   UNL     1      45.930  -9.152   9.079  1.00  0.00     0.030 A 
HETATM   16  N   UNL     1      46.307 -10.369   6.911  1.00  0.00    -0.365 N 
HETATM   17  C   UNL     1      45.102  -9.127  10.205  1.00  0.00     0.002 A 
HETATM   18  C   UNL     1      44.052 -10.031  10.342  1.00  0.00     0.001 A 
HETATM   19  H   UNL     1      47.105  -9.851   6.570  1.00  0.00     0.165 HD
HETATM   20  C   UNL     1      45.710 -11.417   6.263  1.00  0.00     0.096 A 
ENDBRANCH  10  11
ENDBRANCH   9  10
ENDBRANCH   6   9
ENDBRANCH   2   5
BRANCH   1  21
HETATM   21  C   UNL     1      42.955 -16.406   2.800  1.00  0.00    -0.030 A 
HETATM   22  C   UNL     1      43.042 -17.653   2.166  1.00  0.00     0.033 A 
HETATM   23  C   UNL     1      43.552 -18.762   2.847  1.00  0.00     0.047 A 
HETATM   24  C   UNL     1      43.974 -18.627   4.168  1.00  0.00     0.116 A 
HETATM   25 BR   UNL     1      43.652 -20.421   1.937  1.00  0.00    -0.048 Br
HETATM   26  C   UNL     1      43.886 -17.391   4.818  1.00  0.00     0.103 A 
HETATM   27  C   UNL     1      43.411 -16.277   4.121  1.00  0.00     0.051 A 
BRANCH  24  28
HETATM   28  O   UNL     1      44.474 -19.702   4.856  1.00  0.00    -0.357 OA
HETATM   29  H   UNL     1      43.700 -20.261   5.063  1.00  0.00     0.218 HD
ENDBRANCH  24  28
BRANCH  26  30
HETATM   30  O   UNL     1      44.319 -17.380   6.122  1.00  0.00    -0.353 OA
HETATM   31  C   UNL     1      43.499 -16.648   7.031  1.00  0.00     0.210 C 
ENDBRANCH  26  30
ENDBRANCH   1  21
TORSDOF 7
ENDMDL
MODEL 2
REMARK VINA RESULT:      -8.6      5.343      8.442
REMARK  7 active torsions:
REMARK  status: ('A' for Active; 'I' for Inactive)
REMARK    1  A    between atoms: O_2  and  C_3 
REMARK    2  A    between atoms: C_4  and  O_5 
REMARK    3  A    between atoms: C_9  and  C_10 
REMARK    4  A    between atoms: C_11  and  C_12 
REMARK       I    between atoms: C_12  and  N_13 
REMARK    5  A    between atoms: N_13  and  C_14 
REMARK    6  A    between atoms: C_14  and  C_15 
REMARK    7  A    between atoms: C_15  and  C_16 
ROOT
HETATM    1  C   UNL     1      39.693 -12.002   1.635  1.00  0.00     0.040 C 
HETATM    2  C   UNL     1      40.449 -12.424   2.670  1.00  0.00     0.113 C 
HETATM    3  C   UNL     1      39.890 -12.431   3.979  1.00  0.00     0.105 C 
HETATM    4  N   UNL     1      39.462 -12.409   5.057  1.00  0.00    -0.191 NA
ENDROOT
BRANCH   2   5
HETATM    5  C   UNL     1      41.855 -12.907   2.508  1.00  0.00     0.262 C 
HETATM    6  N   UNL     1      41.980 -14.232   2.142  1.00  0.00    -0.356 N 
HETATM    7  H   UNL     1      41.167 -14.767   1.860  1.00  0.00     0.162 HD
HETATM    8  O   UNL     1      42.821 -12.180   2.706  1.00  0.00    -0.267 OA
BRANCH   6   9
HETATM    9  C   UNL     1      43.291 -14.814   1.900  1.00  0.00     0.127 C 
BRANCH   9  10
HETATM   10  C   UNL     1      43.227 -16.337   1.782  1.00  0.00     0.060 C 
BRANCH  10  11
HETATM   11  C   UNL     1      43.485 -17.022   3.085  1.00  0.00    -0.029 A 
HETATM   12  C   UNL     1      43.623 -18.431   3.303  1.00  0.00    -0.002 A 
HETATM   13  C   UNL     1      43.864 -18.621   4.664  1.00  0.00     0.042 A 
HETATM   14  C   UNL     1      43.568 -19.565   2.467  1.00  0.00     0.014 A 
HETATM   15  C   UNL     1      44.053 -19.887   5.231  1.00  0.00     0.030 A 
HETATM   16  N   UNL     1      43.868 -17.379   5.253  1.00  0.00    -0.365 N 
HETATM   17  C   UNL     1      43.996 -20.994   4.380  1.00  0.00     0.002 A 
HETATM   18  C   UNL     1      43.756 -20.838   3.017  1.00  0.00     0.001 A 
HETATM   19  H   UNL     1      44.018 -17.213   6.238  1.00  0.00     0.165 HD
HETATM   20  C   UNL     1      43.641 -16.409   4.314  1.00  0.00     0.096 A 
ENDBRANCH  10  11
ENDBRANCH   9  10
ENDBRANCH   6   9
ENDBRANCH   2   5
BRANCH   1  21
HETATM   21  C   UNL     1      40.057 -11.873   0.213  1.00  0.00    -0.030 A 
HETATM   22  C   UNL     1      40.644 -10.677  -0.221  1.00  0.00     0.033 A 
HETATM   23  C   UNL     1      41.053 -10.526  -1.549  1.00  0.00     0.047 A 
HETATM   24  C   UNL     1      40.872 -11.573  -2.450  1.00  0.00     0.116 A 
HETATM   25 BR   UNL     1      41.847  -8.888  -2.075  1.00  0.00    -0.048 Br
HETATM   26  C   UNL     1      40.279 -12.772  -2.036  1.00  0.00     0.103 A 
HETATM   27  C   UNL     1      39.907 -12.931  -0.699  1.00  0.00     0.051 A 
BRANCH  24  28
HETATM   28  O   UNL     1      41.262 -11.446  -3.758  1.00  0.00    -0.357 OA
HETATM   29  H   UNL     1      41.728 -12.277  -3.972  1.00  0.00     0.218 HD
ENDBRANCH  24  28
BRANCH  26  30
HETATM   30  O   UNL     1      40.141 -13.728  -3.013  1.00  0.00    -0.353 OA
HETATM   31  C   UNL     1      39.109 -14.686  -2.785  1.00  0.00     0.210 C 
ENDBRANCH  26  30
ENDBRANCH   1  21
TORSDOF 7
ENDMDL
MODEL 3
REMARK VINA RESULT:      -8.6      2.248      3.252
REMARK  7 active torsions:
REMARK  status: ('A' for Active; 'I' for Inactive)
REMARK    1  A    between atoms: O_2  and  C_3 
REMARK    2  A    between atoms: C_4  and  O_5 
REMARK    3  A    between atoms: C_9  and  C_10 
REMARK    4  A    between atoms: C_11  and  C_12 
REMARK       I    between atoms: C_12  and  N_13 
REMARK    5  A    between atoms: N_13  and  C_14 
REMARK    6  A    between atoms: C_14  and  C_15 
REMARK    7  A    between atoms: C_15  and  C_16 
ROOT
HETATM    1  C   UNL     1      40.730 -15.724   1.317  1.00  0.00     0.040 C 
HETATM    2  C   UNL     1      40.438 -14.464   0.930  1.00  0.00     0.113 C 
HETATM    3  C   UNL     1      39.809 -14.254  -0.329  1.00  0.00     0.105 C 
HETATM    4  N   UNL     1      39.330 -14.063  -1.369  1.00  0.00    -0.191 NA
ENDROOT
BRANCH   2   5
HETATM    5  C   UNL     1      40.728 -13.265   1.775  1.00  0.00     0.262 C 
HETATM    6  N   UNL     1      42.043 -12.849   1.771  1.00  0.00    -0.356 N 
HETATM    7  H   UNL     1      42.707 -13.247   1.117  1.00  0.00     0.162 HD
HETATM    8  O   UNL     1      39.858 -12.709   2.436  1.00  0.00    -0.267 OA
BRANCH   6   9
HETATM    9  C   UNL     1      42.449 -11.663   2.510  1.00  0.00     0.127 C 
BRANCH   9  10
HETATM   10  C   UNL     1      43.595 -11.958   3.478  1.00  0.00     0.060 C 
BRANCH  10  11
HETATM   11  C   UNL     1      43.244 -11.632   4.894  1.00  0.00    -0.029 A 
HETATM   12  C   UNL     1      44.155 -11.329   5.957  1.00  0.00    -0.002 A 
HETATM   13  C   UNL     1      43.394 -11.080   7.099  1.00  0.00     0.042 A 
HETATM   14  C   UNL     1      45.558 -11.239   6.053  1.00  0.00     0.014 A 
HETATM   15  C   UNL     1      43.964 -10.746   8.333  1.00  0.00     0.030 A 
HETATM   16  N   UNL     1      42.073 -11.231   6.748  1.00  0.00    -0.365 N 
HETATM   17  C   UNL     1      45.358 -10.662   8.401  1.00  0.00     0.002 A 
HETATM   18  C   UNL     1      46.146 -10.906   7.279  1.00  0.00     0.001 A 
HETATM   19  H   UNL     1      41.295 -11.111   7.382  1.00  0.00     0.165 HD
HETATM   20  C   UNL     1      41.970 -11.563   5.424  1.00  0.00     0.096 A 
ENDBRANCH  10  11
ENDBRANCH   9  10
ENDBRANCH   6   9
ENDBRANCH   2   5
BRANCH   1  21
HETATM   21  C   UNL     1      41.401 -16.184   2.545  1.00  0.00    -0.030 A 
HETATM   22  C   UNL     1      40.859 -15.811   3.783  1.00  0.00     0.033 A 
HETATM   23  C   UNL     1      41.430 -16.266   4.975  1.00  0.00     0.047 A 
HETATM   24  C   UNL     1      42.550 -17.093   4.933  1.00  0.00     0.116 A 
HETATM   25 BR   UNL     1      40.649 -15.734   6.617  1.00  0.00    -0.048 Br
HETATM   26  C   UNL     1      43.109 -17.468   3.706  1.00  0.00     0.103 A 
HETATM   27  C   UNL     1      42.512 -17.043   2.517  1.00  0.00     0.051 A 
BRANCH  24  28
HETATM   28  O   UNL     1      43.129 -17.547   6.090  1.00  0.00    -0.357 OA
HETATM   29  H   UNL     1      43.514 -16.756   6.515  1.00  0.00     0.218 HD
ENDBRANCH  24  28
BRANCH  26  30
HETATM   30  O   UNL     1      44.218 -18.276   3.787  1.00  0.00    -0.353 OA
HETATM   31  C   UNL     1      44.046 -19.599   3.284  1.00  0.00     0.210 C 
ENDBRANCH  26  30
ENDBRANCH   1  21
TORSDOF 7
ENDMDL
MODEL 4
REMARK VINA RESULT:      -8.6      3.880      7.585
REMARK  7 active torsions:
REMARK  status: ('A' for Active; 'I' for Inactive)
REMARK    1  A    between atoms: O_2  and  C_3 
REMARK    2  A    between atoms: C_4  and  O_5 
REMARK    3  A    between atoms: C_9  and  C_10 
REMARK    4  A    between atoms: C_11  and  C_12 
REMARK       I    between atoms: C_12  and  N_13 
REMARK    5  A    between atoms: N_13  and  C_14 
REMARK    6  A    between atoms: C_14  and  C_15 
REMARK    7  A    between atoms: C_15  and  C_16 
ROOT
HETATM    1  C   UNL     1      41.966 -10.726   1.954  1.00  0.00     0.040 C 
HETATM    2  C   UNL     1      41.452 -11.640   1.105  1.00  0.00     0.113 C 
HETATM    3  C   UNL     1      41.280 -11.293  -0.265  1.00  0.00     0.105 C 
HETATM    4  N   UNL     1      41.100 -11.014  -1.377  1.00  0.00    -0.191 NA
ENDROOT
BRANCH   2   5
HETATM    5  C   UNL     1      41.066 -13.020   1.529  1.00  0.00     0.262 C 
HETATM    6  N   UNL     1      41.931 -14.019   1.131  1.00  0.00    -0.356 N 
HETATM    7  H   UNL     1      42.828 -13.790   0.721  1.00  0.00     0.162 HD
HETATM    8  O   UNL     1      40.044 -13.244   2.167  1.00  0.00    -0.267 OA
BRANCH   6   9
HETATM    9  C   UNL     1      41.699 -15.401   1.523  1.00  0.00     0.127 C 
BRANCH   9  10
HETATM   10  C   UNL     1      42.981 -16.233   1.468  1.00  0.00     0.060 C 
BRANCH  10  11
HETATM   11  C   UNL     1      43.317 -16.851   2.787  1.00  0.00    -0.029 A 
HETATM   12  C   UNL     1      43.507 -18.244   3.059  1.00  0.00    -0.002 A 
HETATM   13  C   UNL     1      43.813 -18.366   4.414  1.00  0.00     0.042 A 
HETATM   14  C   UNL     1      43.451 -19.415   2.276  1.00  0.00     0.014 A 
HETATM   15  C   UNL     1      44.066 -19.599   5.027  1.00  0.00     0.030 A 
HETATM   16  N   UNL     1      43.805 -17.099   4.948  1.00  0.00    -0.365 N 
HETATM   17  C   UNL     1      44.006 -20.745   4.228  1.00  0.00     0.002 A 
HETATM   18  C   UNL     1      43.702 -20.657   2.872  1.00  0.00     0.001 A 
HETATM   19  H   UNL     1      43.993 -16.886   5.917  1.00  0.00     0.165 HD
HETATM   20  C   UNL     1      43.507 -16.179   3.979  1.00  0.00     0.096 A 
ENDBRANCH  10  11
ENDBRANCH   9  10
ENDBRANCH   6   9
ENDBRANCH   2   5
BRANCH   1  21
HETATM   21  C   UNL     1      42.203 -10.839   3.404  1.00  0.00    -0.030 A 
HETATM   22  C   UNL     1      41.222 -10.356   4.281  1.00  0.00     0.033 A 
HETATM   23  C   UNL     1      41.378 -10.486   5.664  1.00  0.00     0.047 A 
HETATM   24  C   UNL     1      42.521 -11.098   6.175  1.00  0.00     0.116 A 
HETATM   25 BR   UNL     1      40.015  -9.821   6.799  1.00  0.00    -0.048 Br
HETATM   26  C   UNL     1      43.515 -11.577   5.314  1.00  0.00     0.103 A 
HETATM   27  C   UNL     1      43.336 -11.479   3.932  1.00  0.00     0.051 A 
BRANCH  24  28
HETATM   28  O   UNL     1      42.697 -11.232   7.528  1.00  0.00    -0.357 OA
HETATM   29  H   UNL     1      41.879 -11.654   7.855  1.00  0.00     0.218 HD
ENDBRANCH  24  28
BRANCH  26  30
HETATM   30  O   UNL     1      44.602 -12.149   5.930  1.00  0.00    -0.353 OA
HETATM   31  C   UNL     1      45.677 -11.258   6.220  1.00  0.00     0.210 C 
ENDBRANCH  26  30
ENDBRANCH   1  21
TORSDOF 7
ENDMDL
MODEL 5
REMARK VINA RESULT:      -8.6      1.958      2.894
REMARK  7 active torsions:
REMARK  status: ('A' for Active; 'I' for Inactive)
REMARK    1  A    between atoms: O_2  and  C_3 
REMARK    2  A    between atoms: C_4  and  O_5 
REMARK    3  A    between atoms: C_9  and  C_10 
REMARK    4  A    between atoms: C_11  and  C_12 
REMARK       I    between atoms: C_12  and  N_13 
REMARK    5  A    between atoms: N_13  and  C_14 
REMARK    6  A    between atoms: C_14  and  C_15 
REMARK    7  A    between atoms: C_15  and  C_16 
ROOT
HETATM    1  C   UNL     1      40.572 -15.704   1.407  1.00  0.00     0.040 C 
HETATM    2  C   UNL     1      40.372 -14.431   1.007  1.00  0.00     0.113 C 
HETATM    3  C   UNL     1      39.801 -14.189  -0.275  1.00  0.00     0.105 C 
HETATM    4  N   UNL     1      39.371 -13.975  -1.331  1.00  0.00    -0.191 NA
ENDROOT
BRANCH   2   5
HETATM    5  C   UNL     1      40.705 -13.248   1.857  1.00  0.00     0.262 C 
HETATM    6  N   UNL     1      42.016 -12.823   1.783  1.00  0.00    -0.356 N 
HETATM    7  H   UNL     1      42.642 -13.203   1.083  1.00  0.00     0.162 HD
HETATM    8  O   UNL     1      39.874 -12.711   2.580  1.00  0.00    -0.267 OA
BRANCH   6   9
HETATM    9  C   UNL     1      42.459 -11.650   2.521  1.00  0.00     0.127 C 
BRANCH   9  10
HETATM   10  C   UNL     1      43.587 -11.982   3.498  1.00  0.00     0.060 C 
BRANCH  10  11
HETATM   11  C   UNL     1      43.240 -11.635   4.910  1.00  0.00    -0.029 A 
HETATM   12  C   UNL     1      44.154 -11.323   5.967  1.00  0.00    -0.002 A 
HETATM   13  C   UNL     1      43.397 -11.054   7.108  1.00  0.00     0.042 A 
HETATM   14  C   UNL     1      45.559 -11.242   6.061  1.00  0.00     0.014 A 
HETATM   15  C   UNL     1      43.971 -10.707   8.336  1.00  0.00     0.030 A 
HETATM   16  N   UNL     1      42.074 -11.201   6.760  1.00  0.00    -0.365 N 
HETATM   17  C   UNL     1      45.365 -10.632   8.401  1.00  0.00     0.002 A 
HETATM   18  C   UNL     1      46.150 -10.895   7.282  1.00  0.00     0.001 A 
HETATM   19  H   UNL     1      41.298 -11.068   7.393  1.00  0.00     0.165 HD
HETATM   20  C   UNL     1      41.968 -11.550   5.441  1.00  0.00     0.096 A 
ENDBRANCH  10  11
ENDBRANCH   9  10
ENDBRANCH   6   9
ENDBRANCH   2   5
BRANCH   1  21
HETATM   21  C   UNL     1      41.171 -16.199   2.659  1.00  0.00    -0.030 A 
HETATM   22  C   UNL     1      42.268 -17.068   2.577  1.00  0.00     0.033 A 
HETATM   23  C   UNL     1      42.902 -17.524   3.736  1.00  0.00     0.047 A 
HETATM   24  C   UNL     1      42.438 -17.113   4.984  1.00  0.00     0.116 A 
HETATM   25 BR   UNL     1      44.383 -18.693   3.563  1.00  0.00    -0.048 Br
HETATM   26  C   UNL     1      41.339 -16.252   5.084  1.00  0.00     0.103 A 
HETATM   27  C   UNL     1      40.733 -15.769   3.922  1.00  0.00     0.051 A 
BRANCH  24  28
HETATM   28  O   UNL     1      43.042 -17.550   6.134  1.00  0.00    -0.357 OA
HETATM   29  H   UNL     1      42.714 -18.460   6.271  1.00  0.00     0.218 HD
ENDBRANCH  24  28
BRANCH  26  30
HETATM   30  O   UNL     1      40.963 -15.924   6.365  1.00  0.00    -0.353 OA
HETATM   31  C   UNL     1      40.272 -14.684   6.498  1.00  0.00     0.210 C 
ENDBRANCH  26  30
ENDBRANCH   1  21
TORSDOF 7
ENDMDL
MODEL 6
REMARK VINA RESULT:      -8.5      1.393      2.165
REMARK  7 active torsions:
REMARK  status: ('A' for Active; 'I' for Inactive)
REMARK    1  A    between atoms: O_2  and  C_3 
REMARK    2  A    between atoms: C_4  and  O_5 
REMARK    3  A    between atoms: C_9  and  C_10 
REMARK    4  A    between atoms: C_11  and  C_12 
REMARK       I    between atoms: C_12  and  N_13 
REMARK    5  A    between atoms: N_13  and  C_14 
REMARK    6  A    between atoms: C_14  and  C_15 
REMARK    7  A    between atoms: C_15  and  C_16 
ROOT
HETATM    1  C   UNL     1      42.492 -15.379   1.808  1.00  0.00     0.040 C 
HETATM    2  C   UNL     1      41.857 -14.236   2.139  1.00  0.00     0.113 C 
HETATM    3  C   UNL     1      41.458 -13.340   1.106  1.00  0.00     0.105 C 
HETATM    4  N   UNL     1      41.160 -12.583   0.280  1.00  0.00    -0.191 NA
ENDROOT
BRANCH   2   5
HETATM    5  C   UNL     1      41.529 -13.866   3.550  1.00  0.00     0.262 C 
HETATM    6  N   UNL     1      42.375 -12.940   4.125  1.00  0.00    -0.356 N 
HETATM    7  H   UNL     1      43.061 -12.450   3.562  1.00  0.00     0.162 HD
HETATM    8  O   UNL     1      40.586 -14.367   4.152  1.00  0.00    -0.267 OA
BRANCH   6   9
HETATM    9  C   UNL     1      42.136 -12.455   5.475  1.00  0.00     0.127 C 
BRANCH   9  10
HETATM   10  C   UNL     1      43.189 -12.964   6.460  1.00  0.00     0.060 C 
BRANCH  10  11
HETATM   11  C   UNL     1      44.333 -12.015   6.614  1.00  0.00    -0.029 A 
HETATM   12  C   UNL     1      44.563 -11.117   7.706  1.00  0.00    -0.002 A 
HETATM   13  C   UNL     1      45.748 -10.431   7.439  1.00  0.00     0.042 A 
HETATM   14  C   UNL     1      43.873 -10.825   8.900  1.00  0.00     0.014 A 
HETATM   15  C   UNL     1      46.280  -9.468   8.306  1.00  0.00     0.030 A 
HETATM   16  N   UNL     1      46.219 -10.889   6.231  1.00  0.00    -0.365 N 
HETATM   17  C   UNL     1      45.578  -9.199   9.484  1.00  0.00     0.002 A 
HETATM   18  C   UNL     1      44.391  -9.865   9.779  1.00  0.00     0.001 A 
HETATM   19  H   UNL     1      47.067 -10.565   5.788  1.00  0.00     0.165 HD
HETATM   20  C   UNL     1      45.376 -11.842   5.725  1.00  0.00     0.096 A 
ENDBRANCH  10  11
ENDBRANCH   9  10
ENDBRANCH   6   9
ENDBRANCH   2   5
BRANCH   1  21
HETATM   21  C   UNL     1      43.025 -16.433   2.690  1.00  0.00    -0.030 A 
HETATM   22  C   UNL     1      43.447 -16.075   3.978  1.00  0.00     0.033 A 
HETATM   23  C   UNL     1      43.912 -17.047   4.868  1.00  0.00     0.047 A 
HETATM   24  C   UNL     1      43.959 -18.382   4.472  1.00  0.00     0.116 A 
HETATM   25 BR   UNL     1      44.463 -16.505   6.598  1.00  0.00    -0.048 Br
HETATM   26  C   UNL     1      43.549 -18.755   3.186  1.00  0.00     0.103 A 
HETATM   27  C   UNL     1      43.050 -17.785   2.313  1.00  0.00     0.051 A 
BRANCH  24  28
HETATM   28  O   UNL     1      44.414 -19.351   5.327  1.00  0.00    -0.357 OA
HETATM   29  H   UNL     1      43.763 -20.077   5.269  1.00  0.00     0.218 HD
ENDBRANCH  24  28
BRANCH  26  30
HETATM   30  O   UNL     1      43.651 -20.095   2.902  1.00  0.00    -0.353 OA
HETATM   31  C   UNL     1      43.413 -20.449   1.541  1.00  0.00     0.210 C 
ENDBRANCH  26  30
ENDBRANCH   1  21
TORSDOF 7
ENDMDL
MODEL 7
REMARK VINA RESULT:      -8.4      3.827      7.667
REMARK  7 active torsions:
REMARK  status: ('A' for Active; 'I' for Inactive)
REMARK    1  A    between atoms: O_2  and  C_3 
REMARK    2  A    between atoms: C_4  and  O_5 
REMARK    3  A    between atoms: C_9  and  C_10 
REMARK    4  A    between atoms: C_11  and  C_12 
REMARK       I    between atoms: C_12  and  N_13 
REMARK    5  A    between atoms: N_13  and  C_14 
REMARK    6  A    between atoms: C_14  and  C_15 
REMARK    7  A    between atoms: C_15  and  C_16 
ROOT
HETATM    1  C   UNL     1      41.607 -10.907   2.181  1.00  0.00     0.040 C 
HETATM    2  C   UNL     1      41.268 -11.940   1.381  1.00  0.00     0.113 C 
HETATM    3  C   UNL     1      41.044 -11.698  -0.004  1.00  0.00     0.105 C 
HETATM    4  N   UNL     1      40.821 -11.511  -1.127  1.00  0.00    -0.191 NA
ENDROOT
BRANCH   2   5
HETATM    5  C   UNL     1      41.135 -13.344   1.875  1.00  0.00     0.262 C 
HETATM    6  N   UNL     1      41.854 -14.285   1.167  1.00  0.00    -0.356 N 
HETATM    7  H   UNL     1      42.532 -13.999   0.471  1.00  0.00     0.162 HD
HETATM    8  O   UNL     1      40.421 -13.634   2.828  1.00  0.00    -0.267 OA
BRANCH   6   9
HETATM    9  C   UNL     1      41.852 -15.682   1.576  1.00  0.00     0.127 C 
BRANCH   9  10
HETATM   10  C   UNL     1      43.270 -16.236   1.720  1.00  0.00     0.060 C 
BRANCH  10  11
HETATM   11  C   UNL     1      43.485 -16.918   3.032  1.00  0.00    -0.029 A 
HETATM   12  C   UNL     1      43.625 -18.326   3.256  1.00  0.00    -0.002 A 
HETATM   13  C   UNL     1      43.817 -18.513   4.625  1.00  0.00     0.042 A 
HETATM   14  C   UNL     1      43.609 -19.460   2.420  1.00  0.00     0.014 A 
HETATM   15  C   UNL     1      43.994 -19.777   5.201  1.00  0.00     0.030 A 
HETATM   16  N   UNL     1      43.790 -17.270   5.213  1.00  0.00    -0.365 N 
HETATM   17  C   UNL     1      43.976 -20.885   4.349  1.00  0.00     0.002 A 
HETATM   18  C   UNL     1      43.785 -20.732   2.978  1.00  0.00     0.001 A 
HETATM   19  H   UNL     1      43.903 -17.103   6.203  1.00  0.00     0.165 HD
HETATM   20  C   UNL     1      43.591 -16.303   4.265  1.00  0.00     0.096 A 
ENDBRANCH  10  11
ENDBRANCH   9  10
ENDBRANCH   6   9
ENDBRANCH   2   5
BRANCH   1  21
HETATM   21  C   UNL     1      41.854 -10.903   3.634  1.00  0.00    -0.030 A 
HETATM   22  C   UNL     1      43.153 -11.166   4.091  1.00  0.00     0.033 A 
HETATM   23  C   UNL     1      43.448 -11.123   5.456  1.00  0.00     0.047 A 
HETATM   24  C   UNL     1      42.442 -10.821   6.371  1.00  0.00     0.116 A 
HETATM   25 BR   UNL     1      45.223 -11.480   6.014  1.00  0.00    -0.048 Br
HETATM   26  C   UNL     1      41.138 -10.564   5.933  1.00  0.00     0.103 A 
HETATM   27  C   UNL     1      40.857 -10.571   4.564  1.00  0.00     0.051 A 
BRANCH  24  28
HETATM   28  O   UNL     1      42.708 -10.777   7.715  1.00  0.00    -0.357 OA
HETATM   29  H   UNL     1      42.362  -9.916   8.021  1.00  0.00     0.218 HD
ENDBRANCH  24  28
BRANCH  26  30
HETATM   30  O   UNL     1      40.226 -10.290   6.924  1.00  0.00    -0.353 OA
HETATM   31  C   UNL     1      39.113  -9.493   6.525  1.00  0.00     0.210 C 
ENDBRANCH  26  30
ENDBRANCH   1  21
TORSDOF 7
ENDMDL
MODEL 8
REMARK VINA RESULT:      -8.4      4.380      7.377
REMARK  7 active torsions:
REMARK  status: ('A' for Active; 'I' for Inactive)
REMARK    1  A    between atoms: O_2  and  C_3 
REMARK    2  A    between atoms: C_4  and  O_5 
REMARK    3  A    between atoms: C_9  and  C_10 
REMARK    4  A    between atoms: C_11  and  C_12 
REMARK       I    between atoms: C_12  and  N_13 
REMARK    5  A    between atoms: N_13  and  C_14 
REMARK    6  A    between atoms: C_14  and  C_15 
REMARK    7  A    between atoms: C_15  and  C_16 
ROOT
HETATM    1  C   UNL     1      39.150 -11.653   4.385  1.00  0.00     0.040 C 
HETATM    2  C   UNL     1      39.810 -11.668   5.562  1.00  0.00     0.113 C 
HETATM    3  C   UNL     1      39.146 -11.208   6.735  1.00  0.00     0.105 C 
HETATM    4  N   UNL     1      38.632 -10.802   7.692  1.00  0.00    -0.191 NA
ENDROOT
BRANCH   2   5
HETATM    5  C   UNL     1      41.212 -12.168   5.704  1.00  0.00     0.262 C 
HETATM    6  N   UNL     1      41.330 -13.443   6.216  1.00  0.00    -0.356 N 
HETATM    7  H   UNL     1      40.513 -14.030   6.332  1.00  0.00     0.162 HD
HETATM    8  O   UNL     1      42.181 -11.481   5.402  1.00  0.00    -0.267 OA
BRANCH   6   9
HETATM    9  C   UNL     1      42.637 -14.068   6.356  1.00  0.00     0.127 C 
BRANCH   9  10
HETATM   10  C   UNL     1      42.958 -14.991   5.180  1.00  0.00     0.060 C 
BRANCH  10  11
HETATM   11  C   UNL     1      43.222 -16.396   5.613  1.00  0.00    -0.029 A 
HETATM   12  C   UNL     1      43.479 -17.522   4.766  1.00  0.00    -0.002 A 
HETATM   13  C   UNL     1      43.679 -18.628   5.592  1.00  0.00     0.042 A 
HETATM   14  C   UNL     1      43.564 -17.703   3.370  1.00  0.00     0.014 A 
HETATM   15  C   UNL     1      43.960 -19.907   5.094  1.00  0.00     0.030 A 
HETATM   16  N   UNL     1      43.544 -18.195   6.890  1.00  0.00    -0.365 N 
HETATM   17  C   UNL     1      44.040 -20.059   3.707  1.00  0.00     0.002 A 
HETATM   18  C   UNL     1      43.844 -18.975   2.855  1.00  0.00     0.001 A 
HETATM   19  H   UNL     1      43.638 -18.787   7.703  1.00  0.00     0.165 HD
HETATM   20  C   UNL     1      43.269 -16.855   6.915  1.00  0.00     0.096 A 
ENDBRANCH  10  11
ENDBRANCH   9  10
ENDBRANCH   6   9
ENDBRANCH   2   5
BRANCH   1  21
HETATM   21  C   UNL     1      39.630 -12.042   3.048  1.00  0.00    -0.030 A 
HETATM   22  C   UNL     1      40.199 -11.056   2.229  1.00  0.00     0.033 A 
HETATM   23  C   UNL     1      40.715 -11.387   0.973  1.00  0.00     0.047 A 
HETATM   24  C   UNL     1      40.661 -12.706   0.529  1.00  0.00     0.116 A 
HETATM   25 BR   UNL     1      41.477 -10.013  -0.086  1.00  0.00    -0.048 Br
HETATM   26  C   UNL     1      40.089 -13.702   1.331  1.00  0.00     0.103 A 
HETATM   27  C   UNL     1      39.609 -13.373   2.601  1.00  0.00     0.051 A 
BRANCH  24  28
HETATM   28  O   UNL     1      41.158 -13.052  -0.701  1.00  0.00    -0.357 OA
HETATM   29  H   UNL     1      42.123 -12.915  -0.639  1.00  0.00     0.218 HD
ENDBRANCH  24  28
BRANCH  26  30
HETATM   30  O   UNL     1      40.080 -14.963   0.786  1.00  0.00    -0.353 OA
HETATM   31  C   UNL     1      40.349 -16.024   1.700  1.00  0.00     0.210 C 
ENDBRANCH  26  30
ENDBRANCH   1  21
TORSDOF 7
ENDMDL
MODEL 9
REMARK VINA RESULT:      -8.4      3.758      7.189
REMARK  7 active torsions:
REMARK  status: ('A' for Active; 'I' for Inactive)
REMARK    1  A    between atoms: O_2  and  C_3 
REMARK    2  A    between atoms: C_4  and  O_5 
REMARK    3  A    between atoms: C_9  and  C_10 
REMARK    4  A    between atoms: C_11  and  C_12 
REMARK       I    between atoms: C_12  and  N_13 
REMARK    5  A    between atoms: N_13  and  C_14 
REMARK    6  A    between atoms: C_14  and  C_15 
REMARK    7  A    between atoms: C_15  and  C_16 
ROOT
HETATM    1  C   UNL     1      43.492 -11.611   3.496  1.00  0.00     0.040 C 
HETATM    2  C   UNL     1      43.389 -11.778   4.830  1.00  0.00     0.113 C 
HETATM    3  C   UNL     1      44.495 -11.434   5.659  1.00  0.00     0.105 C 
HETATM    4  N   UNL     1      45.399 -11.194   6.345  1.00  0.00    -0.191 NA
ENDROOT
BRANCH   2   5
HETATM    5  C   UNL     1      42.152 -12.292   5.494  1.00  0.00     0.262 C 
HETATM    6  N   UNL     1      42.124 -13.655   5.705  1.00  0.00    -0.356 N 
HETATM    7  H   UNL     1      42.954 -14.217   5.555  1.00  0.00     0.162 HD
HETATM    8  O   UNL     1      41.226 -11.553   5.807  1.00  0.00    -0.267 OA
BRANCH   6   9
HETATM    9  C   UNL     1      41.000 -14.277   6.389  1.00  0.00     0.127 C 
BRANCH   9  10
HETATM   10  C   UNL     1      40.702 -15.674   5.843  1.00  0.00     0.060 C 
BRANCH  10  11
HETATM   11  C   UNL     1      41.911 -16.552   5.831  1.00  0.00    -0.029 A 
HETATM   12  C   UNL     1      42.537 -17.137   4.683  1.00  0.00    -0.002 A 
HETATM   13  C   UNL     1      43.635 -17.870   5.135  1.00  0.00     0.042 A 
HETATM   14  C   UNL     1      42.272 -17.110   3.299  1.00  0.00     0.014 A 
HETATM   15  C   UNL     1      44.483 -18.576   4.273  1.00  0.00     0.030 A 
HETATM   16  N   UNL     1      43.674 -17.741   6.503  1.00  0.00    -0.365 N 
HETATM   17  C   UNL     1      44.200 -18.531   2.905  1.00  0.00     0.002 A 
HETATM   18  C   UNL     1      43.110 -17.810   2.422  1.00  0.00     0.001 A 
HETATM   19  H   UNL     1      44.369 -18.169   7.099  1.00  0.00     0.165 HD
HETATM   20  C   UNL     1      42.643 -16.951   6.934  1.00  0.00     0.096 A 
ENDBRANCH  10  11
ENDBRANCH   9  10
ENDBRANCH   6   9
ENDBRANCH   2   5
BRANCH   1  21
HETATM   21  C   UNL     1      42.509 -11.922   2.444  1.00  0.00    -0.030 A 
HETATM   22  C   UNL     1      41.865 -10.859   1.795  1.00  0.00     0.033 A 
HETATM   23  C   UNL     1      40.963 -11.102   0.756  1.00  0.00     0.047 A 
HETATM   24  C   UNL     1      40.697 -12.412   0.364  1.00  0.00     0.116 A 
HETATM   25 BR   UNL     1      40.129  -9.625  -0.087  1.00  0.00    -0.048 Br
HETATM   26  C   UNL     1      41.324 -13.486   1.007  1.00  0.00     0.103 A 
HETATM   27  C   UNL     1      42.254 -13.236   2.019  1.00  0.00     0.051 A 
BRANCH  24  28
HETATM   28  O   UNL     1      39.812 -12.674  -0.649  1.00  0.00    -0.357 OA
HETATM   29  H   UNL     1      38.965 -12.280  -0.363  1.00  0.00     0.218 HD
ENDBRANCH  24  28
BRANCH  26  30
HETATM   30  O   UNL     1      40.976 -14.733   0.545  1.00  0.00    -0.353 OA
HETATM   31  C   UNL     1      39.981 -15.410   1.310  1.00  0.00     0.210 C 
ENDBRANCH  26  30
ENDBRANCH   1  21
TORSDOF 7
ENDMDL
MODEL 10
REMARK VINA RESULT:      -8.3      4.944      8.770
REMARK  7 active torsions:
REMARK  status: ('A' for Active; 'I' for Inactive)
REMARK    1  A    between atoms: O_2  and  C_3 
REMARK    2  A    between atoms: C_4  and  O_5 
REMARK    3  A    between atoms: C_9  and  C_10 
REMARK    4  A    between atoms: C_11  and  C_12 
REMARK       I    between atoms: C_12  and  N_13 
REMARK    5  A    between atoms: N_13  and  C_14 
REMARK    6  A    between atoms: C_14  and  C_15 
REMARK    7  A    between atoms: C_15  and  C_16 
ROOT
HETATM    1  C   UNL     1      41.193 -10.916   1.264  1.00  0.00     0.040 C 
HETATM    2  C   UNL     1      41.791 -11.835   2.050  1.00  0.00     0.113 C 
HETATM    3  C   UNL     1      42.905 -11.447   2.847  1.00  0.00     0.105 C 
HETATM    4  N   UNL     1      43.836 -11.155   3.474  1.00  0.00    -0.191 NA
ENDROOT
BRANCH   2   5
HETATM    5  C   UNL     1      41.327 -13.254   2.142  1.00  0.00     0.262 C 
HETATM    6  N   UNL     1      42.149 -14.180   1.533  1.00  0.00    -0.356 N 
HETATM    7  H   UNL     1      43.066 -13.911   1.194  1.00  0.00     0.162 HD
HETATM    8  O   UNL     1      40.282 -13.562   2.702  1.00  0.00    -0.267 OA
BRANCH   6   9
HETATM    9  C   UNL     1      41.840 -15.600   1.595  1.00  0.00     0.127 C 
BRANCH   9  10
HETATM   10  C   UNL     1      43.103 -16.461   1.573  1.00  0.00     0.060 C 
BRANCH  10  11
HETATM   11  C   UNL     1      43.393 -17.082   2.901  1.00  0.00    -0.029 A 
HETATM   12  C   UNL     1      43.585 -18.474   3.175  1.00  0.00    -0.002 A 
HETATM   13  C   UNL     1      43.841 -18.599   4.541  1.00  0.00     0.042 A 
HETATM   14  C   UNL     1      43.569 -19.643   2.387  1.00  0.00     0.014 A 
HETATM   15  C   UNL     1      44.080 -19.832   5.159  1.00  0.00     0.030 A 
HETATM   16  N   UNL     1      43.801 -17.334   5.079  1.00  0.00    -0.365 N 
HETATM   17  C   UNL     1      44.060 -20.975   4.354  1.00  0.00     0.002 A 
HETATM   18  C   UNL     1      43.807 -20.884   2.988  1.00  0.00     0.001 A 
HETATM   19  H   UNL     1      43.950 -17.122   6.055  1.00  0.00     0.165 HD
HETATM   20  C   UNL     1      43.532 -16.413   4.102  1.00  0.00     0.096 A 
ENDBRANCH  10  11
ENDBRANCH   9  10
ENDBRANCH   6   9
ENDBRANCH   2   5
BRANCH   1  21
HETATM   21  C   UNL     1      40.061 -11.085   0.336  1.00  0.00    -0.030 A 
HETATM   22  C   UNL     1      38.825 -10.518   0.681  1.00  0.00     0.033 A 
HETATM   23  C   UNL     1      37.735 -10.608  -0.189  1.00  0.00     0.047 A 
HETATM   24  C   UNL     1      37.877 -11.268  -1.408  1.00  0.00     0.116 A 
HETATM   25 BR   UNL     1      36.093  -9.818   0.328  1.00  0.00    -0.048 Br
HETATM   26  C   UNL     1      39.101 -11.847  -1.764  1.00  0.00     0.103 A 
HETATM   27  C   UNL     1      40.197 -11.722  -0.907  1.00  0.00     0.051 A 
BRANCH  24  28
HETATM   28  O   UNL     1      36.820 -11.371  -2.275  1.00  0.00    -0.357 OA
HETATM   29  H   UNL     1      36.032 -11.118  -1.755  1.00  0.00     0.218 HD
ENDBRANCH  24  28
BRANCH  26  30
HETATM   30  O   UNL     1      39.119 -12.482  -2.982  1.00  0.00    -0.353 OA
HETATM   31  C   UNL     1      39.221 -13.904  -2.926  1.00  0.00     0.210 C 
ENDBRANCH  26  30
ENDBRANCH   1  21
TORSDOF 7
ENDMDL
