MODEL 1
REMARK VINA RESULT:      -7.2      0.000      0.000
REMARK  7 active torsions:
REMARK  status: ('A' for Active; 'I' for Inactive)
REMARK    1  A    between atoms: O_2  and  C_3 
REMARK    2  A    between atoms: C_4  and  O_5 
REMARK    3  A    between atoms: C_6  and  C_7 
REMARK    4  A    between atoms: C_7  and  N_8 
REMARK    5  A    between atoms: C_11  and  C_12 
REMARK    6  A    between atoms: C_12  and  N_13 
REMARK    7  A    between atoms: N_13  and  C_14 
ROOT
HETATM    1  N   UNL     1      41.666 -14.103   1.653  1.00  0.00    -0.067 N 
HETATM    2  H   UNL     1      42.030 -14.358   0.713  1.00  0.00     0.280 HD
HETATM    3  C   UNL     1      41.402 -15.376   2.418  1.00  0.00     0.241 C 
HETATM    4  C   UNL     1      41.883 -15.053   3.828  1.00  0.00     0.031 C 
HETATM    5  C   UNL     1      43.140 -14.235   3.543  1.00  0.00     0.035 C 
HETATM    6  C   UNL     1      42.727 -13.325   2.394  1.00  0.00     0.235 C 
ENDROOT
BRANCH   1   7
HETATM    7  C   UNL     1      40.440 -13.284   1.324  1.00  0.00     0.276 C 
BRANCH   7   8
HETATM    8  C   UNL     1      40.297 -12.973  -0.138  1.00  0.00     0.005 A 
HETATM    9  C   UNL     1      39.862 -13.945  -1.045  1.00  0.00     0.107 A 
HETATM   10  C   UNL     1      39.780 -13.699  -2.423  1.00  0.00     0.103 A 
HETATM   11  C   UNL     1      40.116 -12.437  -2.906  1.00  0.00     0.058 A 
HETATM   12  C   UNL     1      40.543 -11.452  -2.012  1.00  0.00     0.014 A 
HETATM   13  C   UNL     1      40.646 -11.714  -0.642  1.00  0.00     0.030 A 
HETATM   14 BR   UNL     1      40.989  -9.732  -2.658  1.00  0.00    -0.051 Br
BRANCH   9  15
HETATM   15  O   UNL     1      39.492 -15.177  -0.558  1.00  0.00    -0.357 OA
HETATM   16  H   UNL     1      38.506 -15.168  -0.602  1.00  0.00     0.218 HD
ENDBRANCH   9  15
BRANCH  10  17
HETATM   17  O   UNL     1      39.351 -14.765  -3.169  1.00  0.00    -0.353 OA
HETATM   18  C   UNL     1      38.022 -14.689  -3.681  1.00  0.00     0.210 C 
ENDBRANCH  10  17
ENDBRANCH   7   8
ENDBRANCH   1   7
BRANCH   4  19
HETATM   19  C   UNL     1      42.127 -16.309   4.673  1.00  0.00     0.127 C 
BRANCH  19  20
HETATM   20  N   UNL     1      43.446 -16.877   4.374  1.00  0.00    -0.376 N 
HETATM   21  H   UNL     1      44.186 -16.567   4.996  1.00  0.00     0.161 HD
BRANCH  20  22
HETATM   22  C   UNL     1      43.549 -18.181   3.910  1.00  0.00     0.100 A 
HETATM   23  N   UNL     1      43.976 -19.131   4.765  1.00  0.00    -0.353 N 
HETATM   24  H   UNL     1      44.206 -18.854   5.714  1.00  0.00     0.166 HD
HETATM   25  C   UNL     1      44.132 -20.422   4.433  1.00  0.00     0.089 A 
HETATM   26  C   UNL     1      43.864 -20.847   3.143  1.00  0.00     0.017 A 
HETATM   27  C   UNL     1      43.448 -19.910   2.209  1.00  0.00     0.005 A 
HETATM   28  C   UNL     1      43.296 -18.576   2.589  1.00  0.00     0.048 A 
ENDBRANCH  20  22
ENDBRANCH  19  20
ENDBRANCH   4  19
TORSDOF 7
ENDMDL
MODEL 2
REMARK VINA RESULT:      -7.2      2.195      2.753
REMARK  7 active torsions:
REMARK  status: ('A' for Active; 'I' for Inactive)
REMARK    1  A    between atoms: O_2  and  C_3 
REMARK    2  A    between atoms: C_4  and  O_5 
REMARK    3  A    between atoms: C_6  and  C_7 
REMARK    4  A    between atoms: C_7  and  N_8 
REMARK    5  A    between atoms: C_11  and  C_12 
REMARK    6  A    between atoms: C_12  and  N_13 
REMARK    7  A    between atoms: N_13  and  C_14 
ROOT
HETATM    1  N   UNL     1      40.788 -13.993   2.371  1.00  0.00    -0.067 N 
HETATM    2  H   UNL     1      40.245 -13.163   2.684  1.00  0.00     0.280 HD
HETATM    3  C   UNL     1      41.918 -14.214   3.345  1.00  0.00     0.241 C 
HETATM    4  C   UNL     1      41.965 -15.728   3.505  1.00  0.00     0.031 C 
HETATM    5  C   UNL     1      40.479 -16.081   3.515  1.00  0.00     0.035 C 
HETATM    6  C   UNL     1      39.892 -15.209   2.413  1.00  0.00     0.235 C 
ENDROOT
BRANCH   1   7
HETATM    7  C   UNL     1      41.210 -13.607   0.972  1.00  0.00     0.276 C 
BRANCH   7   8
HETATM    8  C   UNL     1      40.061 -13.251   0.073  1.00  0.00     0.005 A 
HETATM    9  C   UNL     1      39.227 -12.166   0.361  1.00  0.00     0.107 A 
HETATM   10  C   UNL     1      38.110 -11.850  -0.427  1.00  0.00     0.103 A 
HETATM   11  C   UNL     1      37.835 -12.624  -1.551  1.00  0.00     0.058 A 
HETATM   12  C   UNL     1      38.664 -13.706  -1.857  1.00  0.00     0.014 A 
HETATM   13  C   UNL     1      39.761 -14.029  -1.052  1.00  0.00     0.030 A 
HETATM   14 BR   UNL     1      38.305 -14.755  -3.389  1.00  0.00    -0.051 Br
BRANCH   9  15
HETATM   15  O   UNL     1      39.526 -11.379   1.449  1.00  0.00    -0.357 OA
HETATM   16  H   UNL     1      39.525 -12.006   2.209  1.00  0.00     0.218 HD
ENDBRANCH   9  15
BRANCH  10  17
HETATM   17  O   UNL     1      37.393 -10.766   0.007  1.00  0.00    -0.353 OA
HETATM   18  C   UNL     1      37.390  -9.623  -0.847  1.00  0.00     0.210 C 
ENDBRANCH  10  17
ENDBRANCH   7   8
ENDBRANCH   1   7
BRANCH   4  19
HETATM   19  C   UNL     1      42.726 -16.169   4.760  1.00  0.00     0.127 C 
BRANCH  19  20
HETATM   20  N   UNL     1      43.950 -16.886   4.388  1.00  0.00    -0.376 N 
HETATM   21  H   UNL     1      44.774 -16.606   4.912  1.00  0.00     0.161 HD
BRANCH  20  22
HETATM   22  C   UNL     1      43.886 -18.225   4.028  1.00  0.00     0.100 A 
HETATM   23  N   UNL     1      44.138 -19.153   4.971  1.00  0.00    -0.353 N 
HETATM   24  H   UNL     1      44.366 -18.836   5.908  1.00  0.00     0.166 HD
HETATM   25  C   UNL     1      44.122 -20.476   4.743  1.00  0.00     0.089 A 
HETATM   26  C   UNL     1      43.849 -20.961   3.475  1.00  0.00     0.017 A 
HETATM   27  C   UNL     1      43.610 -20.054   2.455  1.00  0.00     0.005 A 
HETATM   28  C   UNL     1      43.633 -18.686   2.728  1.00  0.00     0.048 A 
ENDBRANCH  20  22
ENDBRANCH  19  20
ENDBRANCH   4  19
TORSDOF 7
ENDMDL
MODEL 3
REMARK VINA RESULT:      -7.1      6.455      9.473
REMARK  7 active torsions:
REMARK  status: ('A' for Active; 'I' for Inactive)
REMARK    1  A    between atoms: O_2  and  C_3 
REMARK    2  A    between atoms: C_4  and  O_5 
REMARK    3  A    between atoms: C_6  and  C_7 
REMARK    4  A    between atoms: C_7  and  N_8 
REMARK    5  A    between atoms: C_11  and  C_12 
REMARK    6  A    between atoms: C_12  and  N_13 
REMARK    7  A    between atoms: N_13  and  C_14 
ROOT
HETATM    1  N   UNL     1      43.484 -13.166   6.194  1.00  0.00    -0.067 N 
HETATM    2  H   UNL     1      43.768 -13.417   5.226  1.00  0.00     0.280 HD
HETATM    3  C   UNL     1      44.636 -12.451   6.854  1.00  0.00     0.241 C 
HETATM    4  C   UNL     1      43.963 -11.332   7.640  1.00  0.00     0.031 C 
HETATM    5  C   UNL     1      42.866 -10.896   6.671  1.00  0.00     0.035 C 
HETATM    6  C   UNL     1      42.317 -12.209   6.130  1.00  0.00     0.235 C 
ENDROOT
BRANCH   1   7
HETATM    7  C   UNL     1      43.129 -14.506   6.795  1.00  0.00     0.276 C 
BRANCH   7   8
HETATM    8  C   UNL     1      43.223 -15.646   5.822  1.00  0.00     0.005 A 
HETATM    9  C   UNL     1      43.408 -16.960   6.263  1.00  0.00     0.107 A 
HETATM   10  C   UNL     1      43.561 -18.034   5.374  1.00  0.00     0.103 A 
HETATM   11  C   UNL     1      43.499 -17.792   4.005  1.00  0.00     0.058 A 
HETATM   12  C   UNL     1      43.305 -16.486   3.547  1.00  0.00     0.014 A 
HETATM   13  C   UNL     1      43.179 -15.418   4.441  1.00  0.00     0.030 A 
HETATM   14 BR   UNL     1      43.208 -16.151   1.689  1.00  0.00    -0.051 Br
BRANCH   9  15
HETATM   15  O   UNL     1      43.426 -17.201   7.617  1.00  0.00    -0.357 OA
HETATM   16  H   UNL     1      44.096 -17.916   7.727  1.00  0.00     0.218 HD
ENDBRANCH   9  15
BRANCH  10  17
HETATM   17  O   UNL     1      43.750 -19.251   5.975  1.00  0.00    -0.353 OA
HETATM   18  C   UNL     1      44.094 -20.337   5.116  1.00  0.00     0.210 C 
ENDBRANCH  10  17
ENDBRANCH   7   8
ENDBRANCH   1   7
BRANCH   4  19
HETATM   19  C   UNL     1      44.936 -10.216   8.034  1.00  0.00     0.127 C 
BRANCH  19  20
HETATM   20  N   UNL     1      45.284 -10.322   9.455  1.00  0.00    -0.376 N 
HETATM   21  H   UNL     1      46.259 -10.128   9.663  1.00  0.00     0.161 HD
BRANCH  20  22
HETATM   22  C   UNL     1      44.368  -9.932  10.423  1.00  0.00     0.100 A 
HETATM   23  N   UNL     1      44.010  -8.635  10.479  1.00  0.00    -0.353 N 
HETATM   24  H   UNL     1      44.426  -7.993   9.811  1.00  0.00     0.166 HD
HETATM   25  C   UNL     1      43.148  -8.134  11.377  1.00  0.00     0.089 A 
HETATM   26  C   UNL     1      42.577  -8.959  12.331  1.00  0.00     0.017 A 
HETATM   27  C   UNL     1      42.928 -10.301  12.342  1.00  0.00     0.005 A 
HETATM   28  C   UNL     1      43.827 -10.788  11.393  1.00  0.00     0.048 A 
ENDBRANCH  20  22
ENDBRANCH  19  20
ENDBRANCH   4  19
TORSDOF 7
ENDMDL
MODEL 4
REMARK VINA RESULT:      -7.1      6.985      9.712
REMARK  7 active torsions:
REMARK  status: ('A' for Active; 'I' for Inactive)
REMARK    1  A    between atoms: O_2  and  C_3 
REMARK    2  A    between atoms: C_4  and  O_5 
REMARK    3  A    between atoms: C_6  and  C_7 
REMARK    4  A    between atoms: C_7  and  N_8 
REMARK    5  A    between atoms: C_11  and  C_12 
REMARK    6  A    between atoms: C_12  and  N_13 
REMARK    7  A    between atoms: N_13  and  C_14 
ROOT
HETATM    1  N   UNL     1      44.318 -12.136   6.899  1.00  0.00    -0.067 N 
HETATM    2  H   UNL     1      44.496 -13.130   7.143  1.00  0.00     0.280 HD
HETATM    3  C   UNL     1      43.935 -11.401   8.160  1.00  0.00     0.241 C 
HETATM    4  C   UNL     1      44.657 -10.065   8.031  1.00  0.00     0.031 C 
HETATM    5  C   UNL     1      45.991 -10.495   7.424  1.00  0.00     0.035 C 
HETATM    6  C   UNL     1      45.596 -11.524   6.373  1.00  0.00     0.235 C 
ENDROOT
BRANCH   1   7
HETATM    7  C   UNL     1      43.228 -12.237   5.858  1.00  0.00     0.276 C 
BRANCH   7   8
HETATM    8  C   UNL     1      43.025 -13.630   5.333  1.00  0.00     0.005 A 
HETATM    9  C   UNL     1      42.805 -14.704   6.200  1.00  0.00     0.107 A 
HETATM   10  C   UNL     1      42.675 -16.023   5.741  1.00  0.00     0.103 A 
HETATM   11  C   UNL     1      42.738 -16.271   4.373  1.00  0.00     0.058 A 
HETATM   12  C   UNL     1      42.948 -15.208   3.492  1.00  0.00     0.014 A 
HETATM   13  C   UNL     1      43.102 -13.899   3.961  1.00  0.00     0.030 A 
HETATM   14 BR   UNL     1      43.024 -15.535   1.631  1.00  0.00    -0.051 Br
BRANCH   9  15
HETATM   15  O   UNL     1      42.701 -14.449   7.548  1.00  0.00    -0.357 OA
HETATM   16  H   UNL     1      43.632 -14.468   7.871  1.00  0.00     0.218 HD
ENDBRANCH   9  15
BRANCH  10  17
HETATM   17  O   UNL     1      42.480 -16.955   6.727  1.00  0.00    -0.353 OA
HETATM   18  C   UNL     1      43.406 -18.040   6.767  1.00  0.00     0.210 C 
ENDBRANCH  10  17
ENDBRANCH   7   8
ENDBRANCH   1   7
BRANCH   4  19
HETATM   19  C   UNL     1      44.782  -9.328   9.369  1.00  0.00     0.127 C 
BRANCH  19  20
HETATM   20  N   UNL     1      44.383 -10.206  10.474  1.00  0.00    -0.376 N 
HETATM   21  H   UNL     1      45.116 -10.830  10.798  1.00  0.00     0.161 HD
BRANCH  20  22
HETATM   22  C   UNL     1      43.508  -9.741  11.446  1.00  0.00     0.100 A 
HETATM   23  N   UNL     1      42.414 -10.476  11.726  1.00  0.00    -0.353 N 
HETATM   24  H   UNL     1      42.273 -11.340  11.212  1.00  0.00     0.166 HD
HETATM   25  C   UNL     1      41.489 -10.127  12.632  1.00  0.00     0.089 A 
HETATM   26  C   UNL     1      41.616  -8.941  13.337  1.00  0.00     0.017 A 
HETATM   27  C   UNL     1      42.707  -8.127  13.074  1.00  0.00     0.005 A 
HETATM   28  C   UNL     1      43.650  -8.522  12.125  1.00  0.00     0.048 A 
ENDBRANCH  20  22
ENDBRANCH  19  20
ENDBRANCH   4  19
TORSDOF 7
ENDMDL
MODEL 5
REMARK VINA RESULT:      -7.1      4.662      5.553
REMARK  7 active torsions:
REMARK  status: ('A' for Active; 'I' for Inactive)
REMARK    1  A    between atoms: O_2  and  C_3 
REMARK    2  A    between atoms: C_4  and  O_5 
REMARK    3  A    between atoms: C_6  and  C_7 
REMARK    4  A    between atoms: C_7  and  N_8 
REMARK    5  A    between atoms: C_11  and  C_12 
REMARK    6  A    between atoms: C_12  and  N_13 
REMARK    7  A    between atoms: N_13  and  C_14 
ROOT
HETATM    1  N   UNL     1      41.592 -14.407   5.645  1.00  0.00    -0.067 N 
HETATM    2  H   UNL     1      41.606 -14.048   4.670  1.00  0.00     0.280 HD
HETATM    3  C   UNL     1      41.738 -15.908   5.597  1.00  0.00     0.241 C 
HETATM    4  C   UNL     1      42.673 -16.216   6.761  1.00  0.00     0.031 C 
HETATM    5  C   UNL     1      43.663 -15.057   6.672  1.00  0.00     0.035 C 
HETATM    6  C   UNL     1      42.781 -13.847   6.391  1.00  0.00     0.235 C 
ENDROOT
BRANCH   1   7
HETATM    7  C   UNL     1      40.266 -13.905   6.166  1.00  0.00     0.276 C 
BRANCH   7   8
HETATM    8  C   UNL     1      39.758 -12.689   5.447  1.00  0.00     0.005 A 
HETATM    9  C   UNL     1      39.299 -11.571   6.152  1.00  0.00     0.107 A 
HETATM   10  C   UNL     1      38.762 -10.448   5.507  1.00  0.00     0.103 A 
HETATM   11  C   UNL     1      38.707 -10.429   4.117  1.00  0.00     0.058 A 
HETATM   12  C   UNL     1      39.169 -11.534   3.397  1.00  0.00     0.014 A 
HETATM   13  C   UNL     1      39.681 -12.660   4.049  1.00  0.00     0.030 A 
HETATM   14 BR   UNL     1      39.109 -11.511   1.507  1.00  0.00    -0.051 Br
BRANCH   9  15
HETATM   15  O   UNL     1      39.394 -11.577   7.525  1.00  0.00    -0.357 OA
HETATM   16  H   UNL     1      40.358 -11.465   7.701  1.00  0.00     0.218 HD
ENDBRANCH   9  15
BRANCH  10  17
HETATM   17  O   UNL     1      38.345  -9.451   6.349  1.00  0.00    -0.353 OA
HETATM   18  C   UNL     1      39.077  -8.227   6.296  1.00  0.00     0.210 C 
ENDBRANCH  10  17
ENDBRANCH   7   8
ENDBRANCH   1   7
BRANCH   4  19
HETATM   19  C   UNL     1      43.315 -17.603   6.653  1.00  0.00     0.127 C 
BRANCH  19  20
HETATM   20  N   UNL     1      44.211 -17.662   5.493  1.00  0.00    -0.376 N 
HETATM   21  H   UNL     1      45.193 -17.524   5.715  1.00  0.00     0.161 HD
BRANCH  20  22
HETATM   22  C   UNL     1      43.941 -18.541   4.453  1.00  0.00     0.100 A 
HETATM   23  N   UNL     1      44.121 -19.859   4.669  1.00  0.00    -0.353 N 
HETATM   24  H   UNL     1      44.448 -20.156   5.583  1.00  0.00     0.166 HD
HETATM   25  C   UNL     1      43.910 -20.805   3.740  1.00  0.00     0.089 A 
HETATM   26  C   UNL     1      43.495 -20.451   2.467  1.00  0.00     0.017 A 
HETATM   27  C   UNL     1      43.320 -19.107   2.176  1.00  0.00     0.005 A 
HETATM   28  C   UNL     1      43.548 -18.151   3.166  1.00  0.00     0.048 A 
ENDBRANCH  20  22
ENDBRANCH  19  20
ENDBRANCH   4  19
TORSDOF 7
ENDMDL
MODEL 6
REMARK VINA RESULT:      -7.0      4.735      7.281
REMARK  7 active torsions:
REMARK  status: ('A' for Active; 'I' for Inactive)
REMARK    1  A    between atoms: O_2  and  C_3 
REMARK    2  A    between atoms: C_4  and  O_5 
REMARK    3  A    between atoms: C_6  and  C_7 
REMARK    4  A    between atoms: C_7  and  N_8 
REMARK    5  A    between atoms: C_11  and  C_12 
REMARK    6  A    between atoms: C_12  and  N_13 
REMARK    7  A    between atoms: N_13  and  C_14 
ROOT
HETATM    1  N   UNL     1      41.230 -14.561   6.770  1.00  0.00    -0.067 N 
HETATM    2  H   UNL     1      40.638 -14.390   7.607  1.00  0.00     0.280 HD
HETATM    3  C   UNL     1      41.693 -13.227   6.238  1.00  0.00     0.241 C 
HETATM    4  C   UNL     1      43.143 -13.481   5.844  1.00  0.00     0.031 C 
HETATM    5  C   UNL     1      43.615 -14.385   6.980  1.00  0.00     0.035 C 
HETATM    6  C   UNL     1      42.452 -15.346   7.187  1.00  0.00     0.235 C 
ENDROOT
BRANCH   1   7
HETATM    7  C   UNL     1      40.304 -15.331   5.858  1.00  0.00     0.276 C 
BRANCH   7   8
HETATM    8  C   UNL     1      40.864 -15.558   4.484  1.00  0.00     0.005 A 
HETATM    9  C   UNL     1      40.444 -14.787   3.395  1.00  0.00     0.107 A 
HETATM   10  C   UNL     1      40.904 -15.020   2.091  1.00  0.00     0.103 A 
HETATM   11  C   UNL     1      41.832 -16.035   1.872  1.00  0.00     0.058 A 
HETATM   12  C   UNL     1      42.269 -16.808   2.951  1.00  0.00     0.014 A 
HETATM   13  C   UNL     1      41.786 -16.585   4.244  1.00  0.00     0.030 A 
HETATM   14 BR   UNL     1      43.539 -18.180   2.665  1.00  0.00    -0.051 Br
BRANCH   9  15
HETATM   15  O   UNL     1      39.559 -13.759   3.622  1.00  0.00    -0.357 OA
HETATM   16  H   UNL     1      39.267 -13.487   2.720  1.00  0.00     0.218 HD
ENDBRANCH   9  15
BRANCH  10  17
HETATM   17  O   UNL     1      40.377 -14.184   1.141  1.00  0.00    -0.353 OA
HETATM   18  C   UNL     1      39.928 -14.797  -0.067  1.00  0.00     0.210 C 
ENDBRANCH  10  17
ENDBRANCH   7   8
ENDBRANCH   1   7
BRANCH   4  19
HETATM   19  C   UNL     1      43.950 -12.187   5.691  1.00  0.00     0.127 C 
BRANCH  19  20
HETATM   20  N   UNL     1      45.009 -12.124   6.704  1.00  0.00    -0.376 N 
HETATM   21  H   UNL     1      45.932 -12.373   6.360  1.00  0.00     0.161 HD
BRANCH  20  22
HETATM   22  C   UNL     1      44.972 -11.143   7.685  1.00  0.00     0.100 A 
HETATM   23  N   UNL     1      43.908 -11.106   8.511  1.00  0.00    -0.353 N 
HETATM   24  H   UNL     1      43.176 -11.797   8.381  1.00  0.00     0.166 HD
HETATM   25  C   UNL     1      43.749 -10.199   9.487  1.00  0.00     0.089 A 
HETATM   26  C   UNL     1      44.703  -9.214   9.685  1.00  0.00     0.017 A 
HETATM   27  C   UNL     1      45.808  -9.183   8.848  1.00  0.00     0.005 A 
HETATM   28  C   UNL     1      45.941 -10.143   7.844  1.00  0.00     0.048 A 
ENDBRANCH  20  22
ENDBRANCH  19  20
ENDBRANCH   4  19
TORSDOF 7
ENDMDL
MODEL 7
REMARK VINA RESULT:      -6.9      3.326      4.481
REMARK  7 active torsions:
REMARK  status: ('A' for Active; 'I' for Inactive)
REMARK    1  A    between atoms: O_2  and  C_3 
REMARK    2  A    between atoms: C_4  and  O_5 
REMARK    3  A    between atoms: C_6  and  C_7 
REMARK    4  A    between atoms: C_7  and  N_8 
REMARK    5  A    between atoms: C_11  and  C_12 
REMARK    6  A    between atoms: C_12  and  N_13 
REMARK    7  A    between atoms: N_13  and  C_14 
ROOT
HETATM    1  N   UNL     1      41.646 -14.370   5.549  1.00  0.00    -0.067 N 
HETATM    2  H   UNL     1      41.692 -14.004   4.577  1.00  0.00     0.280 HD
HETATM    3  C   UNL     1      41.770 -15.872   5.494  1.00  0.00     0.241 C 
HETATM    4  C   UNL     1      42.668 -16.202   6.681  1.00  0.00     0.031 C 
HETATM    5  C   UNL     1      43.677 -15.058   6.629  1.00  0.00     0.035 C 
HETATM    6  C   UNL     1      42.821 -13.833   6.332  1.00  0.00     0.235 C 
ENDROOT
BRANCH   1   7
HETATM    7  C   UNL     1      40.313 -13.852   6.037  1.00  0.00     0.276 C 
BRANCH   7   8
HETATM    8  C   UNL     1      39.765 -12.725   5.210  1.00  0.00     0.005 A 
HETATM    9  C   UNL     1      39.476 -12.899   3.852  1.00  0.00     0.107 A 
HETATM   10  C   UNL     1      39.023 -11.848   3.042  1.00  0.00     0.103 A 
HETATM   11  C   UNL     1      38.827 -10.593   3.612  1.00  0.00     0.058 A 
HETATM   12  C   UNL     1      39.102 -10.404   4.968  1.00  0.00     0.014 A 
HETATM   13  C   UNL     1      39.577 -11.453   5.763  1.00  0.00     0.030 A 
HETATM   14 BR   UNL     1      38.826  -8.706   5.752  1.00  0.00    -0.051 Br
BRANCH   9  15
HETATM   15  O   UNL     1      39.632 -14.151   3.304  1.00  0.00    -0.357 OA
HETATM   16  H   UNL     1      39.588 -14.761   4.077  1.00  0.00     0.218 HD
ENDBRANCH   9  15
BRANCH  10  17
HETATM   17  O   UNL     1      38.805 -12.188   1.733  1.00  0.00    -0.353 OA
HETATM   18  C   UNL     1      39.698 -11.625   0.773  1.00  0.00     0.210 C 
ENDBRANCH  10  17
ENDBRANCH   7   8
ENDBRANCH   1   7
BRANCH   4  19
HETATM   19  C   UNL     1      43.293 -17.598   6.581  1.00  0.00     0.127 C 
BRANCH  19  20
HETATM   20  N   UNL     1      44.195 -17.672   5.427  1.00  0.00    -0.376 N 
HETATM   21  H   UNL     1      45.177 -17.544   5.654  1.00  0.00     0.161 HD
BRANCH  20  22
HETATM   22  C   UNL     1      43.921 -18.552   4.389  1.00  0.00     0.100 A 
HETATM   23  N   UNL     1      44.121 -19.868   4.599  1.00  0.00    -0.353 N 
HETATM   24  H   UNL     1      44.465 -20.163   5.507  1.00  0.00     0.166 HD
HETATM   25  C   UNL     1      43.908 -20.815   3.671  1.00  0.00     0.089 A 
HETATM   26  C   UNL     1      43.471 -20.464   2.405  1.00  0.00     0.017 A 
HETATM   27  C   UNL     1      43.274 -19.122   2.119  1.00  0.00     0.005 A 
HETATM   28  C   UNL     1      43.505 -18.164   3.108  1.00  0.00     0.048 A 
ENDBRANCH  20  22
ENDBRANCH  19  20
ENDBRANCH   4  19
TORSDOF 7
ENDMDL
MODEL 8
REMARK VINA RESULT:      -6.9      2.529      3.178
REMARK  7 active torsions:
REMARK  status: ('A' for Active; 'I' for Inactive)
REMARK    1  A    between atoms: O_2  and  C_3 
REMARK    2  A    between atoms: C_4  and  O_5 
REMARK    3  A    between atoms: C_6  and  C_7 
REMARK    4  A    between atoms: C_7  and  N_8 
REMARK    5  A    between atoms: C_11  and  C_12 
REMARK    6  A    between atoms: C_12  and  N_13 
REMARK    7  A    between atoms: N_13  and  C_14 
ROOT
HETATM    1  N   UNL     1      42.343 -13.337   3.660  1.00  0.00    -0.067 N 
HETATM    2  H   UNL     1      43.014 -12.954   2.965  1.00  0.00     0.280 HD
HETATM    3  C   UNL     1      42.544 -14.830   3.739  1.00  0.00     0.241 C 
HETATM    4  C   UNL     1      42.423 -15.131   5.228  1.00  0.00     0.031 C 
HETATM    5  C   UNL     1      43.148 -13.936   5.842  1.00  0.00     0.035 C 
HETATM    6  C   UNL     1      42.657 -12.753   5.018  1.00  0.00     0.235 C 
ENDROOT
BRANCH   1   7
HETATM    7  C   UNL     1      41.006 -12.896   3.112  1.00  0.00     0.276 C 
BRANCH   7   8
HETATM    8  C   UNL     1      41.069 -12.405   1.694  1.00  0.00     0.005 A 
HETATM    9  C   UNL     1      41.580 -11.139   1.389  1.00  0.00     0.107 A 
HETATM   10  C   UNL     1      41.593 -10.632   0.082  1.00  0.00     0.103 A 
HETATM   11  C   UNL     1      41.106 -11.423  -0.955  1.00  0.00     0.058 A 
HETATM   12  C   UNL     1      40.600 -12.694  -0.668  1.00  0.00     0.014 A 
HETATM   13  C   UNL     1      40.569 -13.182   0.642  1.00  0.00     0.030 A 
HETATM   14 BR   UNL     1      39.948 -13.779  -2.073  1.00  0.00    -0.051 Br
BRANCH   9  15
HETATM   15  O   UNL     1      42.099 -10.378   2.411  1.00  0.00    -0.357 OA
HETATM   16  H   UNL     1      42.013  -9.450   2.088  1.00  0.00     0.218 HD
ENDBRANCH   9  15
BRANCH  10  17
HETATM   17  O   UNL     1      42.113  -9.370  -0.036  1.00  0.00    -0.353 OA
HETATM   18  C   UNL     1      42.245  -8.858  -1.362  1.00  0.00     0.210 C 
ENDBRANCH  10  17
ENDBRANCH   7   8
ENDBRANCH   1   7
BRANCH   4  19
HETATM   19  C   UNL     1      43.018 -16.492   5.607  1.00  0.00     0.127 C 
BRANCH  19  20
HETATM   20  N   UNL     1      43.958 -16.942   4.575  1.00  0.00    -0.376 N 
HETATM   21  H   UNL     1      44.898 -16.570   4.674  1.00  0.00     0.161 HD
BRANCH  20  22
HETATM   22  C   UNL     1      43.866 -18.232   4.070  1.00  0.00     0.100 A 
HETATM   23  N   UNL     1      44.164 -19.261   4.887  1.00  0.00    -0.353 N 
HETATM   24  H   UNL     1      44.445 -19.052   5.840  1.00  0.00     0.166 HD
HETATM   25  C   UNL     1      44.127 -20.549   4.513  1.00  0.00     0.089 A 
HETATM   26  C   UNL     1      43.782 -20.888   3.215  1.00  0.00     0.017 A 
HETATM   27  C   UNL     1      43.492 -19.871   2.319  1.00  0.00     0.005 A 
HETATM   28  C   UNL     1      43.540 -18.543   2.743  1.00  0.00     0.048 A 
ENDBRANCH  20  22
ENDBRANCH  19  20
ENDBRANCH   4  19
TORSDOF 7
ENDMDL
MODEL 9
REMARK VINA RESULT:      -6.8      6.123      8.763
REMARK  7 active torsions:
REMARK  status: ('A' for Active; 'I' for Inactive)
REMARK    1  A    between atoms: O_2  and  C_3 
REMARK    2  A    between atoms: C_4  and  O_5 
REMARK    3  A    between atoms: C_6  and  C_7 
REMARK    4  A    between atoms: C_7  and  N_8 
REMARK    5  A    between atoms: C_11  and  C_12 
REMARK    6  A    between atoms: C_12  and  N_13 
REMARK    7  A    between atoms: N_13  and  C_14 
ROOT
HETATM    1  N   UNL     1      43.462 -13.177   5.737  1.00  0.00    -0.067 N 
HETATM    2  H   UNL     1      44.224 -13.630   5.195  1.00  0.00     0.280 HD
HETATM    3  C   UNL     1      44.066 -12.552   6.970  1.00  0.00     0.241 C 
HETATM    4  C   UNL     1      43.331 -11.223   7.097  1.00  0.00     0.031 C 
HETATM    5  C   UNL     1      43.228 -10.789   5.637  1.00  0.00     0.035 C 
HETATM    6  C   UNL     1      42.858 -12.071   4.902  1.00  0.00     0.235 C 
ENDROOT
BRANCH   1   7
HETATM    7  C   UNL     1      42.511 -14.321   5.995  1.00  0.00     0.276 C 
BRANCH   7   8
HETATM    8  C   UNL     1      42.406 -15.288   4.851  1.00  0.00     0.005 A 
HETATM    9  C   UNL     1      43.320 -16.337   4.704  1.00  0.00     0.107 A 
HETATM   10  C   UNL     1      43.283 -17.215   3.611  1.00  0.00     0.103 A 
HETATM   11  C   UNL     1      42.286 -17.058   2.652  1.00  0.00     0.058 A 
HETATM   12  C   UNL     1      41.360 -16.021   2.788  1.00  0.00     0.014 A 
HETATM   13  C   UNL     1      41.420 -15.135   3.868  1.00  0.00     0.030 A 
HETATM   14 BR   UNL     1      39.996 -15.809   1.496  1.00  0.00    -0.051 Br
BRANCH   9  15
HETATM   15  O   UNL     1      44.277 -16.513   5.676  1.00  0.00    -0.357 OA
HETATM   16  H   UNL     1      44.907 -15.768   5.534  1.00  0.00     0.218 HD
ENDBRANCH   9  15
BRANCH  10  17
HETATM   17  O   UNL     1      44.261 -18.173   3.615  1.00  0.00    -0.353 OA
HETATM   18  C   UNL     1      43.923 -19.429   3.027  1.00  0.00     0.210 C 
ENDBRANCH  10  17
ENDBRANCH   7   8
ENDBRANCH   1   7
BRANCH   4  19
HETATM   19  C   UNL     1      44.062 -10.226   8.001  1.00  0.00     0.127 C 
BRANCH  19  20
HETATM   20  N   UNL     1      44.307 -10.818   9.320  1.00  0.00    -0.376 N 
HETATM   21  H   UNL     1      45.208 -11.280   9.411  1.00  0.00     0.161 HD
BRANCH  20  22
HETATM   22  C   UNL     1      43.831 -10.189  10.462  1.00  0.00     0.100 A 
HETATM   23  N   UNL     1      43.011 -10.880  11.278  1.00  0.00    -0.353 N 
HETATM   24  H   UNL     1      42.773 -11.833  11.023  1.00  0.00     0.166 HD
HETATM   25  C   UNL     1      42.474 -10.378  12.400  1.00  0.00     0.089 A 
HETATM   26  C   UNL     1      42.739  -9.071  12.776  1.00  0.00     0.017 A 
HETATM   27  C   UNL     1      43.554  -8.300  11.962  1.00  0.00     0.005 A 
HETATM   28  C   UNL     1      44.096  -8.855  10.802  1.00  0.00     0.048 A 
ENDBRANCH  20  22
ENDBRANCH  19  20
ENDBRANCH   4  19
TORSDOF 7
ENDMDL
MODEL 10
REMARK VINA RESULT:      -6.8      3.786      4.641
REMARK  7 active torsions:
REMARK  status: ('A' for Active; 'I' for Inactive)
REMARK    1  A    between atoms: O_2  and  C_3 
REMARK    2  A    between atoms: C_4  and  O_5 
REMARK    3  A    between atoms: C_6  and  C_7 
REMARK    4  A    between atoms: C_7  and  N_8 
REMARK    5  A    between atoms: C_11  and  C_12 
REMARK    6  A    between atoms: C_12  and  N_13 
REMARK    7  A    between atoms: N_13  and  C_14 
ROOT
HETATM    1  N   UNL     1      42.046 -13.843   6.619  1.00  0.00    -0.067 N 
HETATM    2  H   UNL     1      42.037 -13.284   7.496  1.00  0.00     0.280 HD
HETATM    3  C   UNL     1      43.121 -14.894   6.740  1.00  0.00     0.241 C 
HETATM    4  C   UNL     1      42.485 -16.131   6.117  1.00  0.00     0.031 C 
HETATM    5  C   UNL     1      41.049 -16.027   6.626  1.00  0.00     0.035 C 
HETATM    6  C   UNL     1      40.718 -14.548   6.475  1.00  0.00     0.235 C 
ENDROOT
BRANCH   1   7
HETATM    7  C   UNL     1      42.287 -12.795   5.558  1.00  0.00     0.276 C 
BRANCH   7   8
HETATM    8  C   UNL     1      41.272 -12.813   4.452  1.00  0.00     0.005 A 
HETATM    9  C   UNL     1      40.311 -11.803   4.336  1.00  0.00     0.107 A 
HETATM   10  C   UNL     1      39.313 -11.829   3.351  1.00  0.00     0.103 A 
HETATM   11  C   UNL     1      39.291 -12.879   2.438  1.00  0.00     0.058 A 
HETATM   12  C   UNL     1      40.249 -13.891   2.534  1.00  0.00     0.014 A 
HETATM   13  C   UNL     1      41.226 -13.871   3.535  1.00  0.00     0.030 A 
HETATM   14 BR   UNL     1      40.234 -15.316   1.290  1.00  0.00    -0.051 Br
BRANCH   9  15
HETATM   15  O   UNL     1      40.361 -10.745   5.214  1.00  0.00    -0.357 OA
HETATM   16  H   UNL     1      41.052 -11.007   5.868  1.00  0.00     0.218 HD
ENDBRANCH   9  15
BRANCH  10  17
HETATM   17  O   UNL     1      38.443 -10.771   3.391  1.00  0.00    -0.353 OA
HETATM   18  C   UNL     1      38.352  -9.978   2.208  1.00  0.00     0.210 C 
ENDBRANCH  10  17
ENDBRANCH   7   8
ENDBRANCH   1   7
BRANCH   4  19
HETATM   19  C   UNL     1      43.201 -17.428   6.512  1.00  0.00     0.127 C 
BRANCH  19  20
HETATM   20  N   UNL     1      44.235 -17.759   5.526  1.00  0.00    -0.376 N 
HETATM   21  H   UNL     1      45.164 -17.882   5.918  1.00  0.00     0.161 HD
BRANCH  20  22
HETATM   22  C   UNL     1      43.924 -18.567   4.440  1.00  0.00     0.100 A 
HETATM   23  N   UNL     1      44.114 -19.895   4.557  1.00  0.00    -0.353 N 
HETATM   24  H   UNL     1      44.478 -20.252   5.435  1.00  0.00     0.166 HD
HETATM   25  C   UNL     1      43.865 -20.776   3.576  1.00  0.00     0.089 A 
HETATM   26  C   UNL     1      43.398 -20.338   2.348  1.00  0.00     0.017 A 
HETATM   27  C   UNL     1      43.210 -18.979   2.157  1.00  0.00     0.005 A 
HETATM   28  C   UNL     1      43.477 -18.091   3.200  1.00  0.00     0.048 A 
ENDBRANCH  20  22
ENDBRANCH  19  20
ENDBRANCH   4  19
TORSDOF 7
ENDMDL
