MODEL 1
REMARK VINA RESULT:      -9.7      0.000      0.000
REMARK  6 active torsions:
REMARK  status: ('A' for Active; 'I' for Inactive)
REMARK    1  A    between atoms: C_2  and  O_3 
REMARK    2  A    between atoms: C_2  and  C_4 
REMARK    3  A    between atoms: C_6  and  N_7 
REMARK       I    between atoms: N_7  and  C_8 
REMARK    4  A    between atoms: C_8  and  C_9 
REMARK    5  A    between atoms: C_14  and  C_15 
REMARK    6  A    between atoms: C_23  and  C_24 
ROOT
HETATM    1  C   UNL     1      42.715 -12.563   6.084  1.00  0.00     0.148 A 
HETATM    2  N   UNL     1      41.497 -13.070   5.772  1.00  0.00    -0.165 NA
HETATM    3  N   UNL     1      41.802 -14.221   5.139  1.00  0.00    -0.240 N 
HETATM    4  C   UNL     1      43.136 -14.422   4.958  1.00  0.00     0.123 A 
HETATM    5  N   UNL     1      43.588 -15.522   4.331  1.00  0.00    -0.366 N 
HETATM    6  C   UNL     1      42.779 -16.188   3.317  1.00  0.00     0.118 C 
HETATM    7  C   UNL     1      41.259 -15.955   3.468  1.00  0.00     0.066 C 
HETATM    8  C   UNL     1      40.800 -15.177   4.718  1.00  0.00     0.221 C 
HETATM    9  C   UNL     1      43.765 -13.378   5.575  1.00  0.00     0.089 A 
HETATM   10  H   UNL     1      44.593 -15.620   4.173  1.00  0.00     0.161 HD
ENDROOT
BRANCH   1  11
HETATM   11  C   UNL     1      42.895 -11.336   6.879  1.00  0.00     0.276 C 
HETATM   12  N   UNL     1      43.434 -11.584   8.126  1.00  0.00    -0.322 N 
HETATM   13  H   UNL     1      43.575 -12.572   8.321  1.00  0.00     0.169 HD
HETATM   14  O   UNL     1      42.588 -10.239   6.420  1.00  0.00    -0.266 OA
BRANCH  12  15
HETATM   15  C   UNL     1      43.835 -10.647   9.095  1.00  0.00     0.035 A 
HETATM   16  C   UNL     1      42.964 -10.085  10.034  1.00  0.00     0.039 A 
HETATM   17  C   UNL     1      43.410  -9.128  10.962  1.00  0.00    -0.028 A 
HETATM   18  C   UNL     1      44.755  -8.739  10.935  1.00  0.00     0.010 A 
HETATM   19  C   UNL     1      45.634  -9.300  10.010  1.00  0.00     0.003 A 
HETATM   20  C   UNL     1      45.174 -10.247   9.092  1.00  0.00     0.029 A 
BRANCH  17  21
HETATM   21  C   UNL     1      42.428  -8.512  11.935  1.00  0.00     0.147 C 
HETATM   22  C   UNL     1      43.127  -7.884  13.132  1.00  0.00     0.044 C 
BRANCH  21  23
HETATM   23  O   UNL     1      41.509  -9.498  12.401  1.00  0.00    -0.391 OA
HETATM   24  H   UNL     1      41.870  -9.838  13.238  1.00  0.00     0.210 HD
ENDBRANCH  21  23
ENDBRANCH  17  21
ENDBRANCH  12  15
ENDBRANCH   1  11
BRANCH   8  25
HETATM   25  C   UNL     1      40.442 -16.089   5.870  1.00  0.00     0.409 C 
HETATM   26  F   UNL     1      39.862 -15.417   6.891  1.00  0.00    -0.169 F 
HETATM   27  F   UNL     1      39.533 -17.012   5.460  1.00  0.00    -0.169 F 
HETATM   28  F   UNL     1      41.490 -16.769   6.371  1.00  0.00    -0.169 F 
ENDBRANCH   8  25
BRANCH   6  29
HETATM   29  C   UNL     1      43.171 -17.655   3.252  1.00  0.00    -0.035 A 
HETATM   30  C   UNL     1      42.848 -18.456   2.143  1.00  0.00     0.012 A 
HETATM   31  C   UNL     1      43.173 -19.814   2.121  1.00  0.00     0.043 A 
HETATM   32  C   UNL     1      43.821 -20.380   3.210  1.00  0.00     0.116 A 
HETATM   33  F   UNL     1      44.117 -21.686   3.198  1.00  0.00    -0.206 F 
HETATM   34  C   UNL     1      44.159 -19.611   4.317  1.00  0.00     0.043 A 
HETATM   35  C   UNL     1      43.839 -18.251   4.337  1.00  0.00     0.012 A 
ENDBRANCH   6  29
TORSDOF 6
ENDMDL
MODEL 2
REMARK VINA RESULT:      -9.4      1.259      1.678
REMARK  6 active torsions:
REMARK  status: ('A' for Active; 'I' for Inactive)
REMARK    1  A    between atoms: C_2  and  O_3 
REMARK    2  A    between atoms: C_2  and  C_4 
REMARK    3  A    between atoms: C_6  and  N_7 
REMARK       I    between atoms: N_7  and  C_8 
REMARK    4  A    between atoms: C_8  and  C_9 
REMARK    5  A    between atoms: C_14  and  C_15 
REMARK    6  A    between atoms: C_23  and  C_24 
ROOT
HETATM    1  C   UNL     1      43.429 -12.558   6.837  1.00  0.00     0.148 A 
HETATM    2  N   UNL     1      42.179 -12.848   6.398  1.00  0.00    -0.165 NA
HETATM    3  N   UNL     1      42.358 -13.991   5.706  1.00  0.00    -0.240 N 
HETATM    4  C   UNL     1      43.657 -14.387   5.611  1.00  0.00     0.123 A 
HETATM    5  N   UNL     1      43.989 -15.504   4.940  1.00  0.00    -0.366 N 
HETATM    6  C   UNL     1      43.178 -15.971   3.822  1.00  0.00     0.118 C 
HETATM    7  C   UNL     1      41.703 -15.512   3.876  1.00  0.00     0.066 C 
HETATM    8  C   UNL     1      41.263 -14.750   5.142  1.00  0.00     0.221 C 
HETATM    9  C   UNL     1      44.382 -13.495   6.348  1.00  0.00     0.089 A 
HETATM   10  H   UNL     1      44.977 -15.748   4.850  1.00  0.00     0.161 HD
ENDROOT
BRANCH   1  11
HETATM   11  C   UNL     1      43.724 -11.425   7.731  1.00  0.00     0.276 C 
HETATM   12  N   UNL     1      42.673 -10.534   7.824  1.00  0.00    -0.322 N 
HETATM   13  H   UNL     1      41.884 -10.768   7.226  1.00  0.00     0.169 HD
HETATM   14  O   UNL     1      44.803 -11.346   8.311  1.00  0.00    -0.266 OA
BRANCH  12  15
HETATM   15  C   UNL     1      42.567  -9.408   8.661  1.00  0.00     0.035 A 
HETATM   16  C   UNL     1      42.386  -9.489  10.045  1.00  0.00     0.039 A 
HETATM   17  C   UNL     1      42.254  -8.331  10.832  1.00  0.00    -0.028 A 
HETATM   18  C   UNL     1      42.307  -7.080  10.205  1.00  0.00     0.010 A 
HETATM   19  C   UNL     1      42.495  -6.988   8.827  1.00  0.00     0.003 A 
HETATM   20  C   UNL     1      42.621  -8.148   8.059  1.00  0.00     0.029 A 
BRANCH  17  21
HETATM   21  C   UNL     1      42.018  -8.460  12.321  1.00  0.00     0.147 C 
HETATM   22  C   UNL     1      43.142  -7.833  13.135  1.00  0.00     0.044 C 
BRANCH  21  23
HETATM   23  O   UNL     1      41.895  -9.834  12.686  1.00  0.00    -0.391 OA
HETATM   24  H   UNL     1      42.210  -9.905  13.604  1.00  0.00     0.210 HD
ENDBRANCH  21  23
ENDBRANCH  17  21
ENDBRANCH  12  15
ENDBRANCH   1  11
BRANCH   8  25
HETATM   25  C   UNL     1      40.674 -15.663   6.194  1.00  0.00     0.409 C 
HETATM   26  F   UNL     1      39.612 -15.104   6.818  1.00  0.00    -0.169 F 
HETATM   27  F   UNL     1      40.213 -16.801   5.610  1.00  0.00    -0.169 F 
HETATM   28  F   UNL     1      41.553 -16.040   7.141  1.00  0.00    -0.169 F 
ENDBRANCH   8  25
BRANCH   6  29
HETATM   29  C   UNL     1      43.347 -17.475   3.678  1.00  0.00    -0.035 A 
HETATM   30  C   UNL     1      43.836 -18.267   4.731  1.00  0.00     0.012 A 
HETATM   31  C   UNL     1      44.030 -19.639   4.564  1.00  0.00     0.043 A 
HETATM   32  C   UNL     1      43.738 -20.228   3.342  1.00  0.00     0.116 A 
HETATM   33  F   UNL     1      43.942 -21.541   3.176  1.00  0.00    -0.206 F 
HETATM   34  C   UNL     1      43.247 -19.472   2.286  1.00  0.00     0.043 A 
HETATM   35  C   UNL     1      43.046 -18.100   2.454  1.00  0.00     0.012 A 
ENDBRANCH   6  29
TORSDOF 6
ENDMDL
MODEL 3
REMARK VINA RESULT:      -9.3      7.051     10.398
REMARK  6 active torsions:
REMARK  status: ('A' for Active; 'I' for Inactive)
REMARK    1  A    between atoms: C_2  and  O_3 
REMARK    2  A    between atoms: C_2  and  C_4 
REMARK    3  A    between atoms: C_6  and  N_7 
REMARK       I    between atoms: N_7  and  C_8 
REMARK    4  A    between atoms: C_8  and  C_9 
REMARK    5  A    between atoms: C_14  and  C_15 
REMARK    6  A    between atoms: C_23  and  C_24 
ROOT
HETATM    1  C   UNL     1      40.808 -14.228   1.238  1.00  0.00     0.148 A 
HETATM    2  N   UNL     1      39.841 -14.208   0.288  1.00  0.00    -0.165 NA
HETATM    3  N   UNL     1      40.039 -13.022  -0.321  1.00  0.00    -0.240 N 
HETATM    4  C   UNL     1      41.014 -12.260   0.246  1.00  0.00     0.123 A 
HETATM    5  N   UNL     1      41.313 -11.046  -0.248  1.00  0.00    -0.366 N 
HETATM    6  C   UNL     1      40.300 -10.246  -0.927  1.00  0.00     0.118 C 
HETATM    7  C   UNL     1      39.157 -11.074  -1.555  1.00  0.00     0.066 C 
HETATM    8  C   UNL     1      39.303 -12.609  -1.497  1.00  0.00     0.221 C 
HETATM    9  C   UNL     1      41.551 -13.014   1.249  1.00  0.00     0.089 A 
HETATM   10  H   UNL     1      42.019 -10.482   0.228  1.00  0.00     0.161 HD
ENDROOT
BRANCH   1  11
HETATM   11  C   UNL     1      41.052 -15.388   2.113  1.00  0.00     0.276 C 
HETATM   12  N   UNL     1      42.392 -15.702   2.217  1.00  0.00    -0.322 N 
HETATM   13  H   UNL     1      42.995 -15.122   1.639  1.00  0.00     0.169 HD
HETATM   14  O   UNL     1      40.121 -15.963   2.669  1.00  0.00    -0.266 OA
BRANCH  12  15
HETATM   15  C   UNL     1      42.990 -16.672   3.042  1.00  0.00     0.035 A 
HETATM   16  C   UNL     1      43.320 -17.960   2.608  1.00  0.00     0.039 A 
HETATM   17  C   UNL     1      43.887 -18.902   3.484  1.00  0.00    -0.028 A 
HETATM   18  C   UNL     1      44.123 -18.531   4.813  1.00  0.00     0.010 A 
HETATM   19  C   UNL     1      43.806 -17.247   5.254  1.00  0.00     0.003 A 
HETATM   20  C   UNL     1      43.239 -16.324   4.372  1.00  0.00     0.029 A 
BRANCH  17  21
HETATM   21  C   UNL     1      44.192 -20.299   2.987  1.00  0.00     0.147 C 
HETATM   22  C   UNL     1      43.481 -20.607   1.676  1.00  0.00     0.044 C 
BRANCH  21  23
HETATM   23  O   UNL     1      43.804 -21.266   3.961  1.00  0.00    -0.391 OA
HETATM   24  H   UNL     1      43.947 -22.139   3.555  1.00  0.00     0.210 HD
ENDBRANCH  21  23
ENDBRANCH  17  21
ENDBRANCH  12  15
ENDBRANCH   1  11
BRANCH   8  25
HETATM   25  C   UNL     1      39.953 -13.176  -2.738  1.00  0.00     0.409 C 
HETATM   26  F   UNL     1      40.502 -14.393  -2.516  1.00  0.00    -0.169 F 
HETATM   27  F   UNL     1      39.018 -13.355  -3.707  1.00  0.00    -0.169 F 
HETATM   28  F   UNL     1      40.910 -12.386  -3.260  1.00  0.00    -0.169 F 
ENDBRANCH   8  25
BRANCH   6  29
HETATM   29  C   UNL     1      40.982  -9.304  -1.905  1.00  0.00    -0.035 A 
HETATM   30  C   UNL     1      40.534  -9.163  -3.229  1.00  0.00     0.012 A 
HETATM   31  C   UNL     1      41.202  -8.329  -4.128  1.00  0.00     0.043 A 
HETATM   32  C   UNL     1      42.326  -7.632  -3.707  1.00  0.00     0.116 A 
HETATM   33  F   UNL     1      42.979  -6.846  -4.573  1.00  0.00    -0.206 F 
HETATM   34  C   UNL     1      42.788  -7.746  -2.402  1.00  0.00     0.043 A 
HETATM   35  C   UNL     1      42.117  -8.575  -1.501  1.00  0.00     0.012 A 
ENDBRANCH   6  29
TORSDOF 6
ENDMDL
MODEL 4
REMARK VINA RESULT:      -9.2      2.927      3.483
REMARK  6 active torsions:
REMARK  status: ('A' for Active; 'I' for Inactive)
REMARK    1  A    between atoms: C_2  and  O_3 
REMARK    2  A    between atoms: C_2  and  C_4 
REMARK    3  A    between atoms: C_6  and  N_7 
REMARK       I    between atoms: N_7  and  C_8 
REMARK    4  A    between atoms: C_8  and  C_9 
REMARK    5  A    between atoms: C_14  and  C_15 
REMARK    6  A    between atoms: C_23  and  C_24 
ROOT
HETATM    1  C   UNL     1      40.366 -12.646   5.648  1.00  0.00     0.148 A 
HETATM    2  N   UNL     1      40.444 -12.657   4.294  1.00  0.00    -0.165 NA
HETATM    3  N   UNL     1      41.169 -13.764   4.041  1.00  0.00    -0.240 N 
HETATM    4  C   UNL     1      41.624 -14.399   5.156  1.00  0.00     0.123 A 
HETATM    5  N   UNL     1      42.373 -15.512   5.058  1.00  0.00    -0.366 N 
HETATM    6  C   UNL     1      43.226 -15.737   3.897  1.00  0.00     0.118 C 
HETATM    7  C   UNL     1      42.760 -15.004   2.618  1.00  0.00     0.066 C 
HETATM    8  C   UNL     1      41.414 -14.257   2.703  1.00  0.00     0.221 C 
HETATM    9  C   UNL     1      41.108 -13.716   6.220  1.00  0.00     0.089 A 
HETATM   10  H   UNL     1      42.735 -15.938   5.913  1.00  0.00     0.161 HD
ENDROOT
BRANCH   1  11
HETATM   11  C   UNL     1      39.577 -11.654   6.399  1.00  0.00     0.276 C 
HETATM   12  N   UNL     1      40.369 -10.756   7.086  1.00  0.00    -0.322 N 
HETATM   13  H   UNL     1      41.365 -10.946   7.009  1.00  0.00     0.169 HD
HETATM   14  O   UNL     1      38.350 -11.673   6.368  1.00  0.00    -0.266 OA
BRANCH  12  15
HETATM   15  C   UNL     1      39.959  -9.623   7.812  1.00  0.00     0.035 A 
HETATM   16  C   UNL     1      39.964  -9.556   9.209  1.00  0.00     0.039 A 
HETATM   17  C   UNL     1      39.513  -8.410   9.887  1.00  0.00    -0.028 A 
HETATM   18  C   UNL     1      39.054  -7.320   9.137  1.00  0.00     0.010 A 
HETATM   19  C   UNL     1      39.052  -7.373   7.744  1.00  0.00     0.003 A 
HETATM   20  C   UNL     1      39.500  -8.521   7.086  1.00  0.00     0.029 A 
BRANCH  17  21
HETATM   21  C   UNL     1      39.495  -8.392  11.400  1.00  0.00     0.147 C 
HETATM   22  C   UNL     1      39.728  -9.776  11.991  1.00  0.00     0.044 C 
BRANCH  21  23
HETATM   23  O   UNL     1      38.247  -7.891  11.875  1.00  0.00    -0.391 OA
HETATM   24  H   UNL     1      37.572  -8.184  11.238  1.00  0.00     0.210 HD
ENDBRANCH  21  23
ENDBRANCH  17  21
ENDBRANCH  12  15
ENDBRANCH   1  11
BRANCH   8  25
HETATM   25  C   UNL     1      40.250 -15.105   2.244  1.00  0.00     0.409 C 
HETATM   26  F   UNL     1      39.134 -14.369   2.033  1.00  0.00    -0.169 F 
HETATM   27  F   UNL     1      40.547 -15.690   1.054  1.00  0.00    -0.169 F 
HETATM   28  F   UNL     1      39.930 -16.096   3.097  1.00  0.00    -0.169 F 
ENDBRANCH   8  25
BRANCH   6  29
HETATM   29  C   UNL     1      43.426 -17.232   3.708  1.00  0.00    -0.035 A 
HETATM   30  C   UNL     1      44.051 -18.023   4.687  1.00  0.00     0.012 A 
HETATM   31  C   UNL     1      44.269 -19.385   4.476  1.00  0.00     0.043 A 
HETATM   32  C   UNL     1      43.867 -19.965   3.281  1.00  0.00     0.116 A 
HETATM   33  F   UNL     1      44.093 -21.268   3.070  1.00  0.00    -0.206 F 
HETATM   34  C   UNL     1      43.241 -19.210   2.297  1.00  0.00     0.043 A 
HETATM   35  C   UNL     1      43.016 -17.848   2.511  1.00  0.00     0.012 A 
ENDBRANCH   6  29
TORSDOF 6
ENDMDL
MODEL 5
REMARK VINA RESULT:      -8.9      3.996     10.419
REMARK  6 active torsions:
REMARK  status: ('A' for Active; 'I' for Inactive)
REMARK    1  A    between atoms: C_2  and  O_3 
REMARK    2  A    between atoms: C_2  and  C_4 
REMARK    3  A    between atoms: C_6  and  N_7 
REMARK       I    between atoms: N_7  and  C_8 
REMARK    4  A    between atoms: C_8  and  C_9 
REMARK    5  A    between atoms: C_14  and  C_15 
REMARK    6  A    between atoms: C_23  and  C_24 
ROOT
HETATM    1  C   UNL     1      42.370 -10.935   6.299  1.00  0.00     0.148 A 
HETATM    2  N   UNL     1      43.640 -10.496   6.485  1.00  0.00    -0.165 NA
HETATM    3  N   UNL     1      43.531  -9.703   7.570  1.00  0.00    -0.240 N 
HETATM    4  C   UNL     1      42.256  -9.550   8.023  1.00  0.00     0.123 A 
HETATM    5  N   UNL     1      41.993  -8.778   9.091  1.00  0.00    -0.366 N 
HETATM    6  C   UNL     1      42.844  -7.639   9.416  1.00  0.00     0.118 C 
HETATM    7  C   UNL     1      44.292  -7.760   8.888  1.00  0.00     0.066 C 
HETATM    8  C   UNL     1      44.673  -9.096   8.219  1.00  0.00     0.221 C 
HETATM    9  C   UNL     1      41.475 -10.349   7.237  1.00  0.00     0.089 A 
HETATM   10  H   UNL     1      41.021  -8.649   9.377  1.00  0.00     0.161 HD
ENDROOT
BRANCH   1  11
HETATM   11  C   UNL     1      42.003 -11.919   5.267  1.00  0.00     0.276 C 
HETATM   12  N   UNL     1      43.064 -12.722   4.897  1.00  0.00    -0.322 N 
HETATM   13  H   UNL     1      43.940 -12.479   5.354  1.00  0.00     0.169 HD
HETATM   14  O   UNL     1      40.857 -11.975   4.831  1.00  0.00    -0.266 OA
BRANCH  12  15
HETATM   15  C   UNL     1      43.048 -13.827   4.027  1.00  0.00     0.035 A 
HETATM   16  C   UNL     1      43.154 -15.153   4.458  1.00  0.00     0.039 A 
HETATM   17  C   UNL     1      43.166 -16.219   3.542  1.00  0.00    -0.028 A 
HETATM   18  C   UNL     1      43.067 -15.935   2.174  1.00  0.00     0.010 A 
HETATM   19  C   UNL     1      42.952 -14.617   1.734  1.00  0.00     0.003 A 
HETATM   20  C   UNL     1      42.946 -13.568   2.657  1.00  0.00     0.029 A 
BRANCH  17  21
HETATM   21  C   UNL     1      43.325 -17.638   4.045  1.00  0.00     0.147 C 
HETATM   22  C   UNL     1      44.017 -17.690   5.400  1.00  0.00     0.044 C 
BRANCH  21  23
HETATM   23  O   UNL     1      44.075 -18.413   3.112  1.00  0.00    -0.391 OA
HETATM   24  H   UNL     1      44.898 -18.669   3.565  1.00  0.00     0.210 HD
ENDBRANCH  21  23
ENDBRANCH  17  21
ENDBRANCH  12  15
ENDBRANCH   1  11
BRANCH   8  25
HETATM   25  C   UNL     1      45.294 -10.074   9.190  1.00  0.00     0.409 C 
HETATM   26  F   UNL     1      45.966  -9.449  10.184  1.00  0.00    -0.169 F 
HETATM   27  F   UNL     1      44.322 -10.806   9.793  1.00  0.00    -0.169 F 
HETATM   28  F   UNL     1      46.140 -10.950   8.613  1.00  0.00    -0.169 F 
ENDBRANCH   8  25
BRANCH   6  29
HETATM   29  C   UNL     1      42.757  -7.360  10.907  1.00  0.00    -0.035 A 
HETATM   30  C   UNL     1      42.233  -6.155  11.404  1.00  0.00     0.012 A 
HETATM   31  C   UNL     1      42.206  -5.896  12.776  1.00  0.00     0.043 A 
HETATM   32  C   UNL     1      42.705  -6.842  13.660  1.00  0.00     0.116 A 
HETATM   33  F   UNL     1      42.696  -6.588  14.975  1.00  0.00    -0.206 F 
HETATM   34  C   UNL     1      43.223  -8.046  13.199  1.00  0.00     0.043 A 
HETATM   35  C   UNL     1      43.245  -8.308  11.827  1.00  0.00     0.012 A 
ENDBRANCH   6  29
TORSDOF 6
ENDMDL
MODEL 6
REMARK VINA RESULT:      -8.9      3.653      4.914
REMARK  6 active torsions:
REMARK  status: ('A' for Active; 'I' for Inactive)
REMARK    1  A    between atoms: C_2  and  O_3 
REMARK    2  A    between atoms: C_2  and  C_4 
REMARK    3  A    between atoms: C_6  and  N_7 
REMARK       I    between atoms: N_7  and  C_8 
REMARK    4  A    between atoms: C_8  and  C_9 
REMARK    5  A    between atoms: C_14  and  C_15 
REMARK    6  A    between atoms: C_23  and  C_24 
ROOT
HETATM    1  C   UNL     1      42.665 -13.317   5.547  1.00  0.00     0.148 A 
HETATM    2  N   UNL     1      42.651 -14.587   5.072  1.00  0.00    -0.165 NA
HETATM    3  N   UNL     1      41.976 -14.468   3.911  1.00  0.00    -0.240 N 
HETATM    4  C   UNL     1      41.491 -13.219   3.673  1.00  0.00     0.123 A 
HETATM    5  N   UNL     1      40.787 -12.954   2.559  1.00  0.00    -0.366 N 
HETATM    6  C   UNL     1      39.997 -13.994   1.911  1.00  0.00     0.118 C 
HETATM    7  C   UNL     1      40.496 -15.431   2.186  1.00  0.00     0.066 C 
HETATM    8  C   UNL     1      41.811 -15.564   2.981  1.00  0.00     0.221 C 
HETATM    9  C   UNL     1      41.933 -12.437   4.702  1.00  0.00     0.089 A 
HETATM   10  H   UNL     1      40.399 -12.017   2.434  1.00  0.00     0.161 HD
ENDROOT
BRANCH   1  11
HETATM   11  C   UNL     1      43.384 -12.926   6.772  1.00  0.00     0.276 C 
HETATM   12  N   UNL     1      43.478 -11.556   6.919  1.00  0.00    -0.322 N 
HETATM   13  H   UNL     1      43.086 -11.034   6.139  1.00  0.00     0.169 HD
HETATM   14  O   UNL     1      43.818 -13.776   7.545  1.00  0.00    -0.266 OA
BRANCH  12  15
HETATM   15  C   UNL     1      43.998 -10.838   8.011  1.00  0.00     0.035 A 
HETATM   16  C   UNL     1      43.292 -10.618   9.198  1.00  0.00     0.039 A 
HETATM   17  C   UNL     1      43.846  -9.865  10.248  1.00  0.00    -0.028 A 
HETATM   18  C   UNL     1      45.131  -9.332  10.090  1.00  0.00     0.010 A 
HETATM   19  C   UNL     1      45.847  -9.553   8.915  1.00  0.00     0.003 A 
HETATM   20  C   UNL     1      45.281 -10.300   7.879  1.00  0.00     0.029 A 
BRANCH  17  21
HETATM   21  C   UNL     1      43.033  -9.614  11.500  1.00  0.00     0.147 C 
HETATM   22  C   UNL     1      43.568  -8.435  12.301  1.00  0.00     0.044 C 
BRANCH  21  23
HETATM   23  O   UNL     1      43.032 -10.774  12.330  1.00  0.00    -0.391 OA
HETATM   24  H   UNL     1      42.602 -10.516  13.164  1.00  0.00     0.210 HD
ENDBRANCH  21  23
ENDBRANCH  17  21
ENDBRANCH  12  15
ENDBRANCH   1  11
BRANCH   8  25
HETATM   25  C   UNL     1      43.023 -15.667   2.083  1.00  0.00     0.409 C 
HETATM   26  F   UNL     1      42.685 -15.875   0.790  1.00  0.00    -0.169 F 
HETATM   27  F   UNL     1      43.715 -14.498   2.109  1.00  0.00    -0.169 F 
HETATM   28  F   UNL     1      43.884 -16.638   2.442  1.00  0.00    -0.169 F 
ENDBRANCH   8  25
BRANCH   6  29
HETATM   29  C   UNL     1      39.856 -13.666   0.434  1.00  0.00    -0.035 A 
HETATM   30  C   UNL     1      39.796 -12.339  -0.025  1.00  0.00     0.012 A 
HETATM   31  C   UNL     1      39.618 -12.057  -1.381  1.00  0.00     0.043 A 
HETATM   32  C   UNL     1      39.497 -13.101  -2.286  1.00  0.00     0.116 A 
HETATM   33  F   UNL     1      39.308 -12.832  -3.584  1.00  0.00    -0.206 F 
HETATM   34  C   UNL     1      39.560 -14.423  -1.863  1.00  0.00     0.043 A 
HETATM   35  C   UNL     1      39.744 -14.706  -0.508  1.00  0.00     0.012 A 
ENDBRANCH   6  29
TORSDOF 6
ENDMDL
MODEL 7
REMARK VINA RESULT:      -8.9      7.018      9.874
REMARK  6 active torsions:
REMARK  status: ('A' for Active; 'I' for Inactive)
REMARK    1  A    between atoms: C_2  and  O_3 
REMARK    2  A    between atoms: C_2  and  C_4 
REMARK    3  A    between atoms: C_6  and  N_7 
REMARK       I    between atoms: N_7  and  C_8 
REMARK    4  A    between atoms: C_8  and  C_9 
REMARK    5  A    between atoms: C_14  and  C_15 
REMARK    6  A    between atoms: C_23  and  C_24 
ROOT
HETATM    1  C   UNL     1      40.693 -14.155   1.063  1.00  0.00     0.148 A 
HETATM    2  N   UNL     1      39.738 -14.110   0.102  1.00  0.00    -0.165 NA
HETATM    3  N   UNL     1      39.965 -12.923  -0.496  1.00  0.00    -0.240 N 
HETATM    4  C   UNL     1      40.947 -12.183   0.088  1.00  0.00     0.123 A 
HETATM    5  N   UNL     1      41.276 -10.972  -0.393  1.00  0.00    -0.366 N 
HETATM    6  C   UNL     1      40.286 -10.148  -1.077  1.00  0.00     0.118 C 
HETATM    7  C   UNL     1      39.135 -10.950  -1.725  1.00  0.00     0.066 C 
HETATM    8  C   UNL     1      39.252 -12.487  -1.677  1.00  0.00     0.221 C 
HETATM    9  C   UNL     1      41.459 -12.956   1.092  1.00  0.00     0.089 A 
HETATM   10  H   UNL     1      41.986 -10.425   0.096  1.00  0.00     0.161 HD
ENDROOT
BRANCH   1  11
HETATM   11  C   UNL     1      40.904 -15.326   1.931  1.00  0.00     0.276 C 
HETATM   12  N   UNL     1      42.239 -15.649   2.072  1.00  0.00    -0.322 N 
HETATM   13  H   UNL     1      42.862 -15.066   1.518  1.00  0.00     0.169 HD
HETATM   14  O   UNL     1      39.954 -15.901   2.453  1.00  0.00    -0.266 OA
BRANCH  12  15
HETATM   15  C   UNL     1      42.807 -16.631   2.903  1.00  0.00     0.035 A 
HETATM   16  C   UNL     1      43.041 -16.446   4.270  1.00  0.00     0.039 A 
HETATM   17  C   UNL     1      43.641 -17.450   5.050  1.00  0.00    -0.028 A 
HETATM   18  C   UNL     1      44.007 -18.653   4.435  1.00  0.00     0.010 A 
HETATM   19  C   UNL     1      43.771 -18.852   3.075  1.00  0.00     0.003 A 
HETATM   20  C   UNL     1      43.177 -17.843   2.313  1.00  0.00     0.029 A 
BRANCH  17  21
HETATM   21  C   UNL     1      43.915 -17.196   6.517  1.00  0.00     0.147 C 
HETATM   22  C   UNL     1      42.753 -16.491   7.202  1.00  0.00     0.044 C 
BRANCH  21  23
HETATM   23  O   UNL     1      45.092 -16.404   6.670  1.00  0.00    -0.391 OA
HETATM   24  H   UNL     1      44.806 -15.557   7.056  1.00  0.00     0.210 HD
ENDBRANCH  21  23
ENDBRANCH  17  21
ENDBRANCH  12  15
ENDBRANCH   1  11
BRANCH   8  25
HETATM   25  C   UNL     1      39.906 -13.058  -2.915  1.00  0.00     0.409 C 
HETATM   26  F   UNL     1      40.707 -14.110  -2.630  1.00  0.00    -0.169 F 
HETATM   27  F   UNL     1      38.954 -13.527  -3.764  1.00  0.00    -0.169 F 
HETATM   28  F   UNL     1      40.638 -12.162  -3.605  1.00  0.00    -0.169 F 
ENDBRANCH   8  25
BRANCH   6  29
HETATM   29  C   UNL     1      40.998  -9.211  -2.040  1.00  0.00    -0.035 A 
HETATM   30  C   UNL     1      40.549  -9.029  -3.360  1.00  0.00     0.012 A 
HETATM   31  C   UNL     1      41.244  -8.202  -4.244  1.00  0.00     0.043 A 
HETATM   32  C   UNL     1      42.393  -7.553  -3.815  1.00  0.00     0.116 A 
HETATM   33  F   UNL     1      43.070  -6.774  -4.669  1.00  0.00    -0.206 F 
HETATM   34  C   UNL     1      42.856  -7.708  -2.515  1.00  0.00     0.043 A 
HETATM   35  C   UNL     1      42.158  -8.531  -1.627  1.00  0.00     0.012 A 
ENDBRANCH   6  29
TORSDOF 6
ENDMDL
MODEL 8
REMARK VINA RESULT:      -8.8      3.785      4.619
REMARK  6 active torsions:
REMARK  status: ('A' for Active; 'I' for Inactive)
REMARK    1  A    between atoms: C_2  and  O_3 
REMARK    2  A    between atoms: C_2  and  C_4 
REMARK    3  A    between atoms: C_6  and  N_7 
REMARK       I    between atoms: N_7  and  C_8 
REMARK    4  A    between atoms: C_8  and  C_9 
REMARK    5  A    between atoms: C_14  and  C_15 
REMARK    6  A    between atoms: C_23  and  C_24 
ROOT
HETATM    1  C   UNL     1      40.644 -12.746   5.308  1.00  0.00     0.148 A 
HETATM    2  N   UNL     1      40.644 -12.866   3.957  1.00  0.00    -0.165 NA
HETATM    3  N   UNL     1      41.353 -13.994   3.753  1.00  0.00    -0.240 N 
HETATM    4  C   UNL     1      41.871 -14.540   4.887  1.00  0.00     0.123 A 
HETATM    5  N   UNL     1      42.611 -15.661   4.836  1.00  0.00    -0.366 N 
HETATM    6  C   UNL     1      43.396 -15.983   3.650  1.00  0.00     0.118 C 
HETATM    7  C   UNL     1      42.859 -15.352   2.346  1.00  0.00     0.066 C 
HETATM    8  C   UNL     1      41.520 -14.593   2.447  1.00  0.00     0.221 C 
HETATM    9  C   UNL     1      41.417 -13.771   5.921  1.00  0.00     0.089 A 
HETATM   10  H   UNL     1      43.022 -16.018   5.701  1.00  0.00     0.161 HD
ENDROOT
BRANCH   1  11
HETATM   11  C   UNL     1      39.900 -11.693   6.021  1.00  0.00     0.276 C 
HETATM   12  N   UNL     1      40.273 -10.422   5.631  1.00  0.00    -0.322 N 
HETATM   13  H   UNL     1      41.033 -10.408   4.955  1.00  0.00     0.169 HD
HETATM   14  O   UNL     1      39.046 -11.982   6.854  1.00  0.00    -0.266 OA
BRANCH  12  15
HETATM   15  C   UNL     1      39.702  -9.197   6.021  1.00  0.00     0.035 A 
HETATM   16  C   UNL     1      38.516  -8.690   5.481  1.00  0.00     0.039 A 
HETATM   17  C   UNL     1      38.005  -7.444   5.883  1.00  0.00    -0.028 A 
HETATM   18  C   UNL     1      38.707  -6.706   6.845  1.00  0.00     0.010 A 
HETATM   19  C   UNL     1      39.885  -7.206   7.397  1.00  0.00     0.003 A 
HETATM   20  C   UNL     1      40.382  -8.445   6.983  1.00  0.00     0.029 A 
BRANCH  17  21
HETATM   21  C   UNL     1      36.741  -6.910   5.245  1.00  0.00     0.147 C 
HETATM   22  C   UNL     1      36.197  -5.694   5.982  1.00  0.00     0.044 C 
BRANCH  21  23
HETATM   23  O   UNL     1      35.735  -7.922   5.218  1.00  0.00    -0.391 OA
HETATM   24  H   UNL     1      35.832  -8.429   6.043  1.00  0.00     0.210 HD
ENDBRANCH  21  23
ENDBRANCH  17  21
ENDBRANCH  12  15
ENDBRANCH   1  11
BRANCH   8  25
HETATM   25  C   UNL     1      40.331 -15.470   2.125  1.00  0.00     0.409 C 
HETATM   26  F   UNL     1      39.776 -16.006   3.237  1.00  0.00    -0.169 F 
HETATM   27  F   UNL     1      39.357 -14.727   1.538  1.00  0.00    -0.169 F 
HETATM   28  F   UNL     1      40.613 -16.481   1.282  1.00  0.00    -0.169 F 
ENDBRANCH   8  25
BRANCH   6  29
HETATM   29  C   UNL     1      43.584 -17.489   3.571  1.00  0.00    -0.035 A 
HETATM   30  C   UNL     1      43.229 -18.217   2.423  1.00  0.00     0.012 A 
HETATM   31  C   UNL     1      43.364 -19.607   2.385  1.00  0.00     0.043 A 
HETATM   32  C   UNL     1      43.853 -20.277   3.498  1.00  0.00     0.116 A 
HETATM   33  F   UNL     1      43.965 -21.611   3.470  1.00  0.00    -0.206 F 
HETATM   34  C   UNL     1      44.219 -19.582   4.644  1.00  0.00     0.043 A 
HETATM   35  C   UNL     1      44.090 -18.192   4.680  1.00  0.00     0.012 A 
ENDBRANCH   6  29
TORSDOF 6
ENDMDL
MODEL 9
REMARK VINA RESULT:      -8.6      1.593      2.167
REMARK  6 active torsions:
REMARK  status: ('A' for Active; 'I' for Inactive)
REMARK    1  A    between atoms: C_2  and  O_3 
REMARK    2  A    between atoms: C_2  and  C_4 
REMARK    3  A    between atoms: C_6  and  N_7 
REMARK       I    between atoms: N_7  and  C_8 
REMARK    4  A    between atoms: C_8  and  C_9 
REMARK    5  A    between atoms: C_14  and  C_15 
REMARK    6  A    between atoms: C_23  and  C_24 
ROOT
HETATM    1  C   UNL     1      43.378 -11.771   6.797  1.00  0.00     0.148 A 
HETATM    2  N   UNL     1      42.118 -12.070   6.392  1.00  0.00    -0.165 NA
HETATM    3  N   UNL     1      42.289 -13.204   5.684  1.00  0.00    -0.240 N 
HETATM    4  C   UNL     1      43.588 -13.585   5.546  1.00  0.00     0.123 A 
HETATM    5  N   UNL     1      43.912 -14.691   4.854  1.00  0.00    -0.366 N 
HETATM    6  C   UNL     1      43.073 -15.156   3.756  1.00  0.00     0.118 C 
HETATM    7  C   UNL     1      41.595 -14.714   3.859  1.00  0.00     0.066 C 
HETATM    8  C   UNL     1      41.186 -13.970   5.146  1.00  0.00     0.221 C 
HETATM    9  C   UNL     1      44.326 -12.692   6.271  1.00  0.00     0.089 A 
HETATM   10  H   UNL     1      44.899 -14.924   4.733  1.00  0.00     0.161 HD
ENDROOT
BRANCH   1  11
HETATM   11  C   UNL     1      43.687 -10.644   7.694  1.00  0.00     0.276 C 
HETATM   12  N   UNL     1      42.691 -10.414   8.622  1.00  0.00    -0.322 N 
HETATM   13  H   UNL     1      41.881 -11.021   8.512  1.00  0.00     0.169 HD
HETATM   14  O   UNL     1      44.740 -10.023   7.582  1.00  0.00    -0.266 OA
BRANCH  12  15
HETATM   15  C   UNL     1      42.700  -9.499   9.690  1.00  0.00     0.035 A 
HETATM   16  C   UNL     1      42.100  -8.237   9.631  1.00  0.00     0.039 A 
HETATM   17  C   UNL     1      42.166  -7.346  10.717  1.00  0.00    -0.028 A 
HETATM   18  C   UNL     1      42.847  -7.743  11.874  1.00  0.00     0.010 A 
HETATM   19  C   UNL     1      43.441  -9.002  11.947  1.00  0.00     0.003 A 
HETATM   20  C   UNL     1      43.370  -9.874  10.857  1.00  0.00     0.029 A 
BRANCH  17  21
HETATM   21  C   UNL     1      41.540  -5.973  10.599  1.00  0.00     0.147 C 
HETATM   22  C   UNL     1      42.581  -4.863  10.661  1.00  0.00     0.044 C 
BRANCH  21  23
HETATM   23  O   UNL     1      40.588  -5.772  11.642  1.00  0.00    -0.391 OA
HETATM   24  H   UNL     1      39.948  -6.502  11.575  1.00  0.00     0.210 HD
ENDBRANCH  21  23
ENDBRANCH  17  21
ENDBRANCH  12  15
ENDBRANCH   1  11
BRANCH   8  25
HETATM   25  C   UNL     1      40.638 -14.900   6.205  1.00  0.00     0.409 C 
HETATM   26  F   UNL     1      40.327 -16.117   5.703  1.00  0.00    -0.169 F 
HETATM   27  F   UNL     1      41.579 -15.114   7.161  1.00  0.00    -0.169 F 
HETATM   28  F   UNL     1      39.545 -14.425   6.832  1.00  0.00    -0.169 F 
ENDBRANCH   8  25
BRANCH   6  29
HETATM   29  C   UNL     1      43.253 -16.656   3.592  1.00  0.00    -0.035 A 
HETATM   30  C   UNL     1      43.891 -17.435   4.573  1.00  0.00     0.012 A 
HETATM   31  C   UNL     1      44.091 -18.804   4.383  1.00  0.00     0.043 A 
HETATM   32  C   UNL     1      43.656 -19.402   3.209  1.00  0.00     0.116 A 
HETATM   33  F   UNL     1      43.865 -20.711   3.018  1.00  0.00    -0.206 F 
HETATM   34  C   UNL     1      43.017 -18.659   2.224  1.00  0.00     0.043 A 
HETATM   35  C   UNL     1      42.811 -17.291   2.416  1.00  0.00     0.012 A 
ENDBRANCH   6  29
TORSDOF 6
ENDMDL
MODEL 10
REMARK VINA RESULT:      -8.6      1.910      2.216
REMARK  6 active torsions:
REMARK  status: ('A' for Active; 'I' for Inactive)
REMARK    1  A    between atoms: C_2  and  O_3 
REMARK    2  A    between atoms: C_2  and  C_4 
REMARK    3  A    between atoms: C_6  and  N_7 
REMARK       I    between atoms: N_7  and  C_8 
REMARK    4  A    between atoms: C_8  and  C_9 
REMARK    5  A    between atoms: C_14  and  C_15 
REMARK    6  A    between atoms: C_23  and  C_24 
ROOT
HETATM    1  C   UNL     1      43.248 -12.298   6.477  1.00  0.00     0.148 A 
HETATM    2  N   UNL     1      42.662 -13.247   7.248  1.00  0.00    -0.165 NA
HETATM    3  N   UNL     1      42.642 -14.326   6.440  1.00  0.00    -0.240 N 
HETATM    4  C   UNL     1      43.100 -14.087   5.181  1.00  0.00     0.123 A 
HETATM    5  N   UNL     1      43.128 -15.067   4.261  1.00  0.00    -0.366 N 
HETATM    6  C   UNL     1      42.168 -16.164   4.310  1.00  0.00     0.118 C 
HETATM    7  C   UNL     1      41.598 -16.443   5.719  1.00  0.00     0.066 C 
HETATM    8  C   UNL     1      42.206 -15.632   6.882  1.00  0.00     0.221 C 
HETATM    9  C   UNL     1      43.521 -12.788   5.169  1.00  0.00     0.089 A 
HETATM   10  H   UNL     1      43.435 -14.843   3.313  1.00  0.00     0.161 HD
ENDROOT
BRANCH   1  11
HETATM   11  C   UNL     1      43.575 -10.950   6.971  1.00  0.00     0.276 C 
HETATM   12  N   UNL     1      42.524 -10.362   7.647  1.00  0.00    -0.322 N 
HETATM   13  H   UNL     1      41.677 -10.925   7.655  1.00  0.00     0.169 HD
HETATM   14  O   UNL     1      44.685 -10.462   6.778  1.00  0.00    -0.266 OA
BRANCH  12  15
HETATM   15  C   UNL     1      42.519  -9.137   8.337  1.00  0.00     0.035 A 
HETATM   16  C   UNL     1      42.521  -9.035   9.732  1.00  0.00     0.039 A 
HETATM   17  C   UNL     1      42.483  -7.784  10.373  1.00  0.00    -0.028 A 
HETATM   18  C   UNL     1      42.444  -6.626   9.588  1.00  0.00     0.010 A 
HETATM   19  C   UNL     1      42.451  -6.715   8.197  1.00  0.00     0.003 A 
HETATM   20  C   UNL     1      42.484  -7.966   7.575  1.00  0.00     0.029 A 
BRANCH  17  21
HETATM   21  C   UNL     1      42.445  -7.717  11.884  1.00  0.00     0.147 C 
HETATM   22  C   UNL     1      42.288  -6.290  12.390  1.00  0.00     0.044 C 
BRANCH  21  23
HETATM   23  O   UNL     1      43.637  -8.275  12.435  1.00  0.00    -0.391 OA
HETATM   24  H   UNL     1      44.310  -8.233  11.734  1.00  0.00     0.210 HD
ENDBRANCH  21  23
ENDBRANCH  17  21
ENDBRANCH  12  15
ENDBRANCH   1  11
BRANCH   8  25
HETATM   25  C   UNL     1      43.348 -16.356   7.559  1.00  0.00     0.409 C 
HETATM   26  F   UNL     1      43.445 -16.042   8.872  1.00  0.00    -0.169 F 
HETATM   27  F   UNL     1      43.139 -17.698   7.506  1.00  0.00    -0.169 F 
HETATM   28  F   UNL     1      44.548 -16.125   6.994  1.00  0.00    -0.169 F 
ENDBRANCH   8  25
BRANCH   6  29
HETATM   29  C   UNL     1      42.773 -17.386   3.640  1.00  0.00    -0.035 A 
HETATM   30  C   UNL     1      42.332 -17.832   2.382  1.00  0.00     0.012 A 
HETATM   31  C   UNL     1      42.866 -18.986   1.803  1.00  0.00     0.043 A 
HETATM   32  C   UNL     1      43.842 -19.702   2.481  1.00  0.00     0.116 A 
HETATM   33  F   UNL     1      44.341 -20.818   1.935  1.00  0.00    -0.206 F 
HETATM   34  C   UNL     1      44.302 -19.281   3.722  1.00  0.00     0.043 A 
HETATM   35  C   UNL     1      43.773 -18.124   4.299  1.00  0.00     0.012 A 
ENDBRANCH   6  29
TORSDOF 6
ENDMDL
