MODEL 1
REMARK VINA RESULT:      -9.6      0.000      0.000
REMARK  3 active torsions:
REMARK  status: ('A' for Active; 'I' for Inactive)
REMARK    1  A    between atoms: C_2  and  C_3 
REMARK    2  A    between atoms: C_8  and  C_9 
REMARK       I    between atoms: C_9  and  N_10 
REMARK    3  A    between atoms: N_10  and  C_11 
ROOT
HETATM    1  C   UNL     1      42.381 -11.385   4.411  1.00  0.00     0.104 A 
HETATM    2  N   UNL     1      42.098 -10.279   3.699  1.00  0.00    -0.174 NA
HETATM    3  N   UNL     1      41.279 -10.695   2.728  1.00  0.00    -0.288 N 
HETATM    4  H   UNL     1      40.910 -10.006   2.079  1.00  0.00     0.188 HD
HETATM    5  C   UNL     1      41.056 -12.031   2.749  1.00  0.00     0.128 A 
HETATM    6  C   UNL     1      41.782 -12.542   3.811  1.00  0.00     0.080 A 
ENDROOT
BRANCH   6   7
HETATM    7  C   UNL     1      41.815 -13.967   4.130  1.00  0.00     0.260 C 
HETATM    8  N   UNL     1      42.971 -14.621   3.744  1.00  0.00    -0.323 N 
HETATM    9  H   UNL     1      43.670 -14.068   3.266  1.00  0.00     0.169 HD
HETATM   10  O   UNL     1      40.839 -14.495   4.651  1.00  0.00    -0.267 OA
BRANCH   8  11
HETATM   11  C   UNL     1      43.274 -15.991   3.896  1.00  0.00     0.035 A 
HETATM   12  C   UNL     1      43.154 -16.936   2.872  1.00  0.00     0.037 A 
HETATM   13  C   UNL     1      43.492 -18.256   3.135  1.00  0.00    -0.050 A 
HETATM   14  C   UNL     1      43.953 -18.654   4.392  1.00  0.00    -0.052 A 
HETATM   15  C   UNL     1      43.491 -19.408   2.176  1.00  0.00     0.039 C 
HETATM   16  C   UNL     1      44.301 -20.108   4.395  1.00  0.00     0.039 C 
HETATM   17  C   UNL     1      44.085 -17.736   5.416  1.00  0.00     0.010 A 
HETATM   18  C   UNL     1      43.559 -20.599   3.143  1.00  0.00     0.009 C 
HETATM   19  C   UNL     1      43.738 -16.403   5.165  1.00  0.00     0.030 A 
ENDBRANCH   8  11
ENDBRANCH   6   7
BRANCH   1  20
HETATM   20  C   UNL     1      43.193 -11.255   5.624  1.00  0.00    -0.002 A 
HETATM   21  C   UNL     1      44.517 -11.725   5.627  1.00  0.00     0.017 A 
HETATM   22  C   UNL     1      45.326 -11.584   6.756  1.00  0.00     0.040 A 
HETATM   23  C   UNL     1      44.819 -10.966   7.894  1.00  0.00     0.102 A 
HETATM   24  C   UNL     1      43.495 -10.513   7.913  1.00  0.00     0.103 A 
HETATM   25  O   UNL     1      45.673 -10.836   8.958  1.00  0.00    -0.346 OA
HETATM   26  C   UNL     1      42.693 -10.633   6.776  1.00  0.00     0.053 A 
HETATM   27  O   UNL     1      42.921  -9.925   9.011  1.00  0.00    -0.346 OA
HETATM   28  C   UNL     1      43.705 -10.137  10.191  1.00  0.00     0.202 C 
HETATM   29  C   UNL     1      45.177  -9.885   9.908  1.00  0.00     0.202 C 
ENDBRANCH   1  20
TORSDOF 3
ENDMDL
MODEL 2
REMARK VINA RESULT:      -9.5      1.220      2.081
REMARK  3 active torsions:
REMARK  status: ('A' for Active; 'I' for Inactive)
REMARK    1  A    between atoms: C_2  and  C_3 
REMARK    2  A    between atoms: C_8  and  C_9 
REMARK       I    between atoms: C_9  and  N_10 
REMARK    3  A    between atoms: N_10  and  C_11 
ROOT
HETATM    1  C   UNL     1      41.995 -11.787   2.619  1.00  0.00     0.104 A 
HETATM    2  N   UNL     1      41.841 -10.852   1.663  1.00  0.00    -0.174 NA
HETATM    3  N   UNL     1      41.325 -11.510   0.620  1.00  0.00    -0.288 N 
HETATM    4  H   UNL     1      41.096 -10.982  -0.218  1.00  0.00     0.188 HD
HETATM    5  C   UNL     1      41.182 -12.838   0.839  1.00  0.00     0.128 A 
HETATM    6  C   UNL     1      41.639 -13.084   2.123  1.00  0.00     0.080 A 
ENDROOT
BRANCH   6   7
HETATM    7  C   UNL     1      41.672 -14.423   2.705  1.00  0.00     0.260 C 
HETATM    8  N   UNL     1      42.926 -15.002   2.757  1.00  0.00    -0.323 N 
HETATM    9  H   UNL     1      43.694 -14.464   2.377  1.00  0.00     0.169 HD
HETATM   10  O   UNL     1      40.625 -14.960   3.050  1.00  0.00    -0.267 OA
BRANCH   8  11
HETATM   11  C   UNL     1      43.260 -16.287   3.239  1.00  0.00     0.035 A 
HETATM   12  C   UNL     1      43.269 -17.440   2.449  1.00  0.00     0.037 A 
HETATM   13  C   UNL     1      43.626 -18.648   3.029  1.00  0.00    -0.050 A 
HETATM   14  C   UNL     1      43.979 -18.732   4.378  1.00  0.00    -0.052 A 
HETATM   15  C   UNL     1      43.754 -19.982   2.359  1.00  0.00     0.039 C 
HETATM   16  C   UNL     1      44.375 -20.129   4.739  1.00  0.00     0.039 C 
HETATM   17  C   UNL     1      43.983 -17.605   5.176  1.00  0.00     0.010 A 
HETATM   18  C   UNL     1      43.771 -20.924   3.571  1.00  0.00     0.009 C 
HETATM   19  C   UNL     1      43.616 -16.382   4.603  1.00  0.00     0.030 A 
ENDBRANCH   8  11
ENDBRANCH   6   7
BRANCH   1  20
HETATM   20  C   UNL     1      42.459 -11.369   3.945  1.00  0.00    -0.002 A 
HETATM   21  C   UNL     1      41.568 -10.729   4.823  1.00  0.00     0.017 A 
HETATM   22  C   UNL     1      41.972 -10.350   6.105  1.00  0.00     0.040 A 
HETATM   23  C   UNL     1      43.272 -10.612   6.523  1.00  0.00     0.102 A 
HETATM   24  C   UNL     1      44.176 -11.231   5.652  1.00  0.00     0.103 A 
HETATM   25  O   UNL     1      43.596 -10.239   7.802  1.00  0.00    -0.346 OA
HETATM   26  C   UNL     1      43.766 -11.630   4.378  1.00  0.00     0.053 A 
HETATM   27  O   UNL     1      45.481 -11.490   5.987  1.00  0.00    -0.346 OA
HETATM   28  C   UNL     1      45.874 -10.769   7.161  1.00  0.00     0.202 C 
HETATM   29  C   UNL     1      44.805 -10.873   8.236  1.00  0.00     0.202 C 
ENDBRANCH   1  20
TORSDOF 3
ENDMDL
MODEL 3
REMARK VINA RESULT:      -9.4      3.513      6.897
REMARK  3 active torsions:
REMARK  status: ('A' for Active; 'I' for Inactive)
REMARK    1  A    between atoms: C_2  and  C_3 
REMARK    2  A    between atoms: C_8  and  C_9 
REMARK       I    between atoms: C_9  and  N_10 
REMARK    3  A    between atoms: N_10  and  C_11 
ROOT
HETATM    1  C   UNL     1      41.412 -12.014   1.903  1.00  0.00     0.104 A 
HETATM    2  N   UNL     1      41.813 -10.735   2.027  1.00  0.00    -0.174 NA
HETATM    3  N   UNL     1      42.783 -10.767   2.946  1.00  0.00    -0.288 N 
HETATM    4  H   UNL     1      43.257  -9.899   3.178  1.00  0.00     0.188 HD
HETATM    5  C   UNL     1      42.997 -12.002   3.459  1.00  0.00     0.128 A 
HETATM    6  C   UNL     1      42.101 -12.855   2.837  1.00  0.00     0.080 A 
ENDROOT
BRANCH   6   7
HETATM    7  C   UNL     1      42.012 -14.276   3.161  1.00  0.00     0.260 C 
HETATM    8  N   UNL     1      43.227 -14.899   3.379  1.00  0.00    -0.323 N 
HETATM    9  H   UNL     1      44.057 -14.329   3.278  1.00  0.00     0.169 HD
HETATM   10  O   UNL     1      40.917 -14.829   3.170  1.00  0.00    -0.267 OA
BRANCH   8  11
HETATM   11  C   UNL     1      43.453 -16.259   3.682  1.00  0.00     0.035 A 
HETATM   12  C   UNL     1      43.444 -17.283   2.731  1.00  0.00     0.037 A 
HETATM   13  C   UNL     1      43.690 -18.585   3.144  1.00  0.00    -0.050 A 
HETATM   14  C   UNL     1      43.953 -18.887   4.482  1.00  0.00    -0.052 A 
HETATM   15  C   UNL     1      43.781 -19.813   2.291  1.00  0.00     0.039 C 
HETATM   16  C   UNL     1      44.241 -20.344   4.653  1.00  0.00     0.039 C 
HETATM   17  C   UNL     1      43.973 -17.890   5.438  1.00  0.00     0.010 A 
HETATM   18  C   UNL     1      43.666 -20.919   3.350  1.00  0.00     0.009 C 
HETATM   19  C   UNL     1      43.717 -16.574   5.034  1.00  0.00     0.030 A 
ENDBRANCH   8  11
ENDBRANCH   6   7
BRANCH   1  20
HETATM   20  C   UNL     1      40.407 -12.342   0.887  1.00  0.00    -0.002 A 
HETATM   21  C   UNL     1      39.188 -11.645   0.867  1.00  0.00     0.017 A 
HETATM   22  C   UNL     1      38.225 -11.912  -0.109  1.00  0.00     0.040 A 
HETATM   23  C   UNL     1      38.475 -12.879  -1.077  1.00  0.00     0.102 A 
HETATM   24  C   UNL     1      39.677 -13.596  -1.055  1.00  0.00     0.103 A 
HETATM   25  O   UNL     1      37.501 -13.073  -2.021  1.00  0.00    -0.346 OA
HETATM   26  C   UNL     1      40.650 -13.313  -0.094  1.00  0.00     0.053 A 
HETATM   27  O   UNL     1      39.975 -14.584  -1.959  1.00  0.00    -0.346 OA
HETATM   28  C   UNL     1      38.811 -15.004  -2.681  1.00  0.00     0.202 C 
HETATM   29  C   UNL     1      38.006 -13.801  -3.146  1.00  0.00     0.202 C 
ENDBRANCH   1  20
TORSDOF 3
ENDMDL
MODEL 4
REMARK VINA RESULT:      -9.0      2.095      8.034
REMARK  3 active torsions:
REMARK  status: ('A' for Active; 'I' for Inactive)
REMARK    1  A    between atoms: C_2  and  C_3 
REMARK    2  A    between atoms: C_8  and  C_9 
REMARK       I    between atoms: C_9  and  N_10 
REMARK    3  A    between atoms: N_10  and  C_11 
ROOT
HETATM    1  C   UNL     1      42.321 -14.748   2.651  1.00  0.00     0.104 A 
HETATM    2  N   UNL     1      41.850 -14.641   1.394  1.00  0.00    -0.174 NA
HETATM    3  N   UNL     1      41.512 -13.354   1.263  1.00  0.00    -0.288 N 
HETATM    4  H   UNL     1      41.155 -13.039   0.366  1.00  0.00     0.188 HD
HETATM    5  C   UNL     1      41.697 -12.632   2.393  1.00  0.00     0.128 A 
HETATM    6  C   UNL     1      42.193 -13.502   3.348  1.00  0.00     0.080 A 
ENDROOT
BRANCH   6   7
HETATM    7  C   UNL     1      42.487 -13.085   4.717  1.00  0.00     0.260 C 
HETATM    8  N   UNL     1      43.392 -12.046   4.826  1.00  0.00    -0.323 N 
HETATM    9  H   UNL     1      43.778 -11.685   3.963  1.00  0.00     0.169 HD
HETATM   10  O   UNL     1      41.979 -13.688   5.657  1.00  0.00    -0.267 OA
BRANCH   8  11
HETATM   11  C   UNL     1      43.882 -11.453   6.010  1.00  0.00     0.035 A 
HETATM   12  C   UNL     1      43.078 -10.790   6.942  1.00  0.00     0.037 A 
HETATM   13  C   UNL     1      43.670 -10.255   8.078  1.00  0.00    -0.050 A 
HETATM   14  C   UNL     1      45.042 -10.372   8.308  1.00  0.00    -0.052 A 
HETATM   15  C   UNL     1      42.993  -9.560   9.220  1.00  0.00     0.039 C 
HETATM   16  C   UNL     1      45.415  -9.765   9.622  1.00  0.00     0.039 C 
HETATM   17  C   UNL     1      45.854 -11.028   7.403  1.00  0.00     0.010 A 
HETATM   18  C   UNL     1      44.189  -8.885   9.907  1.00  0.00     0.009 C 
HETATM   19  C   UNL     1      45.269 -11.563   6.249  1.00  0.00     0.030 A 
ENDBRANCH   8  11
ENDBRANCH   6   7
BRANCH   1  20
HETATM   20  C   UNL     1      42.873 -16.033   3.090  1.00  0.00    -0.002 A 
HETATM   21  C   UNL     1      43.547 -16.114   4.320  1.00  0.00     0.017 A 
HETATM   22  C   UNL     1      44.054 -17.332   4.780  1.00  0.00     0.040 A 
HETATM   23  C   UNL     1      43.887 -18.481   4.015  1.00  0.00     0.102 A 
HETATM   24  C   UNL     1      43.237 -18.410   2.778  1.00  0.00     0.103 A 
HETATM   25  O   UNL     1      44.385 -19.647   4.537  1.00  0.00    -0.346 OA
HETATM   26  C   UNL     1      42.710 -17.197   2.328  1.00  0.00     0.053 A 
HETATM   27  O   UNL     1      43.066 -19.496   1.958  1.00  0.00    -0.346 OA
HETATM   28  C   UNL     1      43.903 -20.589   2.355  1.00  0.00     0.202 C 
HETATM   29  C   UNL     1      43.846 -20.789   3.860  1.00  0.00     0.202 C 
ENDBRANCH   1  20
TORSDOF 3
ENDMDL
MODEL 5
REMARK VINA RESULT:      -9.0      3.429      9.433
REMARK  3 active torsions:
REMARK  status: ('A' for Active; 'I' for Inactive)
REMARK    1  A    between atoms: C_2  and  C_3 
REMARK    2  A    between atoms: C_8  and  C_9 
REMARK       I    between atoms: C_9  and  N_10 
REMARK    3  A    between atoms: N_10  and  C_11 
ROOT
HETATM    1  C   UNL     1      44.767 -11.239   7.089  1.00  0.00     0.104 A 
HETATM    2  N   UNL     1      45.937 -11.311   6.426  1.00  0.00    -0.174 NA
HETATM    3  N   UNL     1      46.761 -10.498   7.094  1.00  0.00    -0.288 N 
HETATM    4  H   UNL     1      47.724 -10.423   6.779  1.00  0.00     0.188 HD
HETATM    5  C   UNL     1      46.166  -9.864   8.132  1.00  0.00     0.128 A 
HETATM    6  C   UNL     1      44.847 -10.284   8.156  1.00  0.00     0.080 A 
ENDROOT
BRANCH   6   7
HETATM    7  C   UNL     1      43.878  -9.783   9.127  1.00  0.00     0.260 C 
HETATM    8  N   UNL     1      44.287  -9.859  10.446  1.00  0.00    -0.323 N 
HETATM    9  H   UNL     1      45.197 -10.264  10.619  1.00  0.00     0.169 HD
HETATM   10  O   UNL     1      42.781  -9.390   8.743  1.00  0.00    -0.267 OA
BRANCH   8  11
HETATM   11  C   UNL     1      43.559  -9.477  11.594  1.00  0.00     0.035 A 
HETATM   12  C   UNL     1      43.729  -8.258  12.257  1.00  0.00     0.037 A 
HETATM   13  C   UNL     1      42.949  -7.986  13.371  1.00  0.00    -0.050 A 
HETATM   14  C   UNL     1      41.998  -8.898  13.835  1.00  0.00    -0.052 A 
HETATM   15  C   UNL     1      42.930  -6.731  14.190  1.00  0.00     0.039 C 
HETATM   16  C   UNL     1      41.255  -8.342  15.008  1.00  0.00     0.039 C 
HETATM   17  C   UNL     1      41.809 -10.105  13.192  1.00  0.00     0.010 A 
HETATM   18  C   UNL     1      42.193  -7.209  15.449  1.00  0.00     0.009 C 
HETATM   19  C   UNL     1      42.598 -10.394  12.072  1.00  0.00     0.030 A 
ENDBRANCH   8  11
ENDBRANCH   6   7
BRANCH   1  20
HETATM   20  C   UNL     1      43.660 -12.099   6.662  1.00  0.00    -0.002 A 
HETATM   21  C   UNL     1      42.634 -11.565   5.863  1.00  0.00     0.017 A 
HETATM   22  C   UNL     1      41.584 -12.369   5.414  1.00  0.00     0.040 A 
HETATM   23  C   UNL     1      41.553 -13.717   5.756  1.00  0.00     0.102 A 
HETATM   24  C   UNL     1      42.556 -14.256   6.568  1.00  0.00     0.103 A 
HETATM   25  O   UNL     1      40.510 -14.455   5.260  1.00  0.00    -0.346 OA
HETATM   26  C   UNL     1      43.619 -13.458   7.000  1.00  0.00     0.053 A 
HETATM   27  O   UNL     1      42.570 -15.567   6.970  1.00  0.00    -0.346 OA
HETATM   28  C   UNL     1      41.303 -16.198   6.747  1.00  0.00     0.202 C 
HETATM   29  C   UNL     1      40.772 -15.859   5.364  1.00  0.00     0.202 C 
ENDBRANCH   1  20
TORSDOF 3
ENDMDL
MODEL 6
REMARK VINA RESULT:      -8.8      1.472      2.141
REMARK  3 active torsions:
REMARK  status: ('A' for Active; 'I' for Inactive)
REMARK    1  A    between atoms: C_2  and  C_3 
REMARK    2  A    between atoms: C_8  and  C_9 
REMARK       I    between atoms: C_9  and  N_10 
REMARK    3  A    between atoms: N_10  and  C_11 
ROOT
HETATM    1  C   UNL     1      42.309 -10.045   4.851  1.00  0.00     0.104 A 
HETATM    2  N   UNL     1      41.597  -8.928   4.611  1.00  0.00    -0.174 NA
HETATM    3  N   UNL     1      41.164  -9.060   3.354  1.00  0.00    -0.288 N 
HETATM    4  H   UNL     1      40.570  -8.331   2.969  1.00  0.00     0.188 HD
HETATM    5  C   UNL     1      41.602 -10.190   2.750  1.00  0.00     0.128 A 
HETATM    6  C   UNL     1      42.388 -10.859   3.673  1.00  0.00     0.080 A 
ENDROOT
BRANCH   6   7
HETATM    7  C   UNL     1      43.067 -12.115   3.367  1.00  0.00     0.260 C 
HETATM    8  N   UNL     1      42.288 -13.247   3.518  1.00  0.00    -0.323 N 
HETATM    9  H   UNL     1      41.339 -13.109   3.839  1.00  0.00     0.169 HD
HETATM   10  O   UNL     1      44.254 -12.104   3.058  1.00  0.00    -0.267 OA
BRANCH   8  11
HETATM   11  C   UNL     1      42.677 -14.590   3.320  1.00  0.00     0.035 A 
HETATM   12  C   UNL     1      43.016 -15.466   4.356  1.00  0.00     0.037 A 
HETATM   13  C   UNL     1      43.373 -16.770   4.042  1.00  0.00    -0.050 A 
HETATM   14  C   UNL     1      43.393 -17.222   2.721  1.00  0.00    -0.052 A 
HETATM   15  C   UNL     1      43.716 -17.877   4.991  1.00  0.00     0.039 C 
HETATM   16  C   UNL     1      43.752 -18.672   2.659  1.00  0.00     0.039 C 
HETATM   17  C   UNL     1      43.055 -16.376   1.682  1.00  0.00     0.010 A 
HETATM   18  C   UNL     1      44.383 -18.885   4.044  1.00  0.00     0.009 C 
HETATM   19  C   UNL     1      42.703 -15.055   1.986  1.00  0.00     0.030 A 
ENDBRANCH   8  11
ENDBRANCH   6   7
BRANCH   1  20
HETATM   20  C   UNL     1      42.851 -10.261   6.195  1.00  0.00    -0.002 A 
HETATM   21  C   UNL     1      43.976 -11.086   6.366  1.00  0.00     0.017 A 
HETATM   22  C   UNL     1      44.536 -11.283   7.630  1.00  0.00     0.040 A 
HETATM   23  C   UNL     1      43.977 -10.652   8.737  1.00  0.00     0.102 A 
HETATM   24  C   UNL     1      42.844  -9.845   8.584  1.00  0.00     0.103 A 
HETATM   25  O   UNL     1      44.591 -10.867   9.944  1.00  0.00    -0.346 OA
HETATM   26  C   UNL     1      42.297  -9.630   7.317  1.00  0.00     0.053 A 
HETATM   27  O   UNL     1      42.223  -9.220   9.635  1.00  0.00    -0.346 OA
HETATM   28  C   UNL     1      42.657  -9.753  10.893  1.00  0.00     0.202 C 
HETATM   29  C   UNL     1      44.169  -9.904  10.917  1.00  0.00     0.202 C 
ENDBRANCH   1  20
TORSDOF 3
ENDMDL
MODEL 7
REMARK VINA RESULT:      -8.7      3.064      3.783
REMARK  3 active torsions:
REMARK  status: ('A' for Active; 'I' for Inactive)
REMARK    1  A    between atoms: C_2  and  C_3 
REMARK    2  A    between atoms: C_8  and  C_9 
REMARK       I    between atoms: C_9  and  N_10 
REMARK    3  A    between atoms: N_10  and  C_11 
ROOT
HETATM    1  C   UNL     1      40.553 -12.709   0.915  1.00  0.00     0.104 A 
HETATM    2  N   UNL     1      40.324 -11.964  -0.183  1.00  0.00    -0.174 NA
HETATM    3  N   UNL     1      40.088 -12.850  -1.155  1.00  0.00    -0.288 N 
HETATM    4  H   UNL     1      39.858 -12.501  -2.080  1.00  0.00     0.188 HD
HETATM    5  C   UNL     1      40.202 -14.137  -0.749  1.00  0.00     0.128 A 
HETATM    6  C   UNL     1      40.541 -14.105   0.593  1.00  0.00     0.080 A 
ENDROOT
BRANCH   6   7
HETATM    7  C   UNL     1      40.783 -15.316   1.373  1.00  0.00     0.260 C 
HETATM    8  N   UNL     1      42.104 -15.525   1.725  1.00  0.00    -0.323 N 
HETATM    9  H   UNL     1      42.776 -14.842   1.401  1.00  0.00     0.169 HD
HETATM   10  O   UNL     1      39.852 -16.077   1.617  1.00  0.00    -0.267 OA
BRANCH   8  11
HETATM   11  C   UNL     1      42.638 -16.612   2.451  1.00  0.00     0.035 A 
HETATM   12  C   UNL     1      42.889 -17.871   1.898  1.00  0.00     0.037 A 
HETATM   13  C   UNL     1      43.428 -18.863   2.706  1.00  0.00    -0.050 A 
HETATM   14  C   UNL     1      43.727 -18.626   4.049  1.00  0.00    -0.052 A 
HETATM   15  C   UNL     1      43.822 -20.253   2.307  1.00  0.00     0.039 C 
HETATM   16  C   UNL     1      44.348 -19.832   4.678  1.00  0.00     0.039 C 
HETATM   17  C   UNL     1      43.493 -17.387   4.614  1.00  0.00     0.010 A 
HETATM   18  C   UNL     1      43.950 -20.930   3.679  1.00  0.00     0.009 C 
HETATM   19  C   UNL     1      42.941 -16.382   3.811  1.00  0.00     0.030 A 
ENDBRANCH   8  11
ENDBRANCH   6   7
BRANCH   1  20
HETATM   20  C   UNL     1      40.755 -12.029   2.199  1.00  0.00    -0.002 A 
HETATM   21  C   UNL     1      41.878 -11.204   2.378  1.00  0.00     0.017 A 
HETATM   22  C   UNL     1      42.079 -10.517   3.578  1.00  0.00     0.040 A 
HETATM   23  C   UNL     1      41.154 -10.647   4.609  1.00  0.00     0.102 A 
HETATM   24  C   UNL     1      40.043 -11.483   4.451  1.00  0.00     0.103 A 
HETATM   25  O   UNL     1      41.397  -9.926   5.749  1.00  0.00    -0.346 OA
HETATM   26  C   UNL     1      39.829 -12.152   3.244  1.00  0.00     0.053 A 
HETATM   27  O   UNL     1      39.110 -11.683   5.437  1.00  0.00    -0.346 OA
HETATM   28  C   UNL     1      39.583 -11.219   6.708  1.00  0.00     0.202 C 
HETATM   29  C   UNL     1      40.227  -9.849   6.572  1.00  0.00     0.202 C 
ENDBRANCH   1  20
TORSDOF 3
ENDMDL
MODEL 8
REMARK VINA RESULT:      -8.3      2.986      5.451
REMARK  3 active torsions:
REMARK  status: ('A' for Active; 'I' for Inactive)
REMARK    1  A    between atoms: C_2  and  C_3 
REMARK    2  A    between atoms: C_8  and  C_9 
REMARK       I    between atoms: C_9  and  N_10 
REMARK    3  A    between atoms: N_10  and  C_11 
ROOT
HETATM    1  C   UNL     1      42.812 -15.145   5.557  1.00  0.00     0.104 A 
HETATM    2  N   UNL     1      42.832 -16.092   6.514  1.00  0.00    -0.174 NA
HETATM    3  N   UNL     1      42.834 -17.252   5.849  1.00  0.00    -0.288 N 
HETATM    4  H   UNL     1      42.880 -18.114   6.384  1.00  0.00     0.188 HD
HETATM    5  C   UNL     1      42.768 -17.101   4.505  1.00  0.00     0.128 A 
HETATM    6  C   UNL     1      42.715 -15.740   4.256  1.00  0.00     0.080 A 
ENDROOT
BRANCH   6   7
HETATM    7  C   UNL     1      42.603 -15.189   2.908  1.00  0.00     0.260 C 
HETATM    8  N   UNL     1      41.334 -14.765   2.559  1.00  0.00    -0.323 N 
HETATM    9  H   UNL     1      40.605 -14.889   3.250  1.00  0.00     0.169 HD
HETATM   10  O   UNL     1      43.584 -15.181   2.172  1.00  0.00    -0.267 OA
BRANCH   8  11
HETATM   11  C   UNL     1      40.920 -14.217   1.325  1.00  0.00     0.035 A 
HETATM   12  C   UNL     1      40.191 -14.922   0.363  1.00  0.00     0.037 A 
HETATM   13  C   UNL     1      39.829 -14.276  -0.811  1.00  0.00    -0.050 A 
HETATM   14  C   UNL     1      40.171 -12.942  -1.043  1.00  0.00    -0.052 A 
HETATM   15  C   UNL     1      39.009 -14.822  -1.939  1.00  0.00     0.039 C 
HETATM   16  C   UNL     1      39.615 -12.469  -2.348  1.00  0.00     0.039 C 
HETATM   17  C   UNL     1      40.886 -12.225  -0.104  1.00  0.00     0.010 A 
HETATM   18  C   UNL     1      39.312 -13.803  -3.047  1.00  0.00     0.009 C 
HETATM   19  C   UNL     1      41.264 -12.869   1.080  1.00  0.00     0.030 A 
ENDBRANCH   8  11
ENDBRANCH   6   7
BRANCH   1  20
HETATM   20  C   UNL     1      42.901 -13.738   5.956  1.00  0.00    -0.002 A 
HETATM   21  C   UNL     1      41.879 -12.846   5.589  1.00  0.00     0.017 A 
HETATM   22  C   UNL     1      41.919 -11.507   5.983  1.00  0.00     0.040 A 
HETATM   23  C   UNL     1      42.982 -11.048   6.754  1.00  0.00     0.102 A 
HETATM   24  C   UNL     1      44.017 -11.920   7.109  1.00  0.00     0.103 A 
HETATM   25  O   UNL     1      42.947  -9.730   7.130  1.00  0.00    -0.346 OA
HETATM   26  C   UNL     1      43.966 -13.264   6.734  1.00  0.00     0.053 A 
HETATM   27  O   UNL     1      45.110 -11.527   7.839  1.00  0.00    -0.346 OA
HETATM   28  C   UNL     1      45.219 -10.099   7.893  1.00  0.00     0.202 C 
HETATM   29  C   UNL     1      43.869  -9.470   8.195  1.00  0.00     0.202 C 
ENDBRANCH   1  20
TORSDOF 3
ENDMDL
MODEL 9
REMARK VINA RESULT:      -8.3      4.324      5.433
REMARK  3 active torsions:
REMARK  status: ('A' for Active; 'I' for Inactive)
REMARK    1  A    between atoms: C_2  and  C_3 
REMARK    2  A    between atoms: C_8  and  C_9 
REMARK       I    between atoms: C_9  and  N_10 
REMARK    3  A    between atoms: N_10  and  C_11 
ROOT
HETATM    1  C   UNL     1      39.872 -12.711  -0.775  1.00  0.00     0.104 A 
HETATM    2  N   UNL     1      39.533 -12.363  -2.031  1.00  0.00    -0.174 NA
HETATM    3  N   UNL     1      39.346 -13.523  -2.669  1.00  0.00    -0.288 N 
HETATM    4  H   UNL     1      39.049 -13.496  -3.640  1.00  0.00     0.188 HD
HETATM    5  C   UNL     1      39.596 -14.607  -1.898  1.00  0.00     0.128 A 
HETATM    6  C   UNL     1      39.980 -14.135  -0.655  1.00  0.00     0.080 A 
ENDROOT
BRANCH   6   7
HETATM    7  C   UNL     1      40.365 -15.022   0.441  1.00  0.00     0.260 C 
HETATM    8  N   UNL     1      41.627 -14.791   0.957  1.00  0.00    -0.323 N 
HETATM    9  H   UNL     1      42.169 -14.053   0.526  1.00  0.00     0.169 HD
HETATM   10  O   UNL     1      39.605 -15.918   0.792  1.00  0.00    -0.267 OA
BRANCH   8  11
HETATM   11  C   UNL     1      42.273 -15.499   1.994  1.00  0.00     0.035 A 
HETATM   12  C   UNL     1      42.787 -16.792   1.855  1.00  0.00     0.037 A 
HETATM   13  C   UNL     1      43.413 -17.385   2.941  1.00  0.00    -0.050 A 
HETATM   14  C   UNL     1      43.545 -16.717   4.160  1.00  0.00    -0.052 A 
HETATM   15  C   UNL     1      44.076 -18.728   2.993  1.00  0.00     0.039 C 
HETATM   16  C   UNL     1      44.305 -17.548   5.144  1.00  0.00     0.039 C 
HETATM   17  C   UNL     1      43.051 -15.437   4.319  1.00  0.00     0.010 A 
HETATM   18  C   UNL     1      44.195 -18.943   4.509  1.00  0.00     0.009 C 
HETATM   19  C   UNL     1      42.409 -14.832   3.232  1.00  0.00     0.030 A 
ENDBRANCH   8  11
ENDBRANCH   6   7
BRANCH   1  20
HETATM   20  C   UNL     1      40.056 -11.654   0.224  1.00  0.00    -0.002 A 
HETATM   21  C   UNL     1      41.145 -10.773   0.110  1.00  0.00     0.017 A 
HETATM   22  C   UNL     1      41.327  -9.735   1.027  1.00  0.00     0.040 A 
HETATM   23  C   UNL     1      40.417  -9.567   2.066  1.00  0.00     0.102 A 
HETATM   24  C   UNL     1      39.341 -10.450   2.203  1.00  0.00     0.103 A 
HETATM   25  O   UNL     1      40.639  -8.514   2.915  1.00  0.00    -0.346 OA
HETATM   26  C   UNL     1      39.145 -11.474   1.274  1.00  0.00     0.053 A 
HETATM   27  O   UNL     1      38.426 -10.362   3.221  1.00  0.00    -0.346 OA
HETATM   28  C   UNL     1      38.889  -9.503   4.271  1.00  0.00     0.202 C 
HETATM   29  C   UNL     1      39.474  -8.224   3.696  1.00  0.00     0.202 C 
ENDBRANCH   1  20
TORSDOF 3
ENDMDL
MODEL 10
REMARK VINA RESULT:      -8.1      3.212      6.665
REMARK  3 active torsions:
REMARK  status: ('A' for Active; 'I' for Inactive)
REMARK    1  A    between atoms: C_2  and  C_3 
REMARK    2  A    between atoms: C_8  and  C_9 
REMARK       I    between atoms: C_9  and  N_10 
REMARK    3  A    between atoms: N_10  and  C_11 
ROOT
HETATM    1  C   UNL     1      41.050 -10.402   2.837  1.00  0.00     0.104 A 
HETATM    2  N   UNL     1      40.615  -9.276   3.432  1.00  0.00    -0.174 NA
HETATM    3  N   UNL     1      41.429  -9.104   4.478  1.00  0.00    -0.288 N 
HETATM    4  H   UNL     1      41.299  -8.282   5.061  1.00  0.00     0.188 HD
HETATM    5  C   UNL     1      42.342 -10.094   4.617  1.00  0.00     0.128 A 
HETATM    6  C   UNL     1      42.118 -10.993   3.589  1.00  0.00     0.080 A 
ENDROOT
BRANCH   6   7
HETATM    7  C   UNL     1      42.895 -12.220   3.431  1.00  0.00     0.260 C 
HETATM    8  N   UNL     1      42.147 -13.383   3.419  1.00  0.00    -0.323 N 
HETATM    9  H   UNL     1      41.147 -13.284   3.536  1.00  0.00     0.169 HD
HETATM   10  O   UNL     1      44.119 -12.160   3.375  1.00  0.00    -0.267 OA
BRANCH   8  11
HETATM   11  C   UNL     1      42.620 -14.708   3.307  1.00  0.00     0.035 A 
HETATM   12  C   UNL     1      42.943 -15.517   4.401  1.00  0.00     0.037 A 
HETATM   13  C   UNL     1      43.390 -16.810   4.170  1.00  0.00    -0.050 A 
HETATM   14  C   UNL     1      43.516 -17.317   2.875  1.00  0.00    -0.052 A 
HETATM   15  C   UNL     1      43.735 -17.854   5.189  1.00  0.00     0.039 C 
HETATM   16  C   UNL     1      43.958 -18.746   2.903  1.00  0.00     0.039 C 
HETATM   17  C   UNL     1      43.196 -16.538   1.780  1.00  0.00     0.010 A 
HETATM   18  C   UNL     1      44.513 -18.861   4.330  1.00  0.00     0.009 C 
HETATM   19  C   UNL     1      42.753 -15.229   2.001  1.00  0.00     0.030 A 
ENDBRANCH   8  11
ENDBRANCH   6   7
BRANCH   1  20
HETATM   20  C   UNL     1      40.420 -10.826   1.583  1.00  0.00    -0.002 A 
HETATM   21  C   UNL     1      39.031 -11.035   1.540  1.00  0.00     0.017 A 
HETATM   22  C   UNL     1      38.398 -11.406   0.351  1.00  0.00     0.040 A 
HETATM   23  C   UNL     1      39.149 -11.567  -0.808  1.00  0.00     0.102 A 
HETATM   24  C   UNL     1      40.536 -11.383  -0.774  1.00  0.00     0.103 A 
HETATM   25  O   UNL     1      38.463 -11.906  -1.945  1.00  0.00    -0.346 OA
HETATM   26  C   UNL     1      41.167 -10.991   0.409  1.00  0.00     0.053 A 
HETATM   27  O   UNL     1      41.341 -11.558  -1.870  1.00  0.00    -0.346 OA
HETATM   28  C   UNL     1      40.657 -12.254  -2.919  1.00  0.00     0.202 C 
HETATM   29  C   UNL     1      39.260 -11.688  -3.115  1.00  0.00     0.202 C 
ENDBRANCH   1  20
TORSDOF 3
ENDMDL
