MODEL 1
REMARK VINA RESULT:      -8.3      0.000      0.000
REMARK  7 active torsions:
REMARK  status: ('A' for Active; 'I' for Inactive)
REMARK    1  A    between atoms: N_2  and  C_4 
REMARK    2  A    between atoms: N_2  and  C_10 
REMARK    3  A    between atoms: C_10  and  C_11 
REMARK    4  A    between atoms: C_12  and  N_13 
REMARK       I    between atoms: N_13  and  C_14 
REMARK       I    between atoms: C_14  and  N_15 
REMARK    5  A    between atoms: N_15  and  C_16 
REMARK    6  A    between atoms: C_16  and  C_17 
REMARK    7  A    between atoms: C_17  and  C_18 
ROOT
HETATM    1  C   UNL     1      43.528 -17.336   4.546  1.00  0.00    -0.006 A 
HETATM    2  C   UNL     1      43.251 -17.518   3.174  1.00  0.00     0.044 A 
HETATM    3  C   UNL     1      43.494 -18.791   2.606  1.00  0.00     0.030 A 
HETATM    4  C   UNL     1      43.953 -19.870   3.359  1.00  0.00     0.002 A 
HETATM    5  C   UNL     1      44.190 -19.707   4.710  1.00  0.00     0.001 A 
HETATM    6  C   UNL     1      43.983 -18.459   5.292  1.00  0.00     0.011 A 
ENDROOT
BRANCH   2   7
HETATM    7  N   UNL     1      42.740 -16.593   2.229  1.00  0.00    -0.308 N 
HETATM    8  C   UNL     1      41.513 -16.007   2.106  1.00  0.00     0.320 C 
HETATM    9  N   UNL     1      41.395 -15.292   0.940  1.00  0.00    -0.343 N 
HETATM   10  O   UNL     1      40.572 -16.140   2.878  1.00  0.00    -0.247 OA
HETATM   11  H   UNL     1      42.223 -15.001   0.440  1.00  0.00     0.164 HD
HETATM   12  H   UNL     1      43.312 -16.471   1.404  1.00  0.00     0.170 HD
BRANCH   9  13
HETATM   13  C   UNL     1      40.137 -14.666   0.555  1.00  0.00     0.130 C 
BRANCH  13  14
HETATM   14  C   UNL     1      40.341 -13.537  -0.459  1.00  0.00     0.079 C 
BRANCH  14  15
HETATM   15  C   UNL     1      39.243 -13.490  -1.496  1.00  0.00     0.042 A 
HETATM   16  N   UNL     1      38.308 -12.491  -1.338  1.00  0.00    -0.248 NA
HETATM   17  C   UNL     1      37.362 -12.429  -2.216  1.00  0.00     0.210 A 
HETATM   18  N   UNL     1      37.242 -13.277  -3.275  1.00  0.00    -0.318 N 
HETATM   19  C   UNL     1      38.145 -14.270  -3.501  1.00  0.00     0.248 A 
HETATM   20  H   UNL     1      36.490 -13.183  -3.942  1.00  0.00     0.169 HD
HETATM   21  O   UNL     1      38.101 -15.017  -4.469  1.00  0.00    -0.268 OA
HETATM   22  C   UNL     1      39.215 -14.376  -2.502  1.00  0.00     0.101 A 
ENDBRANCH  14  15
ENDBRANCH  13  14
ENDBRANCH   9  13
ENDBRANCH   2   7
BRANCH   1  23
HETATM   23  C   UNL     1      43.469 -16.045   5.334  1.00  0.00     0.275 C 
BRANCH  23  24
HETATM   24  N   UNL     1      42.119 -15.365   5.526  1.00  0.00    -0.067 N 
HETATM   25  C   UNL     1      41.222 -16.119   6.471  1.00  0.00     0.270 C 
HETATM   26  H   UNL     1      41.697 -15.487   4.582  1.00  0.00     0.280 HD
BRANCH  24  27
HETATM   27  C   UNL     1      42.167 -13.866   5.823  1.00  0.00     0.188 C 
HETATM   28  C   UNL     1      43.139 -13.083   4.922  1.00  0.00     0.033 C 
HETATM   29  C   UNL     1      42.660 -12.924   3.481  1.00  0.00     0.002 C 
HETATM   30  C   UNL     1      41.275 -12.295   3.425  1.00  0.00     0.000 C 
HETATM   31  C   UNL     1      40.270 -13.064   4.274  1.00  0.00     0.002 C 
HETATM   32  C   UNL     1      40.762 -13.236   5.713  1.00  0.00     0.033 C 
ENDBRANCH  24  27
ENDBRANCH  23  24
ENDBRANCH   1  23
TORSDOF 7
ENDMDL
MODEL 2
REMARK VINA RESULT:      -8.1      5.440      9.738
REMARK  7 active torsions:
REMARK  status: ('A' for Active; 'I' for Inactive)
REMARK    1  A    between atoms: N_2  and  C_4 
REMARK    2  A    between atoms: N_2  and  C_10 
REMARK    3  A    between atoms: C_10  and  C_11 
REMARK    4  A    between atoms: C_12  and  N_13 
REMARK       I    between atoms: N_13  and  C_14 
REMARK       I    between atoms: C_14  and  N_15 
REMARK    5  A    between atoms: N_15  and  C_16 
REMARK    6  A    between atoms: C_16  and  C_17 
REMARK    7  A    between atoms: C_17  and  C_18 
ROOT
HETATM    1  C   UNL     1      42.978 -13.335   5.370  1.00  0.00    -0.006 A 
HETATM    2  C   UNL     1      43.012 -11.996   5.814  1.00  0.00     0.044 A 
HETATM    3  C   UNL     1      43.188 -10.976   4.850  1.00  0.00     0.030 A 
HETATM    4  C   UNL     1      43.287 -11.245   3.486  1.00  0.00     0.002 A 
HETATM    5  C   UNL     1      43.217 -12.552   3.043  1.00  0.00     0.001 A 
HETATM    6  C   UNL     1      43.068 -13.579   3.971  1.00  0.00     0.011 A 
ENDROOT
BRANCH   2   7
HETATM    7  N   UNL     1      42.885 -11.481   7.129  1.00  0.00    -0.308 N 
HETATM    8  C   UNL     1      43.818 -11.037   8.023  1.00  0.00     0.320 C 
HETATM    9  N   UNL     1      43.270 -10.774   9.254  1.00  0.00    -0.343 N 
HETATM   10  O   UNL     1      45.021 -10.944   7.819  1.00  0.00    -0.247 OA
HETATM   11  H   UNL     1      42.274 -10.631   9.344  1.00  0.00     0.164 HD
HETATM   12  H   UNL     1      41.978 -11.620   7.553  1.00  0.00     0.170 HD
BRANCH   9  13
HETATM   13  C   UNL     1      44.099 -10.385  10.387  1.00  0.00     0.130 C 
BRANCH  13  14
HETATM   14  C   UNL     1      43.414  -9.337  11.269  1.00  0.00     0.079 C 
BRANCH  14  15
HETATM   15  C   UNL     1      41.934  -9.600  11.432  1.00  0.00     0.042 A 
HETATM   16  N   UNL     1      41.131  -9.181  10.395  1.00  0.00    -0.248 NA
HETATM   17  C   UNL     1      39.862  -9.400  10.511  1.00  0.00     0.210 A 
HETATM   18  N   UNL     1      39.285 -10.018  11.578  1.00  0.00    -0.318 N 
HETATM   19  C   UNL     1      40.026 -10.478  12.624  1.00  0.00     0.248 A 
HETATM   20  H   UNL     1      38.289 -10.176  11.619  1.00  0.00     0.169 HD
HETATM   21  O   UNL     1      39.551 -11.084  13.574  1.00  0.00    -0.268 OA
HETATM   22  C   UNL     1      41.467 -10.217  12.527  1.00  0.00     0.101 A 
ENDBRANCH  14  15
ENDBRANCH  13  14
ENDBRANCH   9  13
ENDBRANCH   2   7
BRANCH   1  23
HETATM   23  C   UNL     1      42.927 -14.587   6.220  1.00  0.00     0.275 C 
BRANCH  23  24
HETATM   24  N   UNL     1      43.624 -15.843   5.716  1.00  0.00    -0.067 N 
HETATM   25  C   UNL     1      44.836 -16.200   6.534  1.00  0.00     0.270 C 
HETATM   26  H   UNL     1      43.991 -15.515   4.799  1.00  0.00     0.280 HD
BRANCH  24  27
HETATM   27  C   UNL     1      42.716 -17.044   5.448  1.00  0.00     0.188 C 
HETATM   28  C   UNL     1      41.703 -16.818   4.310  1.00  0.00     0.033 C 
HETATM   29  C   UNL     1      42.327 -16.803   2.917  1.00  0.00     0.002 C 
HETATM   30  C   UNL     1      43.131 -18.069   2.657  1.00  0.00     0.000 C 
HETATM   31  C   UNL     1      44.173 -18.309   3.741  1.00  0.00     0.002 C 
HETATM   32  C   UNL     1      43.547 -18.307   5.137  1.00  0.00     0.033 C 
ENDBRANCH  24  27
ENDBRANCH  23  24
ENDBRANCH   1  23
TORSDOF 7
ENDMDL
MODEL 3
REMARK VINA RESULT:      -8.0      5.137      9.518
REMARK  7 active torsions:
REMARK  status: ('A' for Active; 'I' for Inactive)
REMARK    1  A    between atoms: N_2  and  C_4 
REMARK    2  A    between atoms: N_2  and  C_10 
REMARK    3  A    between atoms: C_10  and  C_11 
REMARK    4  A    between atoms: C_12  and  N_13 
REMARK       I    between atoms: N_13  and  C_14 
REMARK       I    between atoms: C_14  and  N_15 
REMARK    5  A    between atoms: N_15  and  C_16 
REMARK    6  A    between atoms: C_16  and  C_17 
REMARK    7  A    between atoms: C_17  and  C_18 
ROOT
HETATM    1  C   UNL     1      41.860 -13.252   4.836  1.00  0.00    -0.006 A 
HETATM    2  C   UNL     1      42.287 -12.065   5.468  1.00  0.00     0.044 A 
HETATM    3  C   UNL     1      41.305 -11.220   6.037  1.00  0.00     0.030 A 
HETATM    4  C   UNL     1      39.948 -11.540   6.028  1.00  0.00     0.002 A 
HETATM    5  C   UNL     1      39.530 -12.719   5.442  1.00  0.00     0.001 A 
HETATM    6  C   UNL     1      40.471 -13.559   4.854  1.00  0.00     0.011 A 
ENDROOT
BRANCH   2   7
HETATM    7  N   UNL     1      43.600 -11.560   5.642  1.00  0.00    -0.308 N 
HETATM    8  C   UNL     1      44.449 -11.588   6.711  1.00  0.00     0.320 C 
HETATM    9  N   UNL     1      45.574 -10.829   6.499  1.00  0.00    -0.343 N 
HETATM   10  O   UNL     1      44.239 -12.144   7.781  1.00  0.00    -0.247 OA
HETATM   11  H   UNL     1      45.843 -10.576   5.558  1.00  0.00     0.164 HD
HETATM   12  H   UNL     1      43.906 -10.919   4.921  1.00  0.00     0.170 HD
BRANCH   9  13
HETATM   13  C   UNL     1      46.569 -10.636   7.545  1.00  0.00     0.130 C 
BRANCH  13  14
HETATM   14  C   UNL     1      46.642  -9.179   8.010  1.00  0.00     0.079 C 
BRANCH  14  15
HETATM   15  C   UNL     1      45.460  -8.791   8.869  1.00  0.00     0.042 A 
HETATM   16  N   UNL     1      44.735  -7.702   8.438  1.00  0.00    -0.248 NA
HETATM   17  C   UNL     1      43.718  -7.353   9.154  1.00  0.00     0.210 A 
HETATM   18  N   UNL     1      43.323  -7.996  10.288  1.00  0.00    -0.318 N 
HETATM   19  C   UNL     1      43.980  -9.093  10.753  1.00  0.00     0.248 A 
HETATM   20  H   UNL     1      42.513  -7.693  10.809  1.00  0.00     0.169 HD
HETATM   21  O   UNL     1      43.625  -9.729  11.737  1.00  0.00    -0.268 OA
HETATM   22  C   UNL     1      45.156  -9.492   9.971  1.00  0.00     0.101 A 
ENDBRANCH  14  15
ENDBRANCH  13  14
ENDBRANCH   9  13
ENDBRANCH   2   7
BRANCH   1  23
HETATM   23  C   UNL     1      42.707 -14.235   4.055  1.00  0.00     0.275 C 
BRANCH  23  24
HETATM   24  N   UNL     1      43.254 -15.461   4.773  1.00  0.00    -0.067 N 
HETATM   25  C   UNL     1      43.598 -15.183   6.212  1.00  0.00     0.270 C 
HETATM   26  H   UNL     1      44.165 -15.589   4.287  1.00  0.00     0.280 HD
BRANCH  24  27
HETATM   27  C   UNL     1      42.449 -16.749   4.595  1.00  0.00     0.188 C 
HETATM   28  C   UNL     1      42.072 -17.052   3.133  1.00  0.00     0.033 C 
HETATM   29  C   UNL     1      43.248 -17.502   2.269  1.00  0.00     0.002 C 
HETATM   30  C   UNL     1      43.959 -18.700   2.884  1.00  0.00     0.000 C 
HETATM   31  C   UNL     1      44.384 -18.428   4.321  1.00  0.00     0.002 C 
HETATM   32  C   UNL     1      43.207 -17.960   5.179  1.00  0.00     0.033 C 
ENDBRANCH  24  27
ENDBRANCH  23  24
ENDBRANCH   1  23
TORSDOF 7
ENDMDL
MODEL 4
REMARK VINA RESULT:      -7.9      5.086      9.509
REMARK  7 active torsions:
REMARK  status: ('A' for Active; 'I' for Inactive)
REMARK    1  A    between atoms: N_2  and  C_4 
REMARK    2  A    between atoms: N_2  and  C_10 
REMARK    3  A    between atoms: C_10  and  C_11 
REMARK    4  A    between atoms: C_12  and  N_13 
REMARK       I    between atoms: N_13  and  C_14 
REMARK       I    between atoms: C_14  and  N_15 
REMARK    5  A    between atoms: N_15  and  C_16 
REMARK    6  A    between atoms: C_16  and  C_17 
REMARK    7  A    between atoms: C_17  and  C_18 
ROOT
HETATM    1  C   UNL     1      42.761 -14.823   5.607  1.00  0.00    -0.006 A 
HETATM    2  C   UNL     1      43.074 -14.464   6.936  1.00  0.00     0.044 A 
HETATM    3  C   UNL     1      43.335 -15.500   7.863  1.00  0.00     0.030 A 
HETATM    4  C   UNL     1      43.333 -16.846   7.501  1.00  0.00     0.002 A 
HETATM    5  C   UNL     1      43.065 -17.199   6.194  1.00  0.00     0.001 A 
HETATM    6  C   UNL     1      42.780 -16.203   5.263  1.00  0.00     0.011 A 
ENDROOT
BRANCH   2   7
HETATM    7  N   UNL     1      43.181 -13.176   7.519  1.00  0.00    -0.308 N 
HETATM    8  C   UNL     1      44.070 -12.160   7.317  1.00  0.00     0.320 C 
HETATM    9  N   UNL     1      43.903 -11.139   8.220  1.00  0.00    -0.343 N 
HETATM   10  O   UNL     1      44.976 -12.151   6.495  1.00  0.00    -0.247 OA
HETATM   11  H   UNL     1      43.033 -11.049   8.725  1.00  0.00     0.164 HD
HETATM   12  H   UNL     1      42.616 -13.038   8.347  1.00  0.00     0.170 HD
BRANCH   9  13
HETATM   13  C   UNL     1      44.807  -9.998   8.253  1.00  0.00     0.130 C 
BRANCH  13  14
HETATM   14  C   UNL     1      45.448  -9.809   9.630  1.00  0.00     0.079 C 
BRANCH  14  15
HETATM   15  C   UNL     1      44.433  -9.861  10.749  1.00  0.00     0.042 A 
HETATM   16  N   UNL     1      44.183 -11.108  11.278  1.00  0.00    -0.248 NA
HETATM   17  C   UNL     1      43.321 -11.176  12.238  1.00  0.00     0.210 A 
HETATM   18  N   UNL     1      42.663 -10.101  12.754  1.00  0.00    -0.318 N 
HETATM   19  C   UNL     1      42.883  -8.839  12.294  1.00  0.00     0.248 A 
HETATM   20  H   UNL     1      42.005 -10.203  13.514  1.00  0.00     0.169 HD
HETATM   21  O   UNL     1      42.351  -7.844  12.767  1.00  0.00    -0.268 OA
HETATM   22  C   UNL     1      43.838  -8.740  11.184  1.00  0.00     0.101 A 
ENDBRANCH  14  15
ENDBRANCH  13  14
ENDBRANCH   9  13
ENDBRANCH   2   7
BRANCH   1  23
HETATM   23  C   UNL     1      42.326 -13.905   4.484  1.00  0.00     0.275 C 
BRANCH  23  24
HETATM   24  N   UNL     1      40.970 -14.139   3.832  1.00  0.00    -0.067 N 
HETATM   25  C   UNL     1      39.921 -13.175   4.318  1.00  0.00     0.270 C 
HETATM   26  H   UNL     1      40.710 -15.063   4.234  1.00  0.00     0.280 HD
BRANCH  24  27
HETATM   27  C   UNL     1      40.982 -14.282   2.309  1.00  0.00     0.188 C 
HETATM   28  C   UNL     1      42.325 -13.905   1.658  1.00  0.00     0.033 C 
HETATM   29  C   UNL     1      43.441 -14.918   1.902  1.00  0.00     0.002 C 
HETATM   30  C   UNL     1      43.023 -16.316   1.465  1.00  0.00     0.000 C 
HETATM   31  C   UNL     1      41.716 -16.745   2.119  1.00  0.00     0.002 C 
HETATM   32  C   UNL     1      40.605 -15.718   1.887  1.00  0.00     0.033 C 
ENDBRANCH  24  27
ENDBRANCH  23  24
ENDBRANCH   1  23
TORSDOF 7
ENDMDL
MODEL 5
REMARK VINA RESULT:      -7.8      1.809      2.123
REMARK  7 active torsions:
REMARK  status: ('A' for Active; 'I' for Inactive)
REMARK    1  A    between atoms: N_2  and  C_4 
REMARK    2  A    between atoms: N_2  and  C_10 
REMARK    3  A    between atoms: C_10  and  C_11 
REMARK    4  A    between atoms: C_12  and  N_13 
REMARK       I    between atoms: N_13  and  C_14 
REMARK       I    between atoms: C_14  and  N_15 
REMARK    5  A    between atoms: N_15  and  C_16 
REMARK    6  A    between atoms: C_16  and  C_17 
REMARK    7  A    between atoms: C_17  and  C_18 
ROOT
HETATM    1  C   UNL     1      43.353 -17.017   4.367  1.00  0.00    -0.006 A 
HETATM    2  C   UNL     1      43.158 -17.174   2.978  1.00  0.00     0.044 A 
HETATM    3  C   UNL     1      43.493 -18.417   2.392  1.00  0.00     0.030 A 
HETATM    4  C   UNL     1      43.966 -19.493   3.141  1.00  0.00     0.002 A 
HETATM    5  C   UNL     1      44.124 -19.356   4.507  1.00  0.00     0.001 A 
HETATM    6  C   UNL     1      43.825 -18.136   5.108  1.00  0.00     0.011 A 
ENDROOT
BRANCH   2   7
HETATM    7  N   UNL     1      42.651 -16.249   2.031  1.00  0.00    -0.308 N 
HETATM    8  C   UNL     1      41.399 -15.737   1.843  1.00  0.00     0.320 C 
HETATM    9  N   UNL     1      41.313 -14.989   0.695  1.00  0.00    -0.343 N 
HETATM   10  O   UNL     1      40.420 -15.957   2.544  1.00  0.00    -0.247 OA
HETATM   11  H   UNL     1      42.152 -14.629   0.262  1.00  0.00     0.164 HD
HETATM   12  H   UNL     1      43.267 -16.061   1.251  1.00  0.00     0.170 HD
BRANCH   9  13
HETATM   13  C   UNL     1      40.045 -14.429   0.246  1.00  0.00     0.130 C 
BRANCH  13  14
HETATM   14  C   UNL     1      40.078 -14.042  -1.235  1.00  0.00     0.079 C 
BRANCH  14  15
HETATM   15  C   UNL     1      40.491 -12.603  -1.444  1.00  0.00     0.042 A 
HETATM   16  N   UNL     1      40.915 -11.929  -0.321  1.00  0.00    -0.248 NA
HETATM   17  C   UNL     1      41.276 -10.698  -0.476  1.00  0.00     0.210 A 
HETATM   18  N   UNL     1      41.270 -10.043  -1.670  1.00  0.00    -0.318 N 
HETATM   19  C   UNL     1      40.887 -10.659  -2.821  1.00  0.00     0.248 A 
HETATM   20  H   UNL     1      41.573  -9.082  -1.744  1.00  0.00     0.169 HD
HETATM   21  O   UNL     1      40.918 -10.120  -3.920  1.00  0.00    -0.268 OA
HETATM   22  C   UNL     1      40.446 -12.050  -2.665  1.00  0.00     0.101 A 
ENDBRANCH  14  15
ENDBRANCH  13  14
ENDBRANCH   9  13
ENDBRANCH   2   7
BRANCH   1  23
HETATM   23  C   UNL     1      43.189 -15.752   5.183  1.00  0.00     0.275 C 
BRANCH  23  24
HETATM   24  N   UNL     1      41.800 -15.141   5.314  1.00  0.00    -0.067 N 
HETATM   25  C   UNL     1      40.885 -15.968   6.177  1.00  0.00     0.270 C 
HETATM   26  H   UNL     1      41.441 -15.247   4.343  1.00  0.00     0.280 HD
BRANCH  24  27
HETATM   27  C   UNL     1      41.760 -13.653   5.664  1.00  0.00     0.188 C 
HETATM   28  C   UNL     1      42.702 -12.786   4.809  1.00  0.00     0.033 C 
HETATM   29  C   UNL     1      42.240 -12.602   3.366  1.00  0.00     0.002 C 
HETATM   30  C   UNL     1      40.823 -12.049   3.305  1.00  0.00     0.000 C 
HETATM   31  C   UNL     1      39.848 -12.901   4.108  1.00  0.00     0.002 C 
HETATM   32  C   UNL     1      40.324 -13.098   5.549  1.00  0.00     0.033 C 
ENDBRANCH  24  27
ENDBRANCH  23  24
ENDBRANCH   1  23
TORSDOF 7
ENDMDL
MODEL 6
REMARK VINA RESULT:      -7.8      1.727      4.398
REMARK  7 active torsions:
REMARK  status: ('A' for Active; 'I' for Inactive)
REMARK    1  A    between atoms: N_2  and  C_4 
REMARK    2  A    between atoms: N_2  and  C_10 
REMARK    3  A    between atoms: C_10  and  C_11 
REMARK    4  A    between atoms: C_12  and  N_13 
REMARK       I    between atoms: N_13  and  C_14 
REMARK       I    between atoms: C_14  and  N_15 
REMARK    5  A    between atoms: N_15  and  C_16 
REMARK    6  A    between atoms: C_16  and  C_17 
REMARK    7  A    between atoms: C_17  and  C_18 
ROOT
HETATM    1  C   UNL     1      42.589 -13.942   5.716  1.00  0.00    -0.006 A 
HETATM    2  C   UNL     1      42.428 -12.895   4.784  1.00  0.00     0.044 A 
HETATM    3  C   UNL     1      43.207 -11.726   4.952  1.00  0.00     0.030 A 
HETATM    4  C   UNL     1      44.147 -11.594   5.973  1.00  0.00     0.002 A 
HETATM    5  C   UNL     1      44.334 -12.632   6.865  1.00  0.00     0.001 A 
HETATM    6  C   UNL     1      43.565 -13.785   6.739  1.00  0.00     0.011 A 
ENDROOT
BRANCH   2   7
HETATM    7  N   UNL     1      41.579 -12.821   3.651  1.00  0.00    -0.308 N 
HETATM    8  C   UNL     1      41.792 -13.126   2.337  1.00  0.00     0.320 C 
HETATM    9  N   UNL     1      40.740 -12.746   1.541  1.00  0.00    -0.343 N 
HETATM   10  O   UNL     1      42.815 -13.606   1.867  1.00  0.00    -0.247 OA
HETATM   11  H   UNL     1      39.833 -12.574   1.951  1.00  0.00     0.164 HD
HETATM   12  H   UNL     1      40.728 -12.295   3.793  1.00  0.00     0.170 HD
BRANCH   9  13
HETATM   13  C   UNL     1      40.794 -12.885   0.092  1.00  0.00     0.130 C 
BRANCH  13  14
HETATM   14  C   UNL     1      40.138 -14.182  -0.389  1.00  0.00     0.079 C 
BRANCH  14  15
HETATM   15  C   UNL     1      39.147 -13.946  -1.505  1.00  0.00     0.042 A 
HETATM   16  N   UNL     1      39.061 -14.939  -2.455  1.00  0.00    -0.248 NA
HETATM   17  C   UNL     1      38.217 -14.760  -3.416  1.00  0.00     0.210 A 
HETATM   18  N   UNL     1      37.414 -13.667  -3.538  1.00  0.00    -0.318 N 
HETATM   19  C   UNL     1      37.433 -12.661  -2.621  1.00  0.00     0.248 A 
HETATM   20  H   UNL     1      36.761 -13.576  -4.303  1.00  0.00     0.169 HD
HETATM   21  O   UNL     1      36.690 -11.690  -2.667  1.00  0.00    -0.268 OA
HETATM   22  C   UNL     1      38.403 -12.830  -1.533  1.00  0.00     0.101 A 
ENDBRANCH  14  15
ENDBRANCH  13  14
ENDBRANCH   9  13
ENDBRANCH   2   7
BRANCH   1  23
HETATM   23  C   UNL     1      41.782 -15.221   5.813  1.00  0.00     0.275 C 
BRANCH  23  24
HETATM   24  N   UNL     1      41.959 -16.281   4.734  1.00  0.00    -0.067 N 
HETATM   25  C   UNL     1      40.866 -16.239   3.699  1.00  0.00     0.270 C 
HETATM   26  H   UNL     1      41.795 -17.152   5.279  1.00  0.00     0.280 HD
BRANCH  24  27
HETATM   27  C   UNL     1      43.355 -16.374   4.118  1.00  0.00     0.188 C 
HETATM   28  C   UNL     1      44.336 -17.243   4.926  1.00  0.00     0.033 C 
HETATM   29  C   UNL     1      44.049 -18.741   4.848  1.00  0.00     0.002 C 
HETATM   30  C   UNL     1      43.996 -19.220   3.404  1.00  0.00     0.000 C 
HETATM   31  C   UNL     1      43.005 -18.410   2.577  1.00  0.00     0.002 C 
HETATM   32  C   UNL     1      43.286 -16.909   2.671  1.00  0.00     0.033 C 
ENDBRANCH  24  27
ENDBRANCH  23  24
ENDBRANCH   1  23
TORSDOF 7
ENDMDL
MODEL 7
REMARK VINA RESULT:      -7.7      5.244      8.822
REMARK  7 active torsions:
REMARK  status: ('A' for Active; 'I' for Inactive)
REMARK    1  A    between atoms: N_2  and  C_4 
REMARK    2  A    between atoms: N_2  and  C_10 
REMARK    3  A    between atoms: C_10  and  C_11 
REMARK    4  A    between atoms: C_12  and  N_13 
REMARK       I    between atoms: N_13  and  C_14 
REMARK       I    between atoms: C_14  and  N_15 
REMARK    5  A    between atoms: N_15  and  C_16 
REMARK    6  A    between atoms: C_16  and  C_17 
REMARK    7  A    between atoms: C_17  and  C_18 
ROOT
HETATM    1  C   UNL     1      43.569  -9.764   8.221  1.00  0.00    -0.006 A 
HETATM    2  C   UNL     1      44.031 -11.001   7.722  1.00  0.00     0.044 A 
HETATM    3  C   UNL     1      45.418 -11.151   7.488  1.00  0.00     0.030 A 
HETATM    4  C   UNL     1      46.337 -10.142   7.770  1.00  0.00     0.002 A 
HETATM    5  C   UNL     1      45.894  -8.943   8.293  1.00  0.00     0.001 A 
HETATM    6  C   UNL     1      44.531  -8.757   8.512  1.00  0.00     0.011 A 
ENDROOT
BRANCH   2   7
HETATM    7  N   UNL     1      43.300 -12.174   7.408  1.00  0.00    -0.308 N 
HETATM    8  C   UNL     1      42.505 -12.490   6.344  1.00  0.00     0.320 C 
HETATM    9  N   UNL     1      41.854 -13.686   6.522  1.00  0.00    -0.343 N 
HETATM   10  O   UNL     1      42.303 -11.786   5.364  1.00  0.00    -0.247 OA
HETATM   11  H   UNL     1      42.195 -14.351   7.202  1.00  0.00     0.164 HD
HETATM   12  H   UNL     1      43.203 -12.830   8.173  1.00  0.00     0.170 HD
BRANCH   9  13
HETATM   13  C   UNL     1      40.877 -14.171   5.556  1.00  0.00     0.130 C 
BRANCH  13  14
HETATM   14  C   UNL     1      40.636 -15.678   5.686  1.00  0.00     0.079 C 
BRANCH  14  15
HETATM   15  C   UNL     1      41.893 -16.484   5.449  1.00  0.00     0.042 A 
HETATM   16  N   UNL     1      42.579 -16.875   6.577  1.00  0.00    -0.248 NA
HETATM   17  C   UNL     1      43.654 -17.569   6.398  1.00  0.00     0.210 A 
HETATM   18  N   UNL     1      44.136 -17.935   5.178  1.00  0.00    -0.318 N 
HETATM   19  C   UNL     1      43.492 -17.601   4.026  1.00  0.00     0.248 A 
HETATM   20  H   UNL     1      44.976 -18.488   5.088  1.00  0.00     0.169 HD
HETATM   21  O   UNL     1      43.864 -17.957   2.915  1.00  0.00    -0.268 OA
HETATM   22  C   UNL     1      42.282 -16.791   4.202  1.00  0.00     0.101 A 
ENDBRANCH  14  15
ENDBRANCH  13  14
ENDBRANCH   9  13
ENDBRANCH   2   7
BRANCH   1  23
HETATM   23  C   UNL     1      42.132  -9.333   8.425  1.00  0.00     0.275 C 
BRANCH  23  24
HETATM   24  N   UNL     1      41.841  -8.191   9.390  1.00  0.00    -0.067 N 
HETATM   25  C   UNL     1      41.089  -7.061   8.737  1.00  0.00     0.270 C 
HETATM   26  H   UNL     1      42.800  -7.826   9.564  1.00  0.00     0.280 HD
BRANCH  24  27
HETATM   27  C   UNL     1      41.246  -8.597  10.738  1.00  0.00     0.188 C 
HETATM   28  C   UNL     1      42.052  -9.683  11.474  1.00  0.00     0.033 C 
HETATM   29  C   UNL     1      43.378  -9.191  12.049  1.00  0.00     0.002 C 
HETATM   30  C   UNL     1      43.174  -7.987  12.958  1.00  0.00     0.000 C 
HETATM   31  C   UNL     1      42.412  -6.871  12.255  1.00  0.00     0.002 C 
HETATM   32  C   UNL     1      41.092  -7.372  11.665  1.00  0.00     0.033 C 
ENDBRANCH  24  27
ENDBRANCH  23  24
ENDBRANCH   1  23
TORSDOF 7
ENDMDL
MODEL 8
REMARK VINA RESULT:      -7.5      5.146     10.119
REMARK  7 active torsions:
REMARK  status: ('A' for Active; 'I' for Inactive)
REMARK    1  A    between atoms: N_2  and  C_4 
REMARK    2  A    between atoms: N_2  and  C_10 
REMARK    3  A    between atoms: C_10  and  C_11 
REMARK    4  A    between atoms: C_12  and  N_13 
REMARK       I    between atoms: N_13  and  C_14 
REMARK       I    between atoms: C_14  and  N_15 
REMARK    5  A    between atoms: N_15  and  C_16 
REMARK    6  A    between atoms: C_16  and  C_17 
REMARK    7  A    between atoms: C_17  and  C_18 
ROOT
HETATM    1  C   UNL     1      40.596 -12.651   5.570  1.00  0.00    -0.006 A 
HETATM    2  C   UNL     1      41.111 -11.370   5.864  1.00  0.00     0.044 A 
HETATM    3  C   UNL     1      40.719 -10.288   5.041  1.00  0.00     0.030 A 
HETATM    4  C   UNL     1      39.821 -10.437   3.987  1.00  0.00     0.002 A 
HETATM    5  C   UNL     1      39.286 -11.682   3.718  1.00  0.00     0.001 A 
HETATM    6  C   UNL     1      39.670 -12.771   4.496  1.00  0.00     0.011 A 
ENDROOT
BRANCH   2   7
HETATM    7  N   UNL     1      41.990 -10.970   6.901  1.00  0.00    -0.308 N 
HETATM    8  C   UNL     1      43.350 -10.849   6.941  1.00  0.00     0.320 C 
HETATM    9  N   UNL     1      43.809 -10.586   8.207  1.00  0.00    -0.343 N 
HETATM   10  O   UNL     1      44.115 -11.026   6.002  1.00  0.00    -0.247 OA
HETATM   11  H   UNL     1      43.179 -10.219   8.907  1.00  0.00     0.164 HD
HETATM   12  H   UNL     1      41.571 -10.931   7.821  1.00  0.00     0.170 HD
BRANCH   9  13
HETATM   13  C   UNL     1      45.234 -10.516   8.500  1.00  0.00     0.130 C 
BRANCH  13  14
HETATM   14  C   UNL     1      45.533  -9.619   9.705  1.00  0.00     0.079 C 
BRANCH  14  15
HETATM   15  C   UNL     1      44.496  -9.758  10.796  1.00  0.00     0.042 A 
HETATM   16  N   UNL     1      44.240 -11.042  11.223  1.00  0.00    -0.248 NA
HETATM   17  C   UNL     1      43.360 -11.185  12.158  1.00  0.00     0.210 A 
HETATM   18  N   UNL     1      42.688 -10.154  12.742  1.00  0.00    -0.318 N 
HETATM   19  C   UNL     1      42.913  -8.861  12.384  1.00  0.00     0.248 A 
HETATM   20  H   UNL     1      42.016 -10.315  13.479  1.00  0.00     0.169 HD
HETATM   21  O   UNL     1      42.369  -7.906  12.922  1.00  0.00    -0.268 OA
HETATM   22  C   UNL     1      43.890  -8.675  11.305  1.00  0.00     0.101 A 
ENDBRANCH  14  15
ENDBRANCH  13  14
ENDBRANCH   9  13
ENDBRANCH   2   7
BRANCH   1  23
HETATM   23  C   UNL     1      40.968 -13.965   6.224  1.00  0.00     0.275 C 
BRANCH  23  24
HETATM   24  N   UNL     1      42.166 -14.736   5.688  1.00  0.00    -0.067 N 
HETATM   25  C   UNL     1      43.398 -14.548   6.532  1.00  0.00     0.270 C 
HETATM   26  H   UNL     1      42.353 -14.226   4.801  1.00  0.00     0.280 HD
BRANCH  24  27
HETATM   27  C   UNL     1      41.909 -16.202   5.335  1.00  0.00     0.188 C 
HETATM   28  C   UNL     1      40.629 -16.428   4.508  1.00  0.00     0.033 C 
HETATM   29  C   UNL     1      40.732 -15.952   3.061  1.00  0.00     0.002 C 
HETATM   30  C   UNL     1      41.927 -16.579   2.356  1.00  0.00     0.000 C 
HETATM   31  C   UNL     1      43.223 -16.344   3.123  1.00  0.00     0.002 C 
HETATM   32  C   UNL     1      43.110 -16.806   4.577  1.00  0.00     0.033 C 
ENDBRANCH  24  27
ENDBRANCH  23  24
ENDBRANCH   1  23
TORSDOF 7
ENDMDL
MODEL 9
REMARK VINA RESULT:      -7.4      3.824      7.139
REMARK  7 active torsions:
REMARK  status: ('A' for Active; 'I' for Inactive)
REMARK    1  A    between atoms: N_2  and  C_4 
REMARK    2  A    between atoms: N_2  and  C_10 
REMARK    3  A    between atoms: C_10  and  C_11 
REMARK    4  A    between atoms: C_12  and  N_13 
REMARK       I    between atoms: N_13  and  C_14 
REMARK       I    between atoms: C_14  and  N_15 
REMARK    5  A    between atoms: N_15  and  C_16 
REMARK    6  A    between atoms: C_16  and  C_17 
REMARK    7  A    between atoms: C_17  and  C_18 
ROOT
HETATM    1  C   UNL     1      43.785 -18.514   3.061  1.00  0.00    -0.006 A 
HETATM    2  C   UNL     1      44.059 -18.341   4.434  1.00  0.00     0.044 A 
HETATM    3  C   UNL     1      44.117 -19.492   5.254  1.00  0.00     0.030 A 
HETATM    4  C   UNL     1      43.956 -20.780   4.748  1.00  0.00     0.002 A 
HETATM    5  C   UNL     1      43.725 -20.957   3.397  1.00  0.00     0.001 A 
HETATM    6  C   UNL     1      43.639 -19.841   2.569  1.00  0.00     0.011 A 
ENDROOT
BRANCH   2   7
HETATM    7  N   UNL     1      44.302 -17.147   5.159  1.00  0.00    -0.308 N 
HETATM    8  C   UNL     1      43.500 -16.403   5.977  1.00  0.00     0.320 C 
HETATM    9  N   UNL     1      44.094 -15.222   6.347  1.00  0.00    -0.343 N 
HETATM   10  O   UNL     1      42.353 -16.678   6.302  1.00  0.00    -0.247 OA
HETATM   11  H   UNL     1      45.095 -15.114   6.272  1.00  0.00     0.164 HD
HETATM   12  H   UNL     1      45.151 -16.661   4.903  1.00  0.00     0.170 HD
BRANCH   9  13
HETATM   13  C   UNL     1      43.380 -14.228   7.137  1.00  0.00     0.130 C 
BRANCH  13  14
HETATM   14  C   UNL     1      42.950 -13.023   6.296  1.00  0.00     0.079 C 
BRANCH  14  15
HETATM   15  C   UNL     1      43.457 -11.716   6.861  1.00  0.00     0.042 A 
HETATM   16  N   UNL     1      42.510 -10.733   7.048  1.00  0.00    -0.248 NA
HETATM   17  C   UNL     1      42.920  -9.608   7.534  1.00  0.00     0.210 A 
HETATM   18  N   UNL     1      44.213  -9.346   7.874  1.00  0.00    -0.318 N 
HETATM   19  C   UNL     1      45.192 -10.283   7.738  1.00  0.00     0.248 A 
HETATM   20  H   UNL     1      44.484  -8.454   8.262  1.00  0.00     0.169 HD
HETATM   21  O   UNL     1      46.352 -10.103   8.081  1.00  0.00    -0.268 OA
HETATM   22  C   UNL     1      44.754 -11.560   7.162  1.00  0.00     0.101 A 
ENDBRANCH  14  15
ENDBRANCH  13  14
ENDBRANCH   9  13
ENDBRANCH   2   7
BRANCH   1  23
HETATM   23  C   UNL     1      43.551 -17.435   2.025  1.00  0.00     0.275 C 
BRANCH  23  24
HETATM   24  N   UNL     1      42.788 -16.182   2.433  1.00  0.00    -0.067 N 
HETATM   25  C   UNL     1      43.398 -14.925   1.872  1.00  0.00     0.270 C 
HETATM   26  H   UNL     1      42.979 -16.155   3.456  1.00  0.00     0.280 HD
BRANCH  24  27
HETATM   27  C   UNL     1      41.271 -16.239   2.247  1.00  0.00     0.188 C 
HETATM   28  C   UNL     1      40.476 -16.087   3.557  1.00  0.00     0.033 C 
HETATM   29  C   UNL     1      40.493 -14.673   4.134  1.00  0.00     0.002 C 
HETATM   30  C   UNL     1      40.013 -13.652   3.111  1.00  0.00     0.000 C 
HETATM   31  C   UNL     1      40.802 -13.743   1.810  1.00  0.00     0.002 C 
HETATM   32  C   UNL     1      40.797 -15.165   1.245  1.00  0.00     0.033 C 
ENDBRANCH  24  27
ENDBRANCH  23  24
ENDBRANCH   1  23
TORSDOF 7
ENDMDL
MODEL 10
REMARK VINA RESULT:      -7.3      4.527      8.828
REMARK  7 active torsions:
REMARK  status: ('A' for Active; 'I' for Inactive)
REMARK    1  A    between atoms: N_2  and  C_4 
REMARK    2  A    between atoms: N_2  and  C_10 
REMARK    3  A    between atoms: C_10  and  C_11 
REMARK    4  A    between atoms: C_12  and  N_13 
REMARK       I    between atoms: N_13  and  C_14 
REMARK       I    between atoms: C_14  and  N_15 
REMARK    5  A    between atoms: N_15  and  C_16 
REMARK    6  A    between atoms: C_16  and  C_17 
REMARK    7  A    between atoms: C_17  and  C_18 
ROOT
HETATM    1  C   UNL     1      42.488 -15.344   4.889  1.00  0.00    -0.006 A 
HETATM    2  C   UNL     1      43.289 -15.051   6.013  1.00  0.00     0.044 A 
HETATM    3  C   UNL     1      44.236 -16.016   6.429  1.00  0.00     0.030 A 
HETATM    4  C   UNL     1      44.429 -17.216   5.747  1.00  0.00     0.002 A 
HETATM    5  C   UNL     1      43.673 -17.491   4.624  1.00  0.00     0.001 A 
HETATM    6  C   UNL     1      42.716 -16.571   4.205  1.00  0.00     0.011 A 
ENDROOT
BRANCH   2   7
HETATM    7  N   UNL     1      43.306 -13.891   6.828  1.00  0.00    -0.308 N 
HETATM    8  C   UNL     1      43.723 -12.615   6.581  1.00  0.00     0.320 C 
HETATM    9  N   UNL     1      43.713 -11.838   7.713  1.00  0.00    -0.343 N 
HETATM   10  O   UNL     1      44.142 -12.190   5.512  1.00  0.00    -0.247 OA
HETATM   11  H   UNL     1      43.162 -12.118   8.512  1.00  0.00     0.164 HD
HETATM   12  H   UNL     1      43.147 -14.063   7.812  1.00  0.00     0.170 HD
BRANCH   9  13
HETATM   13  C   UNL     1      44.213 -10.470   7.701  1.00  0.00     0.130 C 
BRANCH  13  14
HETATM   14  C   UNL     1      43.271  -9.505   8.425  1.00  0.00     0.079 C 
BRANCH  14  15
HETATM   15  C   UNL     1      43.024  -9.910   9.861  1.00  0.00     0.042 A 
HETATM   16  N   UNL     1      43.982 -10.719  10.431  1.00  0.00    -0.248 NA
HETATM   17  C   UNL     1      43.794 -11.074  11.659  1.00  0.00     0.210 A 
HETATM   18  N   UNL     1      42.725 -10.694  12.412  1.00  0.00    -0.318 N 
HETATM   19  C   UNL     1      41.757  -9.876  11.916  1.00  0.00     0.248 A 
HETATM   20  H   UNL     1      42.627 -10.989  13.373  1.00  0.00     0.169 HD
HETATM   21  O   UNL     1      40.810  -9.470  12.577  1.00  0.00    -0.268 OA
HETATM   22  C   UNL     1      41.935  -9.480  10.514  1.00  0.00     0.101 A 
ENDBRANCH  14  15
ENDBRANCH  13  14
ENDBRANCH   9  13
ENDBRANCH   2   7
BRANCH   1  23
HETATM   23  C   UNL     1      41.334 -14.530   4.343  1.00  0.00     0.275 C 
BRANCH  23  24
HETATM   24  N   UNL     1      41.608 -13.121   3.835  1.00  0.00    -0.067 N 
HETATM   25  C   UNL     1      42.394 -13.113   2.551  1.00  0.00     0.270 C 
HETATM   26  H   UNL     1      42.260 -12.767   4.565  1.00  0.00     0.280 HD
BRANCH  24  27
HETATM   27  C   UNL     1      40.402 -12.182   3.797  1.00  0.00     0.188 C 
HETATM   28  C   UNL     1      39.497 -12.278   5.039  1.00  0.00     0.033 C 
HETATM   29  C   UNL     1      40.107 -11.669   6.300  1.00  0.00     0.002 C 
HETATM   30  C   UNL     1      40.526 -10.224   6.070  1.00  0.00     0.000 C 
HETATM   31  C   UNL     1      41.455 -10.090   4.869  1.00  0.00     0.002 C 
HETATM   32  C   UNL     1      40.848 -10.716   3.612  1.00  0.00     0.033 C 
ENDBRANCH  24  27
ENDBRANCH  23  24
ENDBRANCH   1  23
TORSDOF 7
ENDMDL
