MODEL 1
REMARK VINA RESULT:      -7.0      0.000      0.000
REMARK  2 active torsions:
REMARK  status: ('A' for Active; 'I' for Inactive)
REMARK    1  A    between atoms: C_8  and  N_9 
REMARK       I    between atoms: N_9  and  C_10 
REMARK       I    between atoms: C_10  and  N_11 
REMARK    2  A    between atoms: N_11  and  C_12 
ROOT
HETATM    1  N   UNL     1      42.181 -13.763   2.624  1.00  0.00    -0.309 N 
HETATM    2  C   UNL     1      42.289 -12.601   3.315  1.00  0.00     0.321 C 
HETATM    3  N   UNL     1      43.320 -12.477   4.192  1.00  0.00    -0.337 N 
HETATM    4  O   UNL     1      41.507 -11.674   3.100  1.00  0.00    -0.247 OA
HETATM    5  H   UNL     1      41.552 -13.678   1.830  1.00  0.00     0.170 HD
HETATM    6  H   UNL     1      44.106 -13.090   4.000  1.00  0.00     0.164 HD
ENDROOT
BRANCH   1   7
HETATM    7  C   UNL     1      42.666 -15.064   2.870  1.00  0.00     0.037 A 
HETATM    8  C   UNL     1      42.799 -15.620   4.149  1.00  0.00     0.051 A 
HETATM    9  C   UNL     1      43.249 -16.952   4.261  1.00  0.00     0.037 A 
HETATM   10  S   UNL     1      43.498 -17.895   5.683  1.00  0.00    -0.073 SA
HETATM   11  C   UNL     1      43.554 -17.731   3.147  1.00  0.00     0.075 A 
HETATM   12  C   UNL     1      43.981 -19.228   4.717  1.00  0.00     0.072 A 
HETATM   13  C   UNL     1      44.370 -20.523   5.343  1.00  0.00     0.079 C 
HETATM   14  N   UNL     1      43.975 -19.017   3.419  1.00  0.00    -0.245 NA
HETATM   15  C   UNL     1      43.399 -17.165   1.869  1.00  0.00     0.035 A 
HETATM   16  C   UNL     1      42.950 -15.844   1.744  1.00  0.00     0.032 A 
ENDBRANCH   1   7
BRANCH   3  17
HETATM   17  C   UNL     1      43.570 -11.341   5.090  1.00  0.00     0.113 C 
HETATM   18  C   UNL     1      42.673 -11.258   6.332  1.00  0.00     0.257 C 
HETATM   19  N   UNL     1      43.363 -12.154   7.312  1.00  0.00    -0.073 N 
HETATM   20  H   UNL     1      43.104 -12.000   8.293  1.00  0.00     0.277 HD
HETATM   21  H   UNL     1      43.058 -13.122   7.066  1.00  0.00     0.277 HD
HETATM   22  C   UNL     1      44.830 -12.100   7.038  1.00  0.00     0.234 C 
HETATM   23  C   UNL     1      44.969 -11.383   5.700  1.00  0.00     0.054 C 
ENDBRANCH   3  17
TORSDOF 2
ENDMDL
MODEL 2
REMARK VINA RESULT:      -6.7      3.381      5.190
REMARK  2 active torsions:
REMARK  status: ('A' for Active; 'I' for Inactive)
REMARK    1  A    between atoms: C_8  and  N_9 
REMARK       I    between atoms: N_9  and  C_10 
REMARK       I    between atoms: C_10  and  N_11 
REMARK    2  A    between atoms: N_11  and  C_12 
ROOT
HETATM    1  N   UNL     1      45.579 -11.099   7.066  1.00  0.00    -0.309 N 
HETATM    2  C   UNL     1      45.369 -10.130   7.991  1.00  0.00     0.321 C 
HETATM    3  N   UNL     1      44.181 -10.129   8.652  1.00  0.00    -0.337 N 
HETATM    4  O   UNL     1      46.259  -9.322   8.259  1.00  0.00    -0.247 OA
HETATM    5  H   UNL     1      46.559 -11.177   6.810  1.00  0.00     0.170 HD
HETATM    6  H   UNL     1      43.712 -11.029   8.666  1.00  0.00     0.164 HD
ENDROOT
BRANCH   1   7
HETATM    7  C   UNL     1      44.697 -11.909   6.321  1.00  0.00     0.037 A 
HETATM    8  C   UNL     1      44.143 -13.105   6.796  1.00  0.00     0.051 A 
HETATM    9  C   UNL     1      43.233 -13.800   5.974  1.00  0.00     0.037 A 
HETATM   10  S   UNL     1      42.395 -15.273   6.289  1.00  0.00    -0.073 SA
HETATM   11  C   UNL     1      42.863 -13.334   4.714  1.00  0.00     0.075 A 
HETATM   12  C   UNL     1      41.628 -15.168   4.757  1.00  0.00     0.072 A 
HETATM   13  C   UNL     1      40.658 -16.208   4.316  1.00  0.00     0.079 C 
HETATM   14  N   UNL     1      41.958 -14.122   4.032  1.00  0.00    -0.245 NA
HETATM   15  C   UNL     1      43.413 -12.123   4.257  1.00  0.00     0.035 A 
HETATM   16  C   UNL     1      44.316 -11.422   5.066  1.00  0.00     0.032 A 
ENDBRANCH   1   7
BRANCH   3  17
HETATM   17  C   UNL     1      43.726  -9.129   9.628  1.00  0.00     0.113 C 
HETATM   18  C   UNL     1      42.212  -9.073   9.875  1.00  0.00     0.257 C 
HETATM   19  N   UNL     1      41.995 -10.139  10.902  1.00  0.00    -0.073 N 
HETATM   20  H   UNL     1      41.116 -10.059  11.426  1.00  0.00     0.277 HD
HETATM   21  H   UNL     1      41.948 -11.035  10.368  1.00  0.00     0.277 HD
HETATM   22  C   UNL     1      43.222 -10.226  11.749  1.00  0.00     0.234 C 
HETATM   23  C   UNL     1      44.275  -9.394  11.027  1.00  0.00     0.054 C 
ENDBRANCH   3  17
TORSDOF 2
ENDMDL
MODEL 3
REMARK VINA RESULT:      -6.6      2.592      4.608
REMARK  2 active torsions:
REMARK  status: ('A' for Active; 'I' for Inactive)
REMARK    1  A    between atoms: C_8  and  N_9 
REMARK       I    between atoms: N_9  and  C_10 
REMARK       I    between atoms: C_10  and  N_11 
REMARK    2  A    between atoms: N_11  and  C_12 
ROOT
HETATM    1  N   UNL     1      42.545 -12.919   2.809  1.00  0.00    -0.309 N 
HETATM    2  C   UNL     1      41.846 -12.222   1.879  1.00  0.00     0.321 C 
HETATM    3  N   UNL     1      40.995 -12.912   1.075  1.00  0.00    -0.337 N 
HETATM    4  O   UNL     1      41.943 -10.996   1.819  1.00  0.00    -0.247 OA
HETATM    5  H   UNL     1      42.953 -12.313   3.515  1.00  0.00     0.170 HD
HETATM    6  H   UNL     1      40.687 -13.799   1.459  1.00  0.00     0.164 HD
ENDROOT
BRANCH   1   7
HETATM    7  C   UNL     1      42.906 -14.279   2.904  1.00  0.00     0.037 A 
HETATM    8  C   UNL     1      43.032 -14.972   4.116  1.00  0.00     0.051 A 
HETATM    9  C   UNL     1      43.350 -16.345   4.078  1.00  0.00     0.037 A 
HETATM   10  S   UNL     1      43.558 -17.445   5.388  1.00  0.00    -0.073 SA
HETATM   11  C   UNL     1      43.533 -17.033   2.880  1.00  0.00     0.075 A 
HETATM   12  C   UNL     1      43.868 -18.715   4.276  1.00  0.00     0.072 A 
HETATM   13  C   UNL     1      44.148 -20.097   4.755  1.00  0.00     0.079 C 
HETATM   14  N   UNL     1      43.833 -18.375   3.006  1.00  0.00    -0.245 NA
HETATM   15  C   UNL     1      43.387 -16.329   1.672  1.00  0.00     0.035 A 
HETATM   16  C   UNL     1      43.068 -14.965   1.696  1.00  0.00     0.032 A 
ENDBRANCH   1   7
BRANCH   3  17
HETATM   17  C   UNL     1      40.210 -12.363  -0.039  1.00  0.00     0.113 C 
HETATM   18  C   UNL     1      40.993 -12.048  -1.321  1.00  0.00     0.257 C 
HETATM   19  N   UNL     1      41.032 -13.366  -2.029  1.00  0.00    -0.073 N 
HETATM   20  H   UNL     1      41.235 -13.309  -3.034  1.00  0.00     0.277 HD
HETATM   21  H   UNL     1      41.819 -13.894  -1.591  1.00  0.00     0.277 HD
HETATM   22  C   UNL     1      39.788 -14.116  -1.685  1.00  0.00     0.234 C 
HETATM   23  C   UNL     1      39.150 -13.342  -0.537  1.00  0.00     0.054 C 
ENDBRANCH   3  17
TORSDOF 2
ENDMDL
MODEL 4
REMARK VINA RESULT:      -6.5      3.874      5.915
REMARK  2 active torsions:
REMARK  status: ('A' for Active; 'I' for Inactive)
REMARK    1  A    between atoms: C_8  and  N_9 
REMARK       I    between atoms: N_9  and  C_10 
REMARK       I    between atoms: C_10  and  N_11 
REMARK    2  A    between atoms: N_11  and  C_12 
ROOT
HETATM    1  N   UNL     1      38.860 -13.025   2.434  1.00  0.00    -0.309 N 
HETATM    2  C   UNL     1      38.666 -12.442   1.226  1.00  0.00     0.321 C 
HETATM    3  N   UNL     1      39.266 -13.006   0.144  1.00  0.00    -0.337 N 
HETATM    4  O   UNL     1      37.918 -11.470   1.117  1.00  0.00    -0.247 OA
HETATM    5  H   UNL     1      38.192 -12.700   3.127  1.00  0.00     0.170 HD
HETATM    6  H   UNL     1      39.499 -13.986   0.262  1.00  0.00     0.164 HD
ENDROOT
BRANCH   1   7
HETATM    7  C   UNL     1      39.868 -13.880   2.927  1.00  0.00     0.037 A 
HETATM    8  C   UNL     1      40.793 -13.511   3.912  1.00  0.00     0.051 A 
HETATM    9  C   UNL     1      41.722 -14.473   4.359  1.00  0.00     0.037 A 
HETATM   10  S   UNL     1      42.958 -14.314   5.550  1.00  0.00    -0.073 SA
HETATM   11  C   UNL     1      41.743 -15.774   3.861  1.00  0.00     0.075 A 
HETATM   12  C   UNL     1      43.406 -15.953   5.308  1.00  0.00     0.072 A 
HETATM   13  C   UNL     1      44.514 -16.565   6.092  1.00  0.00     0.079 C 
HETATM   14  N   UNL     1      42.707 -16.601   4.402  1.00  0.00    -0.245 NA
HETATM   15  C   UNL     1      40.797 -16.135   2.886  1.00  0.00     0.035 A 
HETATM   16  C   UNL     1      39.867 -15.189   2.436  1.00  0.00     0.032 A 
ENDBRANCH   1   7
BRANCH   3  17
HETATM   17  C   UNL     1      39.248 -12.490  -1.231  1.00  0.00     0.113 C 
HETATM   18  C   UNL     1      40.595 -12.497  -1.968  1.00  0.00     0.257 C 
HETATM   19  N   UNL     1      40.677 -13.886  -2.516  1.00  0.00    -0.073 N 
HETATM   20  H   UNL     1      41.341 -14.006  -3.290  1.00  0.00     0.277 HD
HETATM   21  H   UNL     1      41.023 -14.477  -1.727  1.00  0.00     0.277 HD
HETATM   22  C   UNL     1      39.289 -14.354  -2.806  1.00  0.00     0.234 C 
HETATM   23  C   UNL     1      38.369 -13.330  -2.153  1.00  0.00     0.054 C 
ENDBRANCH   3  17
TORSDOF 2
ENDMDL
MODEL 5
REMARK VINA RESULT:      -6.4      2.638      3.691
REMARK  2 active torsions:
REMARK  status: ('A' for Active; 'I' for Inactive)
REMARK    1  A    between atoms: C_8  and  N_9 
REMARK       I    between atoms: N_9  and  C_10 
REMARK       I    between atoms: C_10  and  N_11 
REMARK    2  A    between atoms: N_11  and  C_12 
ROOT
HETATM    1  N   UNL     1      39.815 -14.026   6.080  1.00  0.00    -0.309 N 
HETATM    2  C   UNL     1      39.870 -12.675   5.977  1.00  0.00     0.321 C 
HETATM    3  N   UNL     1      40.706 -12.142   5.047  1.00  0.00    -0.337 N 
HETATM    4  O   UNL     1      39.133 -11.969   6.666  1.00  0.00    -0.247 OA
HETATM    5  H   UNL     1      39.003 -14.337   6.606  1.00  0.00     0.170 HD
HETATM    6  H   UNL     1      40.939 -12.772   4.287  1.00  0.00     0.164 HD
ENDROOT
BRANCH   1   7
HETATM    7  C   UNL     1      40.718 -15.045   5.712  1.00  0.00     0.037 A 
HETATM    8  C   UNL     1      40.895 -15.497   4.398  1.00  0.00     0.051 A 
HETATM    9  C   UNL     1      41.867 -16.488   4.150  1.00  0.00     0.037 A 
HETATM   10  S   UNL     1      42.309 -17.222   2.655  1.00  0.00    -0.073 SA
HETATM   11  C   UNL     1      42.659 -17.022   5.164  1.00  0.00     0.075 A 
HETATM   12  C   UNL     1      43.490 -18.168   3.465  1.00  0.00     0.072 A 
HETATM   13  C   UNL     1      44.349 -19.124   2.713  1.00  0.00     0.079 C 
HETATM   14  N   UNL     1      43.570 -17.979   4.764  1.00  0.00    -0.245 NA
HETATM   15  C   UNL     1      42.483 -16.547   6.476  1.00  0.00     0.035 A 
HETATM   16  C   UNL     1      41.523 -15.561   6.734  1.00  0.00     0.032 A 
ENDBRANCH   1   7
BRANCH   3  17
HETATM   17  C   UNL     1      40.971 -10.714   4.829  1.00  0.00     0.113 C 
HETATM   18  C   UNL     1      42.395 -10.356   4.381  1.00  0.00     0.257 C 
HETATM   19  N   UNL     1      42.344 -10.548   2.898  1.00  0.00    -0.073 N 
HETATM   20  H   UNL     1      43.089 -10.072   2.377  1.00  0.00     0.277 HD
HETATM   21  H   UNL     1      42.475 -11.573   2.746  1.00  0.00     0.277 HD
HETATM   22  C   UNL     1      40.959 -10.235   2.436  1.00  0.00     0.234 C 
HETATM   23  C   UNL     1      40.120 -10.133   3.704  1.00  0.00     0.054 C 
ENDBRANCH   3  17
TORSDOF 2
ENDMDL
MODEL 6
REMARK VINA RESULT:      -6.4      2.149      3.110
REMARK  2 active torsions:
REMARK  status: ('A' for Active; 'I' for Inactive)
REMARK    1  A    between atoms: C_8  and  N_9 
REMARK       I    between atoms: N_9  and  C_10 
REMARK       I    between atoms: C_10  and  N_11 
REMARK    2  A    between atoms: N_11  and  C_12 
ROOT
HETATM    1  N   UNL     1      43.683 -14.556   6.673  1.00  0.00    -0.309 N 
HETATM    2  C   UNL     1      43.531 -13.211   6.759  1.00  0.00     0.321 C 
HETATM    3  N   UNL     1      42.785 -12.594   5.805  1.00  0.00    -0.337 N 
HETATM    4  O   UNL     1      44.008 -12.591   7.710  1.00  0.00    -0.247 OA
HETATM    5  H   UNL     1      44.031 -14.958   7.539  1.00  0.00     0.170 HD
HETATM    6  H   UNL     1      42.124 -13.203   5.335  1.00  0.00     0.164 HD
ENDROOT
BRANCH   1   7
HETATM    7  C   UNL     1      43.571 -15.459   5.595  1.00  0.00     0.037 A 
HETATM    8  C   UNL     1      44.042 -16.778   5.628  1.00  0.00     0.051 A 
HETATM    9  C   UNL     1      43.825 -17.600   4.503  1.00  0.00     0.037 A 
HETATM   10  S   UNL     1      44.276 -19.245   4.260  1.00  0.00    -0.073 SA
HETATM   11  C   UNL     1      43.153 -17.147   3.370  1.00  0.00     0.075 A 
HETATM   12  C   UNL     1      43.556 -19.216   2.703  1.00  0.00     0.072 A 
HETATM   13  C   UNL     1      43.562 -20.428   1.837  1.00  0.00     0.079 C 
HETATM   14  N   UNL     1      43.013 -18.071   2.353  1.00  0.00    -0.245 NA
HETATM   15  C   UNL     1      42.671 -15.826   3.357  1.00  0.00     0.035 A 
HETATM   16  C   UNL     1      42.877 -15.001   4.470  1.00  0.00     0.032 A 
ENDBRANCH   1   7
BRANCH   3  17
HETATM   17  C   UNL     1      42.564 -11.148   5.671  1.00  0.00     0.113 C 
HETATM   18  C   UNL     1      42.581 -10.596   4.239  1.00  0.00     0.257 C 
HETATM   19  N   UNL     1      41.181 -10.829   3.767  1.00  0.00    -0.073 N 
HETATM   20  H   UNL     1      40.898 -10.262   2.960  1.00  0.00     0.277 HD
HETATM   21  H   UNL     1      41.154 -11.827   3.460  1.00  0.00     0.277 HD
HETATM   22  C   UNL     1      40.270 -10.734   4.946  1.00  0.00     0.234 C 
HETATM   23  C   UNL     1      41.183 -10.725   6.167  1.00  0.00     0.054 C 
ENDBRANCH   3  17
TORSDOF 2
ENDMDL
MODEL 7
REMARK VINA RESULT:      -6.3     14.973     16.451
REMARK  2 active torsions:
REMARK  status: ('A' for Active; 'I' for Inactive)
REMARK    1  A    between atoms: C_8  and  N_9 
REMARK       I    between atoms: N_9  and  C_10 
REMARK       I    between atoms: C_10  and  N_11 
REMARK    2  A    between atoms: N_11  and  C_12 
ROOT
HETATM    1  N   UNL     1      47.293 -28.301  -0.341  1.00  0.00    -0.309 N 
HETATM    2  C   UNL     1      46.866 -28.314   0.946  1.00  0.00     0.321 C 
HETATM    3  N   UNL     1      45.849 -29.157   1.269  1.00  0.00    -0.337 N 
HETATM    4  O   UNL     1      47.431 -27.626   1.796  1.00  0.00    -0.247 OA
HETATM    5  H   UNL     1      48.196 -27.845  -0.440  1.00  0.00     0.170 HD
HETATM    6  H   UNL     1      45.741 -29.941   0.634  1.00  0.00     0.164 HD
ENDROOT
BRANCH   1   7
HETATM    7  C   UNL     1      46.676 -28.679  -1.552  1.00  0.00     0.037 A 
HETATM    8  C   UNL     1      46.926 -29.890  -2.211  1.00  0.00     0.051 A 
HETATM    9  C   UNL     1      46.207 -30.176  -3.391  1.00  0.00     0.037 A 
HETATM   10  S   UNL     1      46.293 -31.570  -4.401  1.00  0.00    -0.073 SA
HETATM   11  C   UNL     1      45.256 -29.301  -3.912  1.00  0.00     0.075 A 
HETATM   12  C   UNL     1      45.085 -30.907  -5.423  1.00  0.00     0.072 A 
HETATM   13  C   UNL     1      44.605 -31.652  -6.620  1.00  0.00     0.079 C 
HETATM   14  N   UNL     1      44.632 -29.724  -5.069  1.00  0.00    -0.245 NA
HETATM   15  C   UNL     1      45.004 -28.098  -3.230  1.00  0.00     0.035 A 
HETATM   16  C   UNL     1      45.709 -27.804  -2.056  1.00  0.00     0.032 A 
ENDBRANCH   1   7
BRANCH   3  17
HETATM   17  C   UNL     1      45.190 -29.267   2.577  1.00  0.00     0.113 C 
HETATM   18  C   UNL     1      43.671 -29.483   2.548  1.00  0.00     0.257 C 
HETATM   19  N   UNL     1      43.540 -30.964   2.383  1.00  0.00    -0.073 N 
HETATM   20  H   UNL     1      42.625 -31.347   2.648  1.00  0.00     0.277 HD
HETATM   21  H   UNL     1      43.659 -31.142   1.361  1.00  0.00     0.277 HD
HETATM   22  C   UNL     1      44.706 -31.611   3.055  1.00  0.00     0.234 C 
HETATM   23  C   UNL     1      45.676 -30.478   3.369  1.00  0.00     0.054 C 
ENDBRANCH   3  17
TORSDOF 2
ENDMDL
MODEL 8
REMARK VINA RESULT:      -6.3      2.141      3.735
REMARK  2 active torsions:
REMARK  status: ('A' for Active; 'I' for Inactive)
REMARK    1  A    between atoms: C_8  and  N_9 
REMARK       I    between atoms: N_9  and  C_10 
REMARK       I    between atoms: C_10  and  N_11 
REMARK    2  A    between atoms: N_11  and  C_12 
ROOT
HETATM    1  N   UNL     1      43.137 -13.778   6.051  1.00  0.00    -0.309 N 
HETATM    2  C   UNL     1      42.556 -12.673   5.522  1.00  0.00     0.321 C 
HETATM    3  N   UNL     1      41.648 -12.848   4.525  1.00  0.00    -0.337 N 
HETATM    4  O   UNL     1      42.805 -11.559   5.982  1.00  0.00    -0.247 OA
HETATM    5  H   UNL     1      43.598 -13.582   6.935  1.00  0.00     0.170 HD
HETATM    6  H   UNL     1      41.222 -13.768   4.508  1.00  0.00     0.164 HD
ENDROOT
BRANCH   1   7
HETATM    7  C   UNL     1      43.324 -15.085   5.554  1.00  0.00     0.037 A 
HETATM    8  C   UNL     1      42.972 -15.486   4.259  1.00  0.00     0.051 A 
HETATM    9  C   UNL     1      43.257 -16.809   3.862  1.00  0.00     0.037 A 
HETATM   10  S   UNL     1      42.952 -17.576   2.348  1.00  0.00    -0.073 SA
HETATM   11  C   UNL     1      43.882 -17.721   4.709  1.00  0.00     0.075 A 
HETATM   12  C   UNL     1      43.661 -19.024   2.936  1.00  0.00     0.072 A 
HETATM   13  C   UNL     1      43.760 -20.231   2.070  1.00  0.00     0.079 C 
HETATM   14  N   UNL     1      44.099 -18.976   4.175  1.00  0.00    -0.245 NA
HETATM   15  C   UNL     1      44.245 -17.299   6.000  1.00  0.00     0.035 A 
HETATM   16  C   UNL     1      43.970 -15.987   6.405  1.00  0.00     0.032 A 
ENDBRANCH   1   7
BRANCH   3  17
HETATM   17  C   UNL     1      40.968 -11.788   3.768  1.00  0.00     0.113 C 
HETATM   18  C   UNL     1      41.190 -11.800   2.250  1.00  0.00     0.257 C 
HETATM   19  N   UNL     1      40.163 -12.773   1.763  1.00  0.00    -0.073 N 
HETATM   20  H   UNL     1      39.935 -12.696   0.765  1.00  0.00     0.277 HD
HETATM   21  H   UNL     1      40.585 -13.717   1.906  1.00  0.00     0.277 HD
HETATM   22  C   UNL     1      38.985 -12.703   2.679  1.00  0.00     0.234 C 
HETATM   23  C   UNL     1      39.449 -11.883   3.877  1.00  0.00     0.054 C 
ENDBRANCH   3  17
TORSDOF 2
ENDMDL
MODEL 9
REMARK VINA RESULT:      -6.2      4.903      8.903
REMARK  2 active torsions:
REMARK  status: ('A' for Active; 'I' for Inactive)
REMARK    1  A    between atoms: C_8  and  N_9 
REMARK       I    between atoms: N_9  and  C_10 
REMARK       I    between atoms: C_10  and  N_11 
REMARK    2  A    between atoms: N_11  and  C_12 
ROOT
HETATM    1  N   UNL     1      44.628 -10.299   8.096  1.00  0.00    -0.309 N 
HETATM    2  C   UNL     1      44.781 -11.421   7.350  1.00  0.00     0.321 C 
HETATM    3  N   UNL     1      43.745 -12.301   7.307  1.00  0.00    -0.337 N 
HETATM    4  O   UNL     1      45.805 -11.594   6.689  1.00  0.00    -0.247 OA
HETATM    5  H   UNL     1      45.328  -9.595   7.877  1.00  0.00     0.170 HD
HETATM    6  H   UNL     1      42.843 -11.893   7.527  1.00  0.00     0.164 HD
ENDROOT
BRANCH   1   7
HETATM    7  C   UNL     1      43.780  -9.984   9.179  1.00  0.00     0.037 A 
HETATM    8  C   UNL     1      42.547  -9.334   9.042  1.00  0.00     0.051 A 
HETATM    9  C   UNL     1      41.765  -9.121  10.196  1.00  0.00     0.037 A 
HETATM   10  S   UNL     1      40.222  -8.365  10.336  1.00  0.00    -0.073 SA
HETATM   11  C   UNL     1      42.175  -9.542  11.460  1.00  0.00     0.075 A 
HETATM   12  C   UNL     1      40.230  -8.657  12.027  1.00  0.00     0.072 A 
HETATM   13  C   UNL     1      39.083  -8.236  12.879  1.00  0.00     0.079 C 
HETATM   14  N   UNL     1      41.298  -9.267  12.491  1.00  0.00    -0.245 NA
HETATM   15  C   UNL     1      43.407 -10.210  11.579  1.00  0.00     0.035 A 
HETATM   16  C   UNL     1      44.190 -10.430  10.439  1.00  0.00     0.032 A 
ENDBRANCH   1   7
BRANCH   3  17
HETATM   17  C   UNL     1      43.736 -13.604   6.628  1.00  0.00     0.113 C 
HETATM   18  C   UNL     1      42.939 -14.717   7.323  1.00  0.00     0.257 C 
HETATM   19  N   UNL     1      41.541 -14.485   6.845  1.00  0.00    -0.073 N 
HETATM   20  H   UNL     1      40.913 -15.291   6.941  1.00  0.00     0.277 HD
HETATM   21  H   UNL     1      41.160 -13.729   7.456  1.00  0.00     0.277 HD
HETATM   22  C   UNL     1      41.610 -13.908   5.469  1.00  0.00     0.234 C 
HETATM   23  C   UNL     1      43.072 -13.536   5.255  1.00  0.00     0.054 C 
ENDBRANCH   3  17
TORSDOF 2
ENDMDL
MODEL 10
REMARK VINA RESULT:      -6.2      1.958      2.463
REMARK  2 active torsions:
REMARK  status: ('A' for Active; 'I' for Inactive)
REMARK    1  A    between atoms: C_8  and  N_9 
REMARK       I    between atoms: N_9  and  C_10 
REMARK       I    between atoms: C_10  and  N_11 
REMARK    2  A    between atoms: N_11  and  C_12 
ROOT
HETATM    1  N   UNL     1      42.351 -14.550   1.243  1.00  0.00    -0.309 N 
HETATM    2  C   UNL     1      41.893 -13.281   1.374  1.00  0.00     0.321 C 
HETATM    3  N   UNL     1      42.146 -12.631   2.541  1.00  0.00    -0.337 N 
HETATM    4  O   UNL     1      41.321 -12.726   0.435  1.00  0.00    -0.247 OA
HETATM    5  H   UNL     1      42.340 -14.863   0.277  1.00  0.00     0.170 HD
HETATM    6  H   UNL     1      42.940 -12.996   3.057  1.00  0.00     0.164 HD
ENDROOT
BRANCH   1   7
HETATM    7  C   UNL     1      42.710 -15.534   2.188  1.00  0.00     0.037 A 
HETATM    8  C   UNL     1      42.959 -16.874   1.865  1.00  0.00     0.051 A 
HETATM    9  C   UNL     1      43.361 -17.753   2.892  1.00  0.00     0.037 A 
HETATM   10  S   UNL     1      43.741 -19.431   2.796  1.00  0.00    -0.073 SA
HETATM   11  C   UNL     1      43.525 -17.330   4.210  1.00  0.00     0.075 A 
HETATM   12  C   UNL     1      44.084 -19.453   4.477  1.00  0.00     0.072 A 
HETATM   13  C   UNL     1      44.529 -20.705   5.150  1.00  0.00     0.079 C 
HETATM   14  N   UNL     1      43.929 -18.305   5.100  1.00  0.00    -0.245 NA
HETATM   15  C   UNL     1      43.288 -15.978   4.516  1.00  0.00     0.035 A 
HETATM   16  C   UNL     1      42.892 -15.096   3.504  1.00  0.00     0.032 A 
ENDBRANCH   1   7
BRANCH   3  17
HETATM   17  C   UNL     1      41.674 -11.291   2.914  1.00  0.00     0.113 C 
HETATM   18  C   UNL     1      40.268 -11.220   3.525  1.00  0.00     0.257 C 
HETATM   19  N   UNL     1      40.511 -11.511   4.973  1.00  0.00    -0.073 N 
HETATM   20  H   UNL     1      39.759 -11.212   5.604  1.00  0.00     0.277 HD
HETATM   21  H   UNL     1      40.569 -12.551   5.042  1.00  0.00     0.277 HD
HETATM   22  C   UNL     1      41.867 -10.997   5.329  1.00  0.00     0.234 C 
HETATM   23  C   UNL     1      42.535 -10.656   4.002  1.00  0.00     0.054 C 
ENDBRANCH   3  17
TORSDOF 2
ENDMDL
