MODEL 1
REMARK VINA RESULT:      -9.3      0.000      0.000
REMARK  5 active torsions:
REMARK  status: ('A' for Active; 'I' for Inactive)
REMARK    1  A    between atoms: C_2  and  N_3 
REMARK    2  A    between atoms: C_5  and  C_6 
REMARK    3  A    between atoms: C_6  and  C_7 
REMARK       I    between atoms: C_7  and  N_8 
REMARK    4  A    between atoms: N_8  and  C_9 
REMARK    5  A    between atoms: C_16  and  O_17 
ROOT
HETATM    1  C   UNL     1      40.137 -10.071   7.156  1.00  0.00     0.224 C 
HETATM    2  N   UNL     1      40.831 -10.889   6.294  1.00  0.00    -0.351 N 
HETATM    3  O   UNL     1      38.966 -10.252   7.476  1.00  0.00    -0.273 OA
HETATM    4  H   UNL     1      41.674 -10.521   5.862  1.00  0.00     0.163 HD
ENDROOT
BRANCH   2   5
HETATM    5  C   UNL     1      40.196 -12.026   5.668  1.00  0.00     0.135 C 
HETATM    6  C   UNL     1      41.169 -13.155   5.649  1.00  0.00     0.040 A 
HETATM    7  C   UNL     1      41.366 -14.045   4.613  1.00  0.00    -0.021 A 
HETATM    8  N   UNL     1      41.972 -13.530   6.692  1.00  0.00    -0.357 N 
HETATM    9  C   UNL     1      42.354 -14.979   5.032  1.00  0.00     0.002 A 
HETATM   10  C   UNL     1      40.632 -13.941   3.317  1.00  0.00     0.042 C 
HETATM   11  C   UNL     1      42.724 -14.626   6.332  1.00  0.00     0.043 A 
HETATM   12  C   UNL     1      42.974 -16.094   4.436  1.00  0.00     0.051 A 
HETATM   13  C   UNL     1      43.691 -15.332   7.055  1.00  0.00     0.033 A 
HETATM   14  C   UNL     1      44.297 -16.434   6.435  1.00  0.00     0.039 A 
HETATM   15  C   UNL     1      43.946 -16.818   5.141  1.00  0.00     0.069 A 
HETATM   16  C   UNL     1      39.414 -13.002   3.440  1.00  0.00     0.007 C 
HETATM   17  C   UNL     1      39.744 -11.716   4.223  1.00  0.00     0.032 C 
HETATM   18  H   UNL     1      42.015 -13.066   7.589  1.00  0.00     0.166 HD
BRANCH  15  19
HETATM   19  O   UNL     1      44.469 -17.879   4.450  1.00  0.00    -0.356 OA
HETATM   20  C   UNL     1      43.796 -18.269   3.260  1.00  0.00     0.210 C 
ENDBRANCH  15  19
ENDBRANCH   2   5
BRANCH   1  21
HETATM   21  C   UNL     1      40.949  -8.938   7.724  1.00  0.00     0.164 C 
BRANCH  21  22
HETATM   22  C   UNL     1      42.031  -9.395   8.675  1.00  0.00     0.075 A 
HETATM   23  N   UNL     1      43.167  -9.724   8.141  1.00  0.00    -0.172 NA
HETATM   24  N   UNL     1      44.186 -10.180   8.944  1.00  0.00    -0.230 N 
HETATM   25  C   UNL     1      44.046 -10.408  10.313  1.00  0.00     0.275 A 
HETATM   26  C   UNL     1      42.774  -9.984  10.927  1.00  0.00     0.046 A 
HETATM   27  O   UNL     1      44.910 -10.924  11.020  1.00  0.00    -0.266 OA
HETATM   28  C   UNL     1      41.765  -9.458  10.126  1.00  0.00     0.006 A 
HETATM   29  C   UNL     1      42.586 -10.110  12.310  1.00  0.00     0.018 A 
HETATM   30  C   UNL     1      40.567  -9.033  10.713  1.00  0.00     0.014 A 
HETATM   31  C   UNL     1      40.383  -9.153  12.093  1.00  0.00     0.001 A 
HETATM   32  C   UNL     1      41.389  -9.695  12.891  1.00  0.00     0.001 A 
BRANCH  24  33
HETATM   33  C   UNL     1      45.400 -10.654   8.261  1.00  0.00     0.105 C 
HETATM   34  C   UNL     1      46.351  -9.514   7.892  1.00  0.00     0.034 C 
HETATM   35  C   UNL     1      45.029 -11.472   7.022  1.00  0.00     0.034 C 
ENDBRANCH  24  33
ENDBRANCH  21  22
ENDBRANCH   1  21
TORSDOF 5
ENDMDL
MODEL 2
REMARK VINA RESULT:      -9.3      2.661      8.244
REMARK  5 active torsions:
REMARK  status: ('A' for Active; 'I' for Inactive)
REMARK    1  A    between atoms: C_2  and  N_3 
REMARK    2  A    between atoms: C_5  and  C_6 
REMARK    3  A    between atoms: C_6  and  C_7 
REMARK       I    between atoms: C_7  and  N_8 
REMARK    4  A    between atoms: N_8  and  C_9 
REMARK    5  A    between atoms: C_16  and  O_17 
ROOT
HETATM    1  C   UNL     1      42.258 -14.797   2.054  1.00  0.00     0.224 C 
HETATM    2  N   UNL     1      42.458 -14.161   3.257  1.00  0.00    -0.351 N 
HETATM    3  O   UNL     1      41.576 -14.338   1.143  1.00  0.00    -0.273 OA
HETATM    4  H   UNL     1      42.778 -14.718   4.045  1.00  0.00     0.163 HD
ENDROOT
BRANCH   2   5
HETATM    5  C   UNL     1      41.834 -12.890   3.544  1.00  0.00     0.135 C 
HETATM    6  C   UNL     1      42.600 -12.227   4.637  1.00  0.00     0.040 A 
HETATM    7  C   UNL     1      42.065 -11.519   5.695  1.00  0.00    -0.021 A 
HETATM    8  N   UNL     1      43.964 -12.155   4.721  1.00  0.00    -0.357 N 
HETATM    9  C   UNL     1      43.150 -11.026   6.472  1.00  0.00     0.002 A 
HETATM   10  C   UNL     1      40.594 -11.377   5.901  1.00  0.00     0.042 C 
HETATM   11  C   UNL     1      44.326 -11.449   5.847  1.00  0.00     0.043 A 
HETATM   12  C   UNL     1      43.253 -10.260   7.650  1.00  0.00     0.051 A 
HETATM   13  C   UNL     1      45.595 -11.147   6.352  1.00  0.00     0.033 A 
HETATM   14  C   UNL     1      45.667 -10.388   7.528  1.00  0.00     0.039 A 
HETATM   15  C   UNL     1      44.513  -9.944   8.175  1.00  0.00     0.069 A 
HETATM   16  C   UNL     1      39.812 -11.766   4.630  1.00  0.00     0.007 C 
HETATM   17  C   UNL     1      40.359 -13.052   3.978  1.00  0.00     0.032 C 
HETATM   18  H   UNL     1      44.610 -12.567   4.063  1.00  0.00     0.166 HD
BRANCH  15  19
HETATM   19  O   UNL     1      44.474  -9.193   9.320  1.00  0.00    -0.356 OA
HETATM   20  C   UNL     1      44.908  -9.824  10.518  1.00  0.00     0.210 C 
ENDBRANCH  15  19
ENDBRANCH   2   5
BRANCH   1  21
HETATM   21  C   UNL     1      42.986 -16.108   1.917  1.00  0.00     0.164 C 
BRANCH  21  22
HETATM   22  C   UNL     1      43.065 -16.887   3.208  1.00  0.00     0.075 A 
HETATM   23  N   UNL     1      42.856 -16.217   4.300  1.00  0.00    -0.172 NA
HETATM   24  N   UNL     1      42.944 -16.857   5.514  1.00  0.00    -0.230 N 
HETATM   25  C   UNL     1      43.346 -18.185   5.659  1.00  0.00     0.275 A 
HETATM   26  C   UNL     1      43.532 -18.958   4.418  1.00  0.00     0.046 A 
HETATM   27  O   UNL     1      43.542 -18.734   6.742  1.00  0.00    -0.266 OA
HETATM   28  C   UNL     1      43.376 -18.331   3.186  1.00  0.00     0.006 A 
HETATM   29  C   UNL     1      43.862 -20.319   4.481  1.00  0.00     0.018 A 
HETATM   30  C   UNL     1      43.528 -19.071   2.008  1.00  0.00     0.014 A 
HETATM   31  C   UNL     1      43.850 -20.430   2.073  1.00  0.00     0.001 A 
HETATM   32  C   UNL     1      44.022 -21.052   3.307  1.00  0.00     0.001 A 
BRANCH  24  33
HETATM   33  C   UNL     1      42.822 -16.012   6.714  1.00  0.00     0.105 C 
HETATM   34  C   UNL     1      41.473 -15.294   6.791  1.00  0.00     0.034 C 
HETATM   35  C   UNL     1      43.975 -15.009   6.779  1.00  0.00     0.034 C 
ENDBRANCH  24  33
ENDBRANCH  21  22
ENDBRANCH   1  21
TORSDOF 5
ENDMDL
MODEL 3
REMARK VINA RESULT:      -9.1      4.442      8.421
REMARK  5 active torsions:
REMARK  status: ('A' for Active; 'I' for Inactive)
REMARK    1  A    between atoms: C_2  and  N_3 
REMARK    2  A    between atoms: C_5  and  C_6 
REMARK    3  A    between atoms: C_6  and  C_7 
REMARK       I    between atoms: C_7  and  N_8 
REMARK    4  A    between atoms: N_8  and  C_9 
REMARK    5  A    between atoms: C_16  and  O_17 
ROOT
HETATM    1  C   UNL     1      41.968 -11.638   2.893  1.00  0.00     0.224 C 
HETATM    2  N   UNL     1      41.780 -12.659   3.795  1.00  0.00    -0.351 N 
HETATM    3  O   UNL     1      43.058 -11.125   2.658  1.00  0.00    -0.273 OA
HETATM    4  H   UNL     1      40.839 -12.824   4.141  1.00  0.00     0.163 HD
ENDROOT
BRANCH   2   5
HETATM    5  C   UNL     1      42.882 -13.186   4.568  1.00  0.00     0.135 C 
HETATM    6  C   UNL     1      43.045 -14.628   4.229  1.00  0.00     0.040 A 
HETATM    7  C   UNL     1      43.330 -15.648   5.114  1.00  0.00    -0.021 A 
HETATM    8  N   UNL     1      43.010 -15.156   2.967  1.00  0.00    -0.357 N 
HETATM    9  C   UNL     1      43.439 -16.850   4.362  1.00  0.00     0.002 A 
HETATM   10  C   UNL     1      43.460 -15.419   6.583  1.00  0.00     0.042 C 
HETATM   11  C   UNL     1      43.222 -16.516   3.023  1.00  0.00     0.043 A 
HETATM   12  C   UNL     1      43.702 -18.196   4.685  1.00  0.00     0.051 A 
HETATM   13  C   UNL     1      43.247 -17.468   1.998  1.00  0.00     0.033 A 
HETATM   14  C   UNL     1      43.504 -18.801   2.349  1.00  0.00     0.039 A 
HETATM   15  C   UNL     1      43.732 -19.168   3.675  1.00  0.00     0.069 A 
HETATM   16  C   UNL     1      43.618 -13.918   6.903  1.00  0.00     0.007 C 
HETATM   17  C   UNL     1      42.645 -13.043   6.089  1.00  0.00     0.032 C 
HETATM   18  H   UNL     1      42.842 -14.631   2.120  1.00  0.00     0.166 HD
BRANCH  15  19
HETATM   19  O   UNL     1      43.999 -20.435   4.121  1.00  0.00    -0.356 OA
HETATM   20  C   UNL     1      44.033 -20.630   5.529  1.00  0.00     0.210 C 
ENDBRANCH  15  19
ENDBRANCH   2   5
BRANCH   1  21
HETATM   21  C   UNL     1      40.719 -11.213   2.168  1.00  0.00     0.164 C 
BRANCH  21  22
HETATM   22  C   UNL     1      40.847 -11.279   0.665  1.00  0.00     0.075 A 
HETATM   23  N   UNL     1      41.264 -10.202   0.073  1.00  0.00    -0.172 NA
HETATM   24  N   UNL     1      41.373 -10.182  -1.297  1.00  0.00    -0.230 N 
HETATM   25  C   UNL     1      40.965 -11.232  -2.120  1.00  0.00     0.275 A 
HETATM   26  C   UNL     1      40.542 -12.473  -1.446  1.00  0.00     0.046 A 
HETATM   27  O   UNL     1      40.948 -11.181  -3.348  1.00  0.00    -0.266 OA
HETATM   28  C   UNL     1      40.496 -12.520  -0.056  1.00  0.00     0.006 A 
HETATM   29  C   UNL     1      40.190 -13.599  -2.203  1.00  0.00     0.018 A 
HETATM   30  C   UNL     1      40.118 -13.706   0.584  1.00  0.00     0.014 A 
HETATM   31  C   UNL     1      39.774 -14.830  -0.173  1.00  0.00     0.001 A 
HETATM   32  C   UNL     1      39.805 -14.775  -1.564  1.00  0.00     0.001 A 
BRANCH  24  33
HETATM   33  C   UNL     1      41.729  -8.891  -1.909  1.00  0.00     0.105 C 
HETATM   34  C   UNL     1      42.961  -8.254  -1.263  1.00  0.00     0.034 C 
HETATM   35  C   UNL     1      40.537  -7.933  -1.865  1.00  0.00     0.034 C 
ENDBRANCH  24  33
ENDBRANCH  21  22
ENDBRANCH   1  21
TORSDOF 5
ENDMDL
MODEL 4
REMARK VINA RESULT:      -8.9      5.062      9.269
REMARK  5 active torsions:
REMARK  status: ('A' for Active; 'I' for Inactive)
REMARK    1  A    between atoms: C_2  and  N_3 
REMARK    2  A    between atoms: C_5  and  C_6 
REMARK    3  A    between atoms: C_6  and  C_7 
REMARK       I    between atoms: C_7  and  N_8 
REMARK    4  A    between atoms: N_8  and  C_9 
REMARK    5  A    between atoms: C_16  and  O_17 
ROOT
HETATM    1  C   UNL     1      41.712 -15.205   1.636  1.00  0.00     0.224 C 
HETATM    2  N   UNL     1      41.981 -13.931   2.081  1.00  0.00    -0.351 N 
HETATM    3  O   UNL     1      40.621 -15.561   1.200  1.00  0.00    -0.273 OA
HETATM    4  H   UNL     1      42.789 -13.796   2.681  1.00  0.00     0.163 HD
ENDROOT
BRANCH   2   5
HETATM    5  C   UNL     1      40.956 -12.912   2.092  1.00  0.00     0.135 C 
HETATM    6  C   UNL     1      40.977 -12.212   0.776  1.00  0.00     0.040 A 
HETATM    7  C   UNL     1      40.825 -10.856   0.570  1.00  0.00    -0.021 A 
HETATM    8  N   UNL     1      41.077 -12.821  -0.446  1.00  0.00    -0.357 N 
HETATM    9  C   UNL     1      40.868 -10.628  -0.833  1.00  0.00     0.002 A 
HETATM   10  C   UNL     1      40.670  -9.888   1.695  1.00  0.00     0.042 C 
HETATM   11  C   UNL     1      41.039 -11.872  -1.444  1.00  0.00     0.043 A 
HETATM   12  C   UNL     1      40.780  -9.484  -1.651  1.00  0.00     0.051 A 
HETATM   13  C   UNL     1      41.133 -12.021  -2.832  1.00  0.00     0.033 A 
HETATM   14  C   UNL     1      41.048 -10.865  -3.621  1.00  0.00     0.039 A 
HETATM   15  C   UNL     1      40.871  -9.607  -3.044  1.00  0.00     0.069 A 
HETATM   16  C   UNL     1      40.324 -10.614   3.012  1.00  0.00     0.007 C 
HETATM   17  C   UNL     1      41.177 -11.881   3.222  1.00  0.00     0.032 C 
HETATM   18  H   UNL     1      41.174 -13.815  -0.594  1.00  0.00     0.166 HD
BRANCH  15  19
HETATM   19  O   UNL     1      40.769  -8.422  -3.723  1.00  0.00    -0.356 OA
HETATM   20  C   UNL     1      41.984  -7.789  -4.101  1.00  0.00     0.210 C 
ENDBRANCH  15  19
ENDBRANCH   2   5
BRANCH   1  21
HETATM   21  C   UNL     1      42.890 -16.140   1.685  1.00  0.00     0.164 C 
BRANCH  21  22
HETATM   22  C   UNL     1      43.086 -16.788   3.035  1.00  0.00     0.075 A 
HETATM   23  N   UNL     1      42.989 -16.008   4.069  1.00  0.00    -0.172 NA
HETATM   24  N   UNL     1      43.188 -16.525   5.327  1.00  0.00    -0.230 N 
HETATM   25  C   UNL     1      43.590 -17.839   5.567  1.00  0.00     0.275 A 
HETATM   26  C   UNL     1      43.648 -18.736   4.399  1.00  0.00     0.046 A 
HETATM   27  O   UNL     1      43.884 -18.280   6.677  1.00  0.00    -0.266 OA
HETATM   28  C   UNL     1      43.380 -18.232   3.130  1.00  0.00     0.006 A 
HETATM   29  C   UNL     1      43.970 -20.090   4.568  1.00  0.00     0.018 A 
HETATM   30  C   UNL     1      43.411 -19.090   2.024  1.00  0.00     0.014 A 
HETATM   31  C   UNL     1      43.725 -20.440   2.196  1.00  0.00     0.001 A 
HETATM   32  C   UNL     1      44.010 -20.940   3.465  1.00  0.00     0.001 A 
BRANCH  24  33
HETATM   33  C   UNL     1      43.189 -15.562   6.441  1.00  0.00     0.105 C 
HETATM   34  C   UNL     1      41.845 -15.505   7.170  1.00  0.00     0.034 C 
HETATM   35  C   UNL     1      43.596 -14.173   5.944  1.00  0.00     0.034 C 
ENDBRANCH  24  33
ENDBRANCH  21  22
ENDBRANCH   1  21
TORSDOF 5
ENDMDL
MODEL 5
REMARK VINA RESULT:      -8.7      2.256      8.649
REMARK  5 active torsions:
REMARK  status: ('A' for Active; 'I' for Inactive)
REMARK    1  A    between atoms: C_2  and  N_3 
REMARK    2  A    between atoms: C_5  and  C_6 
REMARK    3  A    between atoms: C_6  and  C_7 
REMARK       I    between atoms: C_7  and  N_8 
REMARK    4  A    between atoms: N_8  and  C_9 
REMARK    5  A    between atoms: C_16  and  O_17 
ROOT
HETATM    1  C   UNL     1      43.504 -12.858   6.356  1.00  0.00     0.224 C 
HETATM    2  N   UNL     1      42.455 -11.969   6.323  1.00  0.00    -0.351 N 
HETATM    3  O   UNL     1      44.684 -12.523   6.387  1.00  0.00    -0.273 OA
HETATM    4  H   UNL     1      41.550 -12.308   6.009  1.00  0.00     0.163 HD
ENDROOT
BRANCH   2   5
HETATM    5  C   UNL     1      42.685 -10.542   6.291  1.00  0.00     0.135 C 
HETATM    6  C   UNL     1      42.758 -10.048   7.695  1.00  0.00     0.040 A 
HETATM    7  C   UNL     1      42.217  -8.872   8.175  1.00  0.00    -0.021 A 
HETATM    8  N   UNL     1      43.442 -10.651   8.715  1.00  0.00    -0.357 N 
HETATM    9  C   UNL     1      42.557  -8.775   9.552  1.00  0.00     0.002 A 
HETATM   10  C   UNL     1      41.416  -7.950   7.317  1.00  0.00     0.042 C 
HETATM   11  C   UNL     1      43.313  -9.907   9.868  1.00  0.00     0.043 A 
HETATM   12  C   UNL     1      42.298  -7.836  10.570  1.00  0.00     0.051 A 
HETATM   13  C   UNL     1      43.812 -10.143  11.153  1.00  0.00     0.033 A 
HETATM   14  C   UNL     1      43.534  -9.194  12.147  1.00  0.00     0.039 A 
HETATM   15  C   UNL     1      42.787  -8.050  11.866  1.00  0.00     0.069 A 
HETATM   16  C   UNL     1      41.606  -8.275   5.820  1.00  0.00     0.007 C 
HETATM   17  C   UNL     1      41.562  -9.790   5.541  1.00  0.00     0.032 C 
HETATM   18  H   UNL     1      43.955 -11.517   8.639  1.00  0.00     0.166 HD
BRANCH  15  19
HETATM   19  O   UNL     1      42.467  -7.062  12.759  1.00  0.00    -0.356 OA
HETATM   20  C   UNL     1      42.695  -7.339  14.135  1.00  0.00     0.210 C 
ENDBRANCH  15  19
ENDBRANCH   2   5
BRANCH   1  21
HETATM   21  C   UNL     1      43.088 -14.305   6.393  1.00  0.00     0.164 C 
BRANCH  21  22
HETATM   22  C   UNL     1      42.572 -14.815   5.069  1.00  0.00     0.075 A 
HETATM   23  N   UNL     1      41.705 -14.066   4.460  1.00  0.00    -0.172 NA
HETATM   24  N   UNL     1      41.168 -14.484   3.266  1.00  0.00    -0.230 N 
HETATM   25  C   UNL     1      41.429 -15.732   2.698  1.00  0.00     0.275 A 
HETATM   26  C   UNL     1      42.453 -16.558   3.361  1.00  0.00     0.046 A 
HETATM   27  O   UNL     1      40.867 -16.165   1.693  1.00  0.00    -0.266 OA
HETATM   28  C   UNL     1      43.048 -16.107   4.534  1.00  0.00     0.006 A 
HETATM   29  C   UNL     1      42.826 -17.792   2.809  1.00  0.00     0.018 A 
HETATM   30  C   UNL     1      44.040 -16.881   5.150  1.00  0.00     0.014 A 
HETATM   31  C   UNL     1      44.414 -18.107   4.595  1.00  0.00     0.001 A 
HETATM   32  C   UNL     1      43.805 -18.565   3.429  1.00  0.00     0.001 A 
BRANCH  24  33
HETATM   33  C   UNL     1      40.099 -13.649   2.696  1.00  0.00     0.105 C 
HETATM   34  C   UNL     1      40.594 -12.757   1.556  1.00  0.00     0.034 C 
HETATM   35  C   UNL     1      39.436 -12.811   3.791  1.00  0.00     0.034 C 
ENDBRANCH  24  33
ENDBRANCH  21  22
ENDBRANCH   1  21
TORSDOF 5
ENDMDL
MODEL 6
REMARK VINA RESULT:      -8.7      4.731      9.491
REMARK  5 active torsions:
REMARK  status: ('A' for Active; 'I' for Inactive)
REMARK    1  A    between atoms: C_2  and  N_3 
REMARK    2  A    between atoms: C_5  and  C_6 
REMARK    3  A    between atoms: C_6  and  C_7 
REMARK       I    between atoms: C_7  and  N_8 
REMARK    4  A    between atoms: N_8  and  C_9 
REMARK    5  A    between atoms: C_16  and  O_17 
ROOT
HETATM    1  C   UNL     1      40.859 -14.950   1.038  1.00  0.00     0.224 C 
HETATM    2  N   UNL     1      39.817 -14.414   0.319  1.00  0.00    -0.351 N 
HETATM    3  O   UNL     1      42.022 -14.566   0.948  1.00  0.00    -0.273 OA
HETATM    4  H   UNL     1      38.965 -14.961   0.231  1.00  0.00     0.163 HD
ENDROOT
BRANCH   2   5
HETATM    5  C   UNL     1      40.036 -13.355  -0.640  1.00  0.00     0.135 C 
HETATM    6  C   UNL     1      38.874 -12.424  -0.586  1.00  0.00     0.040 A 
HETATM    7  C   UNL     1      38.258 -11.823  -1.665  1.00  0.00    -0.021 A 
HETATM    8  N   UNL     1      38.279 -11.961   0.557  1.00  0.00    -0.357 N 
HETATM    9  C   UNL     1      37.225 -10.987  -1.158  1.00  0.00     0.002 A 
HETATM   10  C   UNL     1      38.672 -12.091  -3.074  1.00  0.00     0.042 C 
HETATM   11  C   UNL     1      37.252 -11.101   0.234  1.00  0.00     0.043 A 
HETATM   12  C   UNL     1      36.264 -10.139  -1.744  1.00  0.00     0.051 A 
HETATM   13  C   UNL     1      36.358 -10.414   1.061  1.00  0.00     0.033 A 
HETATM   14  C   UNL     1      35.409  -9.583   0.451  1.00  0.00     0.039 A 
HETATM   15  C   UNL     1      35.358  -9.440  -0.936  1.00  0.00     0.069 A 
HETATM   16  C   UNL     1      40.052 -12.778  -3.129  1.00  0.00     0.007 C 
HETATM   17  C   UNL     1      40.189 -13.898  -2.079  1.00  0.00     0.032 C 
HETATM   18  H   UNL     1      38.545 -12.219   1.497  1.00  0.00     0.166 HD
BRANCH  15  19
HETATM   19  O   UNL     1      34.478  -8.651  -1.628  1.00  0.00    -0.356 OA
HETATM   20  C   UNL     1      33.665  -9.293  -2.602  1.00  0.00     0.210 C 
ENDBRANCH  15  19
ENDBRANCH   2   5
BRANCH   1  21
HETATM   21  C   UNL     1      40.456 -16.038   1.998  1.00  0.00     0.164 C 
BRANCH  21  22
HETATM   22  C   UNL     1      41.309 -16.085   3.243  1.00  0.00     0.075 A 
HETATM   23  N   UNL     1      41.059 -15.190   4.149  1.00  0.00    -0.172 NA
HETATM   24  N   UNL     1      41.819 -15.154   5.293  1.00  0.00    -0.230 N 
HETATM   25  C   UNL     1      42.928 -15.973   5.509  1.00  0.00     0.275 A 
HETATM   26  C   UNL     1      43.179 -17.023   4.506  1.00  0.00     0.046 A 
HETATM   27  O   UNL     1      43.685 -15.872   6.473  1.00  0.00    -0.266 OA
HETATM   28  C   UNL     1      42.368 -17.105   3.378  1.00  0.00     0.006 A 
HETATM   29  C   UNL     1      44.229 -17.934   4.690  1.00  0.00     0.018 A 
HETATM   30  C   UNL     1      42.591 -18.118   2.437  1.00  0.00     0.014 A 
HETATM   31  C   UNL     1      43.634 -19.029   2.626  1.00  0.00     0.001 A 
HETATM   32  C   UNL     1      44.456 -18.935   3.747  1.00  0.00     0.001 A 
BRANCH  24  33
HETATM   33  C   UNL     1      41.565 -14.037   6.218  1.00  0.00     0.105 C 
HETATM   34  C   UNL     1      40.088 -13.642   6.270  1.00  0.00     0.034 C 
HETATM   35  C   UNL     1      42.436 -12.834   5.852  1.00  0.00     0.034 C 
ENDBRANCH  24  33
ENDBRANCH  21  22
ENDBRANCH   1  21
TORSDOF 5
ENDMDL
MODEL 7
REMARK VINA RESULT:      -8.6      3.712      8.902
REMARK  5 active torsions:
REMARK  status: ('A' for Active; 'I' for Inactive)
REMARK    1  A    between atoms: C_2  and  N_3 
REMARK    2  A    between atoms: C_5  and  C_6 
REMARK    3  A    between atoms: C_6  and  C_7 
REMARK       I    between atoms: C_7  and  N_8 
REMARK    4  A    between atoms: N_8  and  C_9 
REMARK    5  A    between atoms: C_16  and  O_17 
ROOT
HETATM    1  C   UNL     1      40.530 -15.466   1.689  1.00  0.00     0.224 C 
HETATM    2  N   UNL     1      41.766 -15.509   2.291  1.00  0.00    -0.351 N 
HETATM    3  O   UNL     1      39.488 -15.807   2.241  1.00  0.00    -0.273 OA
HETATM    4  H   UNL     1      42.589 -15.493   1.695  1.00  0.00     0.163 HD
ENDROOT
BRANCH   2   5
HETATM    5  C   UNL     1      41.923 -16.003   3.640  1.00  0.00     0.135 C 
HETATM    6  C   UNL     1      42.337 -14.865   4.510  1.00  0.00     0.040 A 
HETATM    7  C   UNL     1      43.275 -14.911   5.522  1.00  0.00    -0.021 A 
HETATM    8  N   UNL     1      41.795 -13.609   4.487  1.00  0.00    -0.357 N 
HETATM    9  C   UNL     1      43.327 -13.620   6.116  1.00  0.00     0.002 A 
HETATM   10  C   UNL     1      44.051 -16.146   5.839  1.00  0.00     0.042 C 
HETATM   11  C   UNL     1      42.401 -12.821   5.442  1.00  0.00     0.043 A 
HETATM   12  C   UNL     1      44.073 -13.045   7.164  1.00  0.00     0.051 A 
HETATM   13  C   UNL     1      42.194 -11.476   5.762  1.00  0.00     0.033 A 
HETATM   14  C   UNL     1      42.954 -10.928   6.805  1.00  0.00     0.039 A 
HETATM   15  C   UNL     1      43.884 -11.698   7.505  1.00  0.00     0.069 A 
HETATM   16  C   UNL     1      43.415 -17.389   5.184  1.00  0.00     0.007 C 
HETATM   17  C   UNL     1      42.982 -17.125   3.728  1.00  0.00     0.032 C 
HETATM   18  H   UNL     1      41.068 -13.301   3.858  1.00  0.00     0.166 HD
BRANCH  15  19
HETATM   19  O   UNL     1      44.668 -11.263   8.540  1.00  0.00    -0.356 OA
HETATM   20  C   UNL     1      44.077 -10.351   9.457  1.00  0.00     0.210 C 
ENDBRANCH  15  19
ENDBRANCH   2   5
BRANCH   1  21
HETATM   21  C   UNL     1      40.542 -14.919   0.286  1.00  0.00     0.164 C 
BRANCH  21  22
HETATM   22  C   UNL     1      39.931 -13.543   0.175  1.00  0.00     0.075 A 
HETATM   23  N   UNL     1      40.284 -12.680   1.078  1.00  0.00    -0.172 NA
HETATM   24  N   UNL     1      39.741 -11.417   1.056  1.00  0.00    -0.230 N 
HETATM   25  C   UNL     1      38.742 -11.021   0.166  1.00  0.00     0.275 A 
HETATM   26  C   UNL     1      38.381 -11.983  -0.891  1.00  0.00     0.046 A 
HETATM   27  O   UNL     1      38.166  -9.936   0.211  1.00  0.00    -0.266 OA
HETATM   28  C   UNL     1      38.979 -13.239  -0.913  1.00  0.00     0.006 A 
HETATM   29  C   UNL     1      37.440 -11.631  -1.869  1.00  0.00     0.018 A 
HETATM   30  C   UNL     1      38.655 -14.143  -1.931  1.00  0.00     0.014 A 
HETATM   31  C   UNL     1      37.722 -13.788  -2.910  1.00  0.00     0.001 A 
HETATM   32  C   UNL     1      37.111 -12.537  -2.876  1.00  0.00     0.001 A 
BRANCH  24  33
HETATM   33  C   UNL     1      40.087 -10.532   2.181  1.00  0.00     0.105 C 
HETATM   34  C   UNL     1      41.596 -10.436   2.410  1.00  0.00     0.034 C 
HETATM   35  C   UNL     1      39.373 -10.988   3.456  1.00  0.00     0.034 C 
ENDBRANCH  24  33
ENDBRANCH  21  22
ENDBRANCH   1  21
TORSDOF 5
ENDMDL
MODEL 8
REMARK VINA RESULT:      -8.4      4.907      8.851
REMARK  5 active torsions:
REMARK  status: ('A' for Active; 'I' for Inactive)
REMARK    1  A    between atoms: C_2  and  N_3 
REMARK    2  A    between atoms: C_5  and  C_6 
REMARK    3  A    between atoms: C_6  and  C_7 
REMARK       I    between atoms: C_7  and  N_8 
REMARK    4  A    between atoms: N_8  and  C_9 
REMARK    5  A    between atoms: C_16  and  O_17 
ROOT
HETATM    1  C   UNL     1      39.111 -10.819   2.177  1.00  0.00     0.224 C 
HETATM    2  N   UNL     1      39.390 -12.106   2.577  1.00  0.00    -0.351 N 
HETATM    3  O   UNL     1      39.547  -9.819   2.738  1.00  0.00    -0.273 OA
HETATM    4  H   UNL     1      38.776 -12.850   2.257  1.00  0.00     0.163 HD
ENDROOT
BRANCH   2   5
HETATM    5  C   UNL     1      40.215 -12.366   3.735  1.00  0.00     0.135 C 
HETATM    6  C   UNL     1      40.973 -13.626   3.497  1.00  0.00     0.040 A 
HETATM    7  C   UNL     1      41.220 -14.618   4.425  1.00  0.00    -0.021 A 
HETATM    8  N   UNL     1      41.610 -13.963   2.333  1.00  0.00    -0.357 N 
HETATM    9  C   UNL     1      42.011 -15.614   3.787  1.00  0.00     0.002 A 
HETATM   10  C   UNL     1      40.686 -14.563   5.817  1.00  0.00     0.042 C 
HETATM   11  C   UNL     1      42.230 -15.185   2.476  1.00  0.00     0.043 A 
HETATM   12  C   UNL     1      42.566 -16.844   4.193  1.00  0.00     0.051 A 
HETATM   13  C   UNL     1      42.969 -15.933   1.554  1.00  0.00     0.033 A 
HETATM   14  C   UNL     1      43.504 -17.156   1.983  1.00  0.00     0.039 A 
HETATM   15  C   UNL     1      43.311 -17.612   3.288  1.00  0.00     0.069 A 
HETATM   16  C   UNL     1      40.191 -13.145   6.169  1.00  0.00     0.007 C 
HETATM   17  C   UNL     1      39.374 -12.511   5.025  1.00  0.00     0.032 C 
HETATM   18  H   UNL     1      41.616 -13.405   1.491  1.00  0.00     0.166 HD
BRANCH  15  19
HETATM   19  O   UNL     1      43.796 -18.783   3.807  1.00  0.00    -0.356 OA
HETATM   20  C   UNL     1      43.758 -19.927   2.964  1.00  0.00     0.210 C 
ENDBRANCH  15  19
ENDBRANCH   2   5
BRANCH   1  21
HETATM   21  C   UNL     1      38.245 -10.727   0.949  1.00  0.00     0.164 C 
BRANCH  21  22
HETATM   22  C   UNL     1      38.943 -11.178  -0.311  1.00  0.00     0.075 A 
HETATM   23  N   UNL     1      38.998 -12.459  -0.514  1.00  0.00    -0.172 NA
HETATM   24  N   UNL     1      39.648 -12.941  -1.625  1.00  0.00    -0.230 N 
HETATM   25  C   UNL     1      40.350 -12.133  -2.520  1.00  0.00     0.275 A 
HETATM   26  C   UNL     1      40.243 -10.677  -2.319  1.00  0.00     0.046 A 
HETATM   27  O   UNL     1      41.031 -12.561  -3.450  1.00  0.00    -0.266 OA
HETATM   28  C   UNL     1      39.528 -10.183  -1.233  1.00  0.00     0.006 A 
HETATM   29  C   UNL     1      40.857  -9.796  -3.221  1.00  0.00     0.018 A 
HETATM   30  C   UNL     1      39.405  -8.799  -1.056  1.00  0.00     0.014 A 
HETATM   31  C   UNL     1      40.013  -7.923  -1.959  1.00  0.00     0.001 A 
HETATM   32  C   UNL     1      40.742  -8.420  -3.037  1.00  0.00     0.001 A 
BRANCH  24  33
HETATM   33  C   UNL     1      39.782 -14.403  -1.726  1.00  0.00     0.105 C 
HETATM   34  C   UNL     1      38.752 -15.024  -2.673  1.00  0.00     0.034 C 
HETATM   35  C   UNL     1      39.698 -15.043  -0.339  1.00  0.00     0.034 C 
ENDBRANCH  24  33
ENDBRANCH  21  22
ENDBRANCH   1  21
TORSDOF 5
ENDMDL
MODEL 9
REMARK VINA RESULT:      -8.3      4.783      8.935
REMARK  5 active torsions:
REMARK  status: ('A' for Active; 'I' for Inactive)
REMARK    1  A    between atoms: C_2  and  N_3 
REMARK    2  A    between atoms: C_5  and  C_6 
REMARK    3  A    between atoms: C_6  and  C_7 
REMARK       I    between atoms: C_7  and  N_8 
REMARK    4  A    between atoms: N_8  and  C_9 
REMARK    5  A    between atoms: C_16  and  O_17 
ROOT
HETATM    1  C   UNL     1      40.779 -15.312   1.397  1.00  0.00     0.224 C 
HETATM    2  N   UNL     1      39.653 -14.785   0.809  1.00  0.00    -0.351 N 
HETATM    3  O   UNL     1      41.909 -15.202   0.932  1.00  0.00    -0.273 OA
HETATM    4  H   UNL     1      38.749 -15.157   1.087  1.00  0.00     0.163 HD
ENDROOT
BRANCH   2   5
HETATM    5  C   UNL     1      39.729 -14.074  -0.448  1.00  0.00     0.135 C 
HETATM    6  C   UNL     1      38.822 -12.893  -0.374  1.00  0.00     0.040 A 
HETATM    7  C   UNL     1      38.004 -12.429  -1.384  1.00  0.00    -0.021 A 
HETATM    8  N   UNL     1      38.716 -12.038   0.689  1.00  0.00    -0.357 N 
HETATM    9  C   UNL     1      37.349 -11.262  -0.901  1.00  0.00     0.002 A 
HETATM   10  C   UNL     1      37.889 -13.118  -2.702  1.00  0.00     0.042 C 
HETATM   11  C   UNL     1      37.803 -11.047   0.402  1.00  0.00     0.043 A 
HETATM   12  C   UNL     1      36.409 -10.362  -1.442  1.00  0.00     0.051 A 
HETATM   13  C   UNL     1      37.355  -9.980   1.188  1.00  0.00     0.033 A 
HETATM   14  C   UNL     1      36.416  -9.104   0.627  1.00  0.00     0.039 A 
HETATM   15  C   UNL     1      35.945  -9.285  -0.674  1.00  0.00     0.069 A 
HETATM   16  C   UNL     1      39.039 -14.125  -2.907  1.00  0.00     0.007 C 
HETATM   17  C   UNL     1      39.314 -14.963  -1.643  1.00  0.00     0.032 C 
HETATM   18  H   UNL     1      39.223 -12.125   1.558  1.00  0.00     0.166 HD
BRANCH  15  19
HETATM   19  O   UNL     1      35.038  -8.485  -1.316  1.00  0.00    -0.356 OA
HETATM   20  C   UNL     1      33.877  -9.118  -1.840  1.00  0.00     0.210 C 
ENDBRANCH  15  19
ENDBRANCH   2   5
BRANCH   1  21
HETATM   21  C   UNL     1      40.524 -16.014   2.704  1.00  0.00     0.164 C 
BRANCH  21  22
HETATM   22  C   UNL     1      41.753 -16.123   3.575  1.00  0.00     0.075 A 
HETATM   23  N   UNL     1      42.459 -17.204   3.444  1.00  0.00    -0.172 NA
HETATM   24  N   UNL     1      43.573 -17.384   4.229  1.00  0.00    -0.230 N 
HETATM   25  C   UNL     1      43.951 -16.507   5.247  1.00  0.00     0.275 A 
HETATM   26  C   UNL     1      43.180 -15.255   5.359  1.00  0.00     0.046 A 
HETATM   27  O   UNL     1      44.874 -16.715   6.031  1.00  0.00    -0.266 OA
HETATM   28  C   UNL     1      42.092 -15.039   4.519  1.00  0.00     0.006 A 
HETATM   29  C   UNL     1      43.545 -14.289   6.307  1.00  0.00     0.018 A 
HETATM   30  C   UNL     1      41.376 -13.839   4.609  1.00  0.00     0.014 A 
HETATM   31  C   UNL     1      41.745 -12.874   5.551  1.00  0.00     0.001 A 
HETATM   32  C   UNL     1      42.824 -13.100   6.402  1.00  0.00     0.001 A 
BRANCH  24  33
HETATM   33  C   UNL     1      44.253 -18.685   4.119  1.00  0.00     0.105 C 
HETATM   34  C   UNL     1      43.955 -19.394   2.797  1.00  0.00     0.034 C 
HETATM   35  C   UNL     1      43.888 -19.578   5.307  1.00  0.00     0.034 C 
ENDBRANCH  24  33
ENDBRANCH  21  22
ENDBRANCH   1  21
TORSDOF 5
ENDMDL
MODEL 10
REMARK VINA RESULT:      -8.3      1.201      3.148
REMARK  5 active torsions:
REMARK  status: ('A' for Active; 'I' for Inactive)
REMARK    1  A    between atoms: C_2  and  N_3 
REMARK    2  A    between atoms: C_5  and  C_6 
REMARK    3  A    between atoms: C_6  and  C_7 
REMARK       I    between atoms: C_7  and  N_8 
REMARK    4  A    between atoms: N_8  and  C_9 
REMARK    5  A    between atoms: C_16  and  O_17 
ROOT
HETATM    1  C   UNL     1      40.275 -10.647   6.439  1.00  0.00     0.224 C 
HETATM    2  N   UNL     1      40.844 -11.311   5.377  1.00  0.00    -0.351 N 
HETATM    3  O   UNL     1      39.273 -11.035   7.031  1.00  0.00    -0.273 OA
HETATM    4  H   UNL     1      41.474 -10.793   4.771  1.00  0.00     0.163 HD
ENDROOT
BRANCH   2   5
HETATM    5  C   UNL     1      40.262 -12.528   4.858  1.00  0.00     0.135 C 
HETATM    6  C   UNL     1      41.267 -13.621   4.987  1.00  0.00     0.040 A 
HETATM    7  C   UNL     1      41.522 -14.609   4.057  1.00  0.00    -0.021 A 
HETATM    8  N   UNL     1      42.046 -13.858   6.087  1.00  0.00    -0.357 N 
HETATM    9  C   UNL     1      42.521 -15.462   4.602  1.00  0.00     0.002 A 
HETATM   10  C   UNL     1      40.827 -14.665   2.738  1.00  0.00     0.042 C 
HETATM   11  C   UNL     1      42.840 -14.963   5.867  1.00  0.00     0.043 A 
HETATM   12  C   UNL     1      43.192 -16.614   4.146  1.00  0.00     0.051 A 
HETATM   13  C   UNL     1      43.802 -15.558   6.689  1.00  0.00     0.033 A 
HETATM   14  C   UNL     1      44.458 -16.699   6.208  1.00  0.00     0.039 A 
HETATM   15  C   UNL     1      44.160 -17.229   4.952  1.00  0.00     0.069 A 
HETATM   16  C   UNL     1      39.580 -13.757   2.724  1.00  0.00     0.007 C 
HETATM   17  C   UNL     1      39.848 -12.386   3.375  1.00  0.00     0.032 C 
HETATM   18  H   UNL     1      42.047 -13.302   6.930  1.00  0.00     0.166 HD
BRANCH  15  19
HETATM   19  O   UNL     1      44.735 -18.339   4.393  1.00  0.00    -0.356 OA
HETATM   20  C   UNL     1      44.110 -18.875   3.234  1.00  0.00     0.210 C 
ENDBRANCH  15  19
ENDBRANCH   2   5
BRANCH   1  21
HETATM   21  C   UNL     1      41.011  -9.403   6.858  1.00  0.00     0.164 C 
BRANCH  21  22
HETATM   22  C   UNL     1      41.654  -9.517   8.220  1.00  0.00     0.075 A 
HETATM   23  N   UNL     1      40.892  -9.269   9.240  1.00  0.00    -0.172 NA
HETATM   24  N   UNL     1      41.420  -9.322  10.508  1.00  0.00    -0.230 N 
HETATM   25  C   UNL     1      42.773  -9.536  10.773  1.00  0.00     0.275 A 
HETATM   26  C   UNL     1      43.627  -9.870   9.618  1.00  0.00     0.046 A 
HETATM   27  O   UNL     1      43.277  -9.471  11.892  1.00  0.00    -0.266 OA
HETATM   28  C   UNL     1      43.080  -9.884   8.339  1.00  0.00     0.006 A 
HETATM   29  C   UNL     1      44.982 -10.173   9.811  1.00  0.00     0.018 A 
HETATM   30  C   UNL     1      43.885 -10.225   7.245  1.00  0.00     0.014 A 
HETATM   31  C   UNL     1      45.234 -10.533   7.441  1.00  0.00     0.001 A 
HETATM   32  C   UNL     1      45.784 -10.502   8.720  1.00  0.00     0.001 A 
BRANCH  24  33
HETATM   33  C   UNL     1      40.534  -8.907  11.608  1.00  0.00     0.105 C 
HETATM   34  C   UNL     1      39.746 -10.076  12.202  1.00  0.00     0.034 C 
HETATM   35  C   UNL     1      39.589  -7.798  11.141  1.00  0.00     0.034 C 
ENDBRANCH  24  33
ENDBRANCH  21  22
ENDBRANCH   1  21
TORSDOF 5
ENDMDL
