MODEL 1
REMARK VINA RESULT:     -10.4      0.000      0.000
REMARK  8 active torsions:
REMARK  status: ('A' for Active; 'I' for Inactive)
REMARK    1  A    between atoms: C_6  and  S_7 
REMARK    2  A    between atoms: S_7  and  C_8 
REMARK    3  A    between atoms: C_8  and  C_9 
REMARK       I    between atoms: C_9  and  N_10 
REMARK    4  A    between atoms: N_10  and  C_11 
REMARK    5  A    between atoms: C_24  and  C_25 
REMARK    6  A    between atoms: C_25  and  C_26 
REMARK       I    between atoms: C_26  and  N_27 
REMARK    7  A    between atoms: N_27  and  C_28 
REMARK    8  A    between atoms: C_28  and  C_29 
ROOT
HETATM    1  C   UNL     1      46.260 -10.807   7.329  1.00  0.00     0.001 A 
HETATM    2  C   UNL     1      45.299 -11.459   6.556  1.00  0.00     0.018 A 
HETATM    3  C   UNL     1      43.957 -11.102   6.694  1.00  0.00     0.039 A 
HETATM    4  C   UNL     1      43.563 -10.099   7.586  1.00  0.00     0.073 A 
HETATM    5  N   UNL     1      42.236  -9.665   7.682  1.00  0.00    -0.223 NA
HETATM    6  C   UNL     1      41.345 -10.254   6.956  1.00  0.00     0.178 C 
HETATM    7  N   UNL     1      41.614 -11.354   6.156  1.00  0.00    -0.241 N 
HETATM    8  C   UNL     1      42.890 -11.764   5.935  1.00  0.00     0.147 A 
HETATM    9  N   UNL     1      43.075 -12.709   5.060  1.00  0.00    -0.256 NA
HETATM   10  C   UNL     1      40.782 -12.149   5.403  1.00  0.00     0.257 A 
HETATM   11  O   UNL     1      39.564 -12.163   5.316  1.00  0.00    -0.270 OA
HETATM   12  C   UNL     1      41.694 -13.083   4.633  1.00  0.00     0.211 A 
HETATM   13  C   UNL     1      44.533  -9.460   8.357  1.00  0.00     0.032 A 
HETATM   14  C   UNL     1      45.877  -9.814   8.233  1.00  0.00     0.002 A 
ENDROOT
BRANCH  12  15
HETATM   15  C   UNL     1      41.499 -12.968   3.121  1.00  0.00     0.140 C 
BRANCH  15  16
HETATM   16  C   UNL     1      40.733 -14.144   2.539  1.00  0.00     0.220 C 
HETATM   17  N   UNL     1      41.399 -15.165   1.943  1.00  0.00    -0.357 N 
HETATM   18  H   UNL     1      40.801 -15.919   1.626  1.00  0.00     0.162 HD
HETATM   19  O   UNL     1      39.501 -14.202   2.582  1.00  0.00    -0.274 OA
BRANCH  17  20
HETATM   20  C   UNL     1      42.828 -15.401   1.910  1.00  0.00     0.161 C 
BRANCH  20  21
HETATM   21  C   UNL     1      43.208 -16.561   2.796  1.00  0.00    -0.038 A 
HETATM   22  C   UNL     1      43.196 -17.871   2.288  1.00  0.00     0.048 A 
HETATM   23  C   UNL     1      43.564 -18.900   3.131  1.00  0.00     0.105 A 
HETATM   24  C   UNL     1      43.941 -18.673   4.432  1.00  0.00     0.105 A 
HETATM   25  O   UNL     1      43.603 -20.219   2.802  1.00  0.00    -0.323 OA
HETATM   26  O   UNL     1      44.268 -19.820   5.086  1.00  0.00    -0.323 OA
HETATM   27  C   UNL     1      43.968 -17.404   4.968  1.00  0.00     0.040 A 
HETATM   28  C   UNL     1      44.041 -20.797   4.049  1.00  0.00     0.352 A 
HETATM   29  C   UNL     1      43.592 -16.340   4.141  1.00  0.00     0.012 A 
ENDBRANCH  20  21
ENDBRANCH  17  20
ENDBRANCH  15  16
ENDBRANCH  12  15
BRANCH   6  30
HETATM   30  S   UNL     1      39.758  -9.538   6.914  1.00  0.00    -0.082 SA
BRANCH  30  31
HETATM   31  C   UNL     1      39.111 -10.240   8.470  1.00  0.00     0.185 C 
BRANCH  31  32
HETATM   32  C   UNL     1      39.486  -9.399   9.692  1.00  0.00     0.232 C 
HETATM   33  N   UNL     1      40.564  -9.918  10.399  1.00  0.00    -0.324 N 
HETATM   34  H   UNL     1      40.987 -10.774  10.031  1.00  0.00     0.169 HD
HETATM   35  O   UNL     1      38.843  -8.392   9.965  1.00  0.00    -0.272 OA
BRANCH  33  36
HETATM   36  C   UNL     1      41.152  -9.450  11.602  1.00  0.00     0.073 A 
HETATM   37  C   UNL     1      40.615  -9.541  12.890  1.00  0.00     0.143 A 
HETATM   38  F   UNL     1      39.409 -10.066  13.133  1.00  0.00    -0.204 F 
HETATM   39  C   UNL     1      41.304  -9.038  13.998  1.00  0.00     0.044 A 
HETATM   40  C   UNL     1      42.548  -8.431  13.844  1.00  0.00     0.003 A 
HETATM   41  C   UNL     1      43.100  -8.327  12.573  1.00  0.00     0.002 A 
HETATM   42  C   UNL     1      42.408  -8.829  11.465  1.00  0.00     0.033 A 
ENDBRANCH  33  36
ENDBRANCH  31  32
ENDBRANCH  30  31
ENDBRANCH   6  30
TORSDOF 8
ENDMDL
MODEL 2
REMARK VINA RESULT:     -10.0      3.070      9.404
REMARK  8 active torsions:
REMARK  status: ('A' for Active; 'I' for Inactive)
REMARK    1  A    between atoms: C_6  and  S_7 
REMARK    2  A    between atoms: S_7  and  C_8 
REMARK    3  A    between atoms: C_8  and  C_9 
REMARK       I    between atoms: C_9  and  N_10 
REMARK    4  A    between atoms: N_10  and  C_11 
REMARK    5  A    between atoms: C_24  and  C_25 
REMARK    6  A    between atoms: C_25  and  C_26 
REMARK       I    between atoms: C_26  and  N_27 
REMARK    7  A    between atoms: N_27  and  C_28 
REMARK    8  A    between atoms: C_28  and  C_29 
ROOT
HETATM    1  C   UNL     1      40.263  -7.669   5.972  1.00  0.00     0.001 A 
HETATM    2  C   UNL     1      41.123  -8.708   6.329  1.00  0.00     0.018 A 
HETATM    3  C   UNL     1      40.929  -9.974   5.774  1.00  0.00     0.039 A 
HETATM    4  C   UNL     1      39.896 -10.214   4.861  1.00  0.00     0.073 A 
HETATM    5  N   UNL     1      39.732 -11.451   4.227  1.00  0.00    -0.223 NA
HETATM    6  C   UNL     1      40.536 -12.412   4.542  1.00  0.00     0.178 C 
HETATM    7  N   UNL     1      41.493 -12.313   5.540  1.00  0.00    -0.241 N 
HETATM    8  C   UNL     1      41.776 -11.119   6.124  1.00  0.00     0.147 A 
HETATM    9  N   UNL     1      42.784 -11.076   6.946  1.00  0.00    -0.256 NA
HETATM   10  C   UNL     1      42.354 -13.249   6.062  1.00  0.00     0.257 A 
HETATM   11  O   UNL     1      42.440 -14.450   5.856  1.00  0.00    -0.270 OA
HETATM   12  C   UNL     1      43.259 -12.490   7.012  1.00  0.00     0.211 A 
HETATM   13  C   UNL     1      39.040  -9.168   4.518  1.00  0.00     0.032 A 
HETATM   14  C   UNL     1      39.219  -7.900   5.073  1.00  0.00     0.002 A 
ENDROOT
BRANCH  12  15
HETATM   15  C   UNL     1      44.735 -12.628   6.643  1.00  0.00     0.140 C 
BRANCH  15  16
HETATM   16  C   UNL     1      45.303 -11.366   6.015  1.00  0.00     0.220 C 
HETATM   17  N   UNL     1      45.859 -10.406   6.796  1.00  0.00    -0.357 N 
HETATM   18  H   UNL     1      46.246  -9.625   6.277  1.00  0.00     0.162 HD
HETATM   19  O   UNL     1      45.269 -11.175   4.797  1.00  0.00    -0.274 OA
BRANCH  17  20
HETATM   20  C   UNL     1      46.157 -10.466   8.212  1.00  0.00     0.161 C 
BRANCH  20  21
HETATM   21  C   UNL     1      45.189  -9.626   9.007  1.00  0.00    -0.038 A 
HETATM   22  C   UNL     1      44.765 -10.050  10.277  1.00  0.00     0.048 A 
HETATM   23  C   UNL     1      43.889  -9.244  10.975  1.00  0.00     0.105 A 
HETATM   24  C   UNL     1      43.436  -8.052  10.464  1.00  0.00     0.105 A 
HETATM   25  O   UNL     1      43.379  -9.506  12.208  1.00  0.00    -0.323 OA
HETATM   26  O   UNL     1      42.587  -7.412  11.312  1.00  0.00    -0.323 OA
HETATM   27  C   UNL     1      43.830  -7.599   9.224  1.00  0.00     0.040 A 
HETATM   28  C   UNL     1      42.548  -8.345  12.411  1.00  0.00     0.352 A 
HETATM   29  C   UNL     1      44.711  -8.399   8.488  1.00  0.00     0.012 A 
ENDBRANCH  20  21
ENDBRANCH  17  20
ENDBRANCH  15  16
ENDBRANCH  12  15
BRANCH   6  30
HETATM   30  S   UNL     1      40.466 -13.854   3.568  1.00  0.00    -0.082 SA
BRANCH  30  31
HETATM   31  C   UNL     1      41.907 -13.520   2.499  1.00  0.00     0.185 C 
BRANCH  31  32
HETATM   32  C   UNL     1      42.817 -14.740   2.346  1.00  0.00     0.232 C 
HETATM   33  N   UNL     1      42.362 -15.849   3.049  1.00  0.00    -0.324 N 
HETATM   34  H   UNL     1      41.486 -15.739   3.567  1.00  0.00     0.169 HD
HETATM   35  O   UNL     1      43.837 -14.665   1.671  1.00  0.00    -0.272 OA
BRANCH  33  36
HETATM   36  C   UNL     1      42.962 -17.127   3.189  1.00  0.00     0.073 A 
HETATM   37  C   UNL     1      43.874 -17.522   4.174  1.00  0.00     0.143 A 
HETATM   38  F   UNL     1      44.333 -16.685   5.110  1.00  0.00    -0.204 F 
HETATM   39  C   UNL     1      44.392 -18.821   4.200  1.00  0.00     0.044 A 
HETATM   40  C   UNL     1      44.010 -19.756   3.241  1.00  0.00     0.003 A 
HETATM   41  C   UNL     1      43.108 -19.385   2.251  1.00  0.00     0.002 A 
HETATM   42  C   UNL     1      42.593 -18.084   2.226  1.00  0.00     0.033 A 
ENDBRANCH  33  36
ENDBRANCH  31  32
ENDBRANCH  30  31
ENDBRANCH   6  30
TORSDOF 8
ENDMDL
MODEL 3
REMARK VINA RESULT:      -9.7      2.863      9.317
REMARK  8 active torsions:
REMARK  status: ('A' for Active; 'I' for Inactive)
REMARK    1  A    between atoms: C_6  and  S_7 
REMARK    2  A    between atoms: S_7  and  C_8 
REMARK    3  A    between atoms: C_8  and  C_9 
REMARK       I    between atoms: C_9  and  N_10 
REMARK    4  A    between atoms: N_10  and  C_11 
REMARK    5  A    between atoms: C_24  and  C_25 
REMARK    6  A    between atoms: C_25  and  C_26 
REMARK       I    between atoms: C_26  and  N_27 
REMARK    7  A    between atoms: N_27  and  C_28 
REMARK    8  A    between atoms: C_28  and  C_29 
ROOT
HETATM    1  C   UNL     1      44.970  -8.963   9.496  1.00  0.00     0.001 A 
HETATM    2  C   UNL     1      43.782  -8.854   8.773  1.00  0.00     0.018 A 
HETATM    3  C   UNL     1      43.574  -9.690   7.675  1.00  0.00     0.039 A 
HETATM    4  C   UNL     1      44.530 -10.638   7.295  1.00  0.00     0.073 A 
HETATM    5  N   UNL     1      44.309 -11.544   6.251  1.00  0.00    -0.223 NA
HETATM    6  C   UNL     1      43.204 -11.457   5.589  1.00  0.00     0.178 C 
HETATM    7  N   UNL     1      42.264 -10.459   5.794  1.00  0.00    -0.241 N 
HETATM    8  C   UNL     1      42.362  -9.611   6.852  1.00  0.00     0.147 A 
HETATM    9  N   UNL     1      41.369  -8.797   7.064  1.00  0.00    -0.256 NA
HETATM   10  C   UNL     1      41.097 -10.166   5.129  1.00  0.00     0.257 A 
HETATM   11  O   UNL     1      40.623 -10.645   4.111  1.00  0.00    -0.270 OA
HETATM   12  C   UNL     1      40.436  -9.060   5.928  1.00  0.00     0.211 A 
HETATM   13  C   UNL     1      45.716 -10.732   8.023  1.00  0.00     0.032 A 
HETATM   14  C   UNL     1      45.938  -9.897   9.118  1.00  0.00     0.002 A 
ENDROOT
BRANCH  12  15
HETATM   15  C   UNL     1      39.035  -9.443   6.401  1.00  0.00     0.140 C 
BRANCH  15  16
HETATM   16  C   UNL     1      39.042 -10.620   7.362  1.00  0.00     0.220 C 
HETATM   17  N   UNL     1      39.106 -10.407   8.701  1.00  0.00    -0.357 N 
HETATM   18  H   UNL     1      39.062 -11.254   9.256  1.00  0.00     0.162 HD
HETATM   19  O   UNL     1      38.999 -11.786   6.962  1.00  0.00    -0.274 OA
BRANCH  17  20
HETATM   20  C   UNL     1      39.005  -9.149   9.412  1.00  0.00     0.161 C 
BRANCH  20  21
HETATM   21  C   UNL     1      39.905  -9.135  10.622  1.00  0.00    -0.038 A 
HETATM   22  C   UNL     1      40.897  -8.150  10.753  1.00  0.00     0.048 A 
HETATM   23  C   UNL     1      41.689  -8.168  11.883  1.00  0.00     0.105 A 
HETATM   24  C   UNL     1      41.525  -9.110  12.870  1.00  0.00     0.105 A 
HETATM   25  O   UNL     1      42.693  -7.295  12.163  1.00  0.00    -0.323 OA
HETATM   26  O   UNL     1      42.402  -8.947  13.896  1.00  0.00    -0.323 OA
HETATM   27  C   UNL     1      40.561 -10.091  12.781  1.00  0.00     0.040 A 
HETATM   28  C   UNL     1      43.146  -7.799  13.436  1.00  0.00     0.352 A 
HETATM   29  C   UNL     1      39.749 -10.105  11.643  1.00  0.00     0.012 A 
ENDBRANCH  20  21
ENDBRANCH  17  20
ENDBRANCH  15  16
ENDBRANCH  12  15
BRANCH   6  30
HETATM   30  S   UNL     1      42.852 -12.741   4.465  1.00  0.00    -0.082 SA
BRANCH  30  31
HETATM   31  C   UNL     1      41.758 -13.735   5.536  1.00  0.00     0.185 C 
BRANCH  31  32
HETATM   32  C   UNL     1      42.103 -15.225   5.501  1.00  0.00     0.232 C 
HETATM   33  N   UNL     1      42.773 -15.601   4.343  1.00  0.00    -0.324 N 
HETATM   34  H   UNL     1      42.970 -14.861   3.664  1.00  0.00     0.169 HD
HETATM   35  O   UNL     1      41.773 -15.954   6.429  1.00  0.00    -0.272 OA
BRANCH  33  36
HETATM   36  C   UNL     1      43.200 -16.892   3.936  1.00  0.00     0.073 A 
HETATM   37  C   UNL     1      44.086 -17.735   4.613  1.00  0.00     0.143 A 
HETATM   38  F   UNL     1      44.690 -17.381   5.753  1.00  0.00    -0.204 F 
HETATM   39  C   UNL     1      44.423 -18.992   4.100  1.00  0.00     0.044 A 
HETATM   40  C   UNL     1      43.882 -19.434   2.896  1.00  0.00     0.003 A 
HETATM   41  C   UNL     1      43.002 -18.612   2.203  1.00  0.00     0.002 A 
HETATM   42  C   UNL     1      42.668 -17.354   2.718  1.00  0.00     0.033 A 
ENDBRANCH  33  36
ENDBRANCH  31  32
ENDBRANCH  30  31
ENDBRANCH   6  30
TORSDOF 8
ENDMDL
MODEL 4
REMARK VINA RESULT:      -9.7      1.534      2.032
REMARK  8 active torsions:
REMARK  status: ('A' for Active; 'I' for Inactive)
REMARK    1  A    between atoms: C_6  and  S_7 
REMARK    2  A    between atoms: S_7  and  C_8 
REMARK    3  A    between atoms: C_8  and  C_9 
REMARK       I    between atoms: C_9  and  N_10 
REMARK    4  A    between atoms: N_10  and  C_11 
REMARK    5  A    between atoms: C_24  and  C_25 
REMARK    6  A    between atoms: C_25  and  C_26 
REMARK       I    between atoms: C_26  and  N_27 
REMARK    7  A    between atoms: N_27  and  C_28 
REMARK    8  A    between atoms: C_28  and  C_29 
ROOT
HETATM    1  C   UNL     1      46.382 -10.422   7.805  1.00  0.00     0.001 A 
HETATM    2  C   UNL     1      45.361 -11.015   7.062  1.00  0.00     0.018 A 
HETATM    3  C   UNL     1      44.046 -10.587   7.248  1.00  0.00     0.039 A 
HETATM    4  C   UNL     1      43.738  -9.569   8.157  1.00  0.00     0.073 A 
HETATM    5  N   UNL     1      42.441  -9.064   8.302  1.00  0.00    -0.223 NA
HETATM    6  C   UNL     1      41.495  -9.599   7.605  1.00  0.00     0.178 C 
HETATM    7  N   UNL     1      41.676 -10.707   6.790  1.00  0.00    -0.241 N 
HETATM    8  C   UNL     1      42.920 -11.184   6.523  1.00  0.00     0.147 A 
HETATM    9  N   UNL     1      43.022 -12.132   5.638  1.00  0.00    -0.256 NA
HETATM   10  C   UNL     1      40.776 -11.450   6.063  1.00  0.00     0.257 A 
HETATM   11  O   UNL     1      39.558 -11.398   6.018  1.00  0.00    -0.270 OA
HETATM   12  C   UNL     1      41.609 -12.427   5.257  1.00  0.00     0.211 A 
HETATM   13  C   UNL     1      44.768  -8.989   8.898  1.00  0.00     0.032 A 
HETATM   14  C   UNL     1      46.085  -9.415   8.725  1.00  0.00     0.002 A 
ENDROOT
BRANCH  12  15
HETATM   15  C   UNL     1      41.369 -12.293   3.754  1.00  0.00     0.140 C 
BRANCH  15  16
HETATM   16  C   UNL     1      42.656 -12.350   2.948  1.00  0.00     0.220 C 
HETATM   17  N   UNL     1      42.967 -13.463   2.237  1.00  0.00    -0.357 N 
HETATM   18  H   UNL     1      43.823 -13.384   1.701  1.00  0.00     0.162 HD
HETATM   19  O   UNL     1      43.448 -11.405   2.921  1.00  0.00    -0.274 OA
BRANCH  17  20
HETATM   20  C   UNL     1      42.137 -14.623   1.984  1.00  0.00     0.161 C 
BRANCH  20  21
HETATM   21  C   UNL     1      42.634 -15.824   2.750  1.00  0.00    -0.038 A 
HETATM   22  C   UNL     1      42.510 -15.870   4.148  1.00  0.00     0.048 A 
HETATM   23  C   UNL     1      42.966 -16.994   4.806  1.00  0.00     0.105 A 
HETATM   24  C   UNL     1      43.524 -18.053   4.133  1.00  0.00     0.105 A 
HETATM   25  O   UNL     1      42.926 -17.198   6.150  1.00  0.00    -0.323 OA
HETATM   26  O   UNL     1      43.903 -19.059   4.967  1.00  0.00    -0.323 OA
HETATM   27  C   UNL     1      43.662 -18.049   2.762  1.00  0.00     0.040 A 
HETATM   28  C   UNL     1      43.530 -18.504   6.245  1.00  0.00     0.352 A 
HETATM   29  C   UNL     1      43.216 -16.919   2.067  1.00  0.00     0.012 A 
ENDBRANCH  20  21
ENDBRANCH  17  20
ENDBRANCH  15  16
ENDBRANCH  12  15
BRANCH   6  30
HETATM   30  S   UNL     1      39.948  -8.797   7.620  1.00  0.00    -0.082 SA
BRANCH  30  31
HETATM   31  C   UNL     1      39.281  -9.543   9.146  1.00  0.00     0.185 C 
BRANCH  31  32
HETATM   32  C   UNL     1      39.623  -8.727  10.394  1.00  0.00     0.232 C 
HETATM   33  N   UNL     1      40.811  -9.124  10.995  1.00  0.00    -0.324 N 
HETATM   34  H   UNL     1      41.322  -9.888  10.545  1.00  0.00     0.169 HD
HETATM   35  O   UNL     1      38.866  -7.840  10.775  1.00  0.00    -0.272 OA
BRANCH  33  36
HETATM   36  C   UNL     1      41.415  -8.644  12.186  1.00  0.00     0.073 A 
HETATM   37  C   UNL     1      42.501  -7.768  12.282  1.00  0.00     0.143 A 
HETATM   38  F   UNL     1      43.146  -7.298  11.210  1.00  0.00    -0.204 F 
HETATM   39  C   UNL     1      43.000  -7.369  13.527  1.00  0.00     0.044 A 
HETATM   40  C   UNL     1      42.425  -7.839  14.705  1.00  0.00     0.003 A 
HETATM   41  C   UNL     1      41.347  -8.713  14.634  1.00  0.00     0.002 A 
HETATM   42  C   UNL     1      40.851  -9.112  13.388  1.00  0.00     0.033 A 
ENDBRANCH  33  36
ENDBRANCH  31  32
ENDBRANCH  30  31
ENDBRANCH   6  30
TORSDOF 8
ENDMDL
MODEL 5
REMARK VINA RESULT:      -9.6      3.053     10.409
REMARK  8 active torsions:
REMARK  status: ('A' for Active; 'I' for Inactive)
REMARK    1  A    between atoms: C_6  and  S_7 
REMARK    2  A    between atoms: S_7  and  C_8 
REMARK    3  A    between atoms: C_8  and  C_9 
REMARK       I    between atoms: C_9  and  N_10 
REMARK    4  A    between atoms: N_10  and  C_11 
REMARK    5  A    between atoms: C_24  and  C_25 
REMARK    6  A    between atoms: C_25  and  C_26 
REMARK       I    between atoms: C_26  and  N_27 
REMARK    7  A    between atoms: N_27  and  C_28 
REMARK    8  A    between atoms: C_28  and  C_29 
ROOT
HETATM    1  C   UNL     1      46.002  -9.377   8.314  1.00  0.00     0.001 A 
HETATM    2  C   UNL     1      44.612  -9.300   8.237  1.00  0.00     0.018 A 
HETATM    3  C   UNL     1      43.925 -10.184   7.404  1.00  0.00     0.039 A 
HETATM    4  C   UNL     1      44.607 -11.150   6.655  1.00  0.00     0.073 A 
HETATM    5  N   UNL     1      43.937 -12.102   5.878  1.00  0.00    -0.223 NA
HETATM    6  C   UNL     1      42.648 -12.045   5.816  1.00  0.00     0.178 C 
HETATM    7  N   UNL     1      41.898 -11.037   6.401  1.00  0.00    -0.241 N 
HETATM    8  C   UNL     1      42.467 -10.142   7.251  1.00  0.00     0.147 A 
HETATM    9  N   UNL     1      41.677  -9.318   7.875  1.00  0.00    -0.256 NA
HETATM   10  C   UNL     1      40.549 -10.773   6.357  1.00  0.00     0.257 A 
HETATM   11  O   UNL     1      39.660 -11.298   5.706  1.00  0.00    -0.270 OA
HETATM   12  C   UNL     1      40.323  -9.631   7.329  1.00  0.00     0.211 A 
HETATM   13  C   UNL     1      45.998 -11.212   6.737  1.00  0.00     0.032 A 
HETATM   14  C   UNL     1      46.695 -10.328   7.561  1.00  0.00     0.002 A 
ENDROOT
BRANCH  12  15
HETATM   15  C   UNL     1      39.320  -9.992   8.424  1.00  0.00     0.140 C 
BRANCH  15  16
HETATM   16  C   UNL     1      38.872  -8.783   9.229  1.00  0.00     0.220 C 
HETATM   17  N   UNL     1      39.070  -8.746  10.571  1.00  0.00    -0.357 N 
HETATM   18  H   UNL     1      38.775  -7.880  11.008  1.00  0.00     0.162 HD
HETATM   19  O   UNL     1      38.317  -7.818   8.698  1.00  0.00    -0.274 OA
BRANCH  17  20
HETATM   20  C   UNL     1      39.830  -9.669  11.389  1.00  0.00     0.161 C 
BRANCH  20  21
HETATM   21  C   UNL     1      40.784  -8.933  12.296  1.00  0.00    -0.038 A 
HETATM   22  C   UNL     1      40.433  -8.678  13.632  1.00  0.00     0.048 A 
HETATM   23  C   UNL     1      41.343  -8.013  14.429  1.00  0.00     0.105 A 
HETATM   24  C   UNL     1      42.566  -7.608  13.953  1.00  0.00     0.105 A 
HETATM   25  O   UNL     1      41.161  -7.684  15.736  1.00  0.00    -0.323 OA
HETATM   26  O   UNL     1      43.310  -6.977  14.901  1.00  0.00    -0.323 OA
HETATM   27  C   UNL     1      42.950  -7.842  12.651  1.00  0.00     0.040 A 
HETATM   28  C   UNL     1      42.408  -7.020  16.026  1.00  0.00     0.352 A 
HETATM   29  C   UNL     1      42.046  -8.506  11.815  1.00  0.00     0.012 A 
ENDBRANCH  20  21
ENDBRANCH  17  20
ENDBRANCH  15  16
ENDBRANCH  12  15
BRANCH   6  30
HETATM   30  S   UNL     1      41.833 -13.378   5.047  1.00  0.00    -0.082 SA
BRANCH  30  31
HETATM   31  C   UNL     1      42.996 -14.704   5.516  1.00  0.00     0.185 C 
BRANCH  31  32
HETATM   32  C   UNL     1      42.609 -16.059   4.919  1.00  0.00     0.232 C 
HETATM   33  N   UNL     1      43.691 -16.918   4.777  1.00  0.00    -0.324 N 
HETATM   34  H   UNL     1      44.601 -16.570   5.089  1.00  0.00     0.169 HD
HETATM   35  O   UNL     1      41.445 -16.282   4.606  1.00  0.00    -0.272 OA
BRANCH  33  36
HETATM   36  C   UNL     1      43.730 -18.221   4.215  1.00  0.00     0.073 A 
HETATM   37  C   UNL     1      43.485 -18.568   2.883  1.00  0.00     0.143 A 
HETATM   38  F   UNL     1      43.129 -17.671   1.957  1.00  0.00    -0.204 F 
HETATM   39  C   UNL     1      43.559 -19.899   2.457  1.00  0.00     0.044 A 
HETATM   40  C   UNL     1      43.879 -20.913   3.355  1.00  0.00     0.003 A 
HETATM   41  C   UNL     1      44.123 -20.593   4.684  1.00  0.00     0.002 A 
HETATM   42  C   UNL     1      44.047 -19.262   5.109  1.00  0.00     0.033 A 
ENDBRANCH  33  36
ENDBRANCH  31  32
ENDBRANCH  30  31
ENDBRANCH   6  30
TORSDOF 8
ENDMDL
MODEL 6
REMARK VINA RESULT:      -9.5      3.344      8.566
REMARK  8 active torsions:
REMARK  status: ('A' for Active; 'I' for Inactive)
REMARK    1  A    between atoms: C_6  and  S_7 
REMARK    2  A    between atoms: S_7  and  C_8 
REMARK    3  A    between atoms: C_8  and  C_9 
REMARK       I    between atoms: C_9  and  N_10 
REMARK    4  A    between atoms: N_10  and  C_11 
REMARK    5  A    between atoms: C_24  and  C_25 
REMARK    6  A    between atoms: C_25  and  C_26 
REMARK       I    between atoms: C_26  and  N_27 
REMARK    7  A    between atoms: N_27  and  C_28 
REMARK    8  A    between atoms: C_28  and  C_29 
ROOT
HETATM    1  C   UNL     1      44.265 -16.830   6.402  1.00  0.00     0.001 A 
HETATM    2  C   UNL     1      44.330 -15.473   6.722  1.00  0.00     0.018 A 
HETATM    3  C   UNL     1      43.455 -14.584   6.097  1.00  0.00     0.039 A 
HETATM    4  C   UNL     1      42.513 -15.030   5.165  1.00  0.00     0.073 A 
HETATM    5  N   UNL     1      41.569 -14.172   4.586  1.00  0.00    -0.223 NA
HETATM    6  C   UNL     1      41.615 -12.918   4.892  1.00  0.00     0.178 C 
HETATM    7  N   UNL     1      42.602 -12.359   5.688  1.00  0.00    -0.241 N 
HETATM    8  C   UNL     1      43.485 -13.141   6.363  1.00  0.00     0.147 A 
HETATM    9  N   UNL     1      44.288 -12.555   7.202  1.00  0.00    -0.256 NA
HETATM   10  C   UNL     1      42.852 -11.051   6.032  1.00  0.00     0.257 A 
HETATM   11  O   UNL     1      42.332 -10.017   5.647  1.00  0.00    -0.270 OA
HETATM   12  C   UNL     1      43.971 -11.104   7.054  1.00  0.00     0.211 A 
HETATM   13  C   UNL     1      42.463 -16.387   4.849  1.00  0.00     0.032 A 
HETATM   14  C   UNL     1      43.338 -17.285   5.463  1.00  0.00     0.002 A 
ENDROOT
BRANCH  12  15
HETATM   15  C   UNL     1      43.578 -10.453   8.379  1.00  0.00     0.140 C 
BRANCH  15  16
HETATM   16  C   UNL     1      44.781  -9.987   9.183  1.00  0.00     0.220 C 
HETATM   17  N   UNL     1      44.747 -10.015  10.540  1.00  0.00    -0.357 N 
HETATM   18  H   UNL     1      45.613  -9.724  10.980  1.00  0.00     0.162 HD
HETATM   19  O   UNL     1      45.806  -9.570   8.637  1.00  0.00    -0.274 OA
BRANCH  17  20
HETATM   20  C   UNL     1      43.737 -10.601  11.397  1.00  0.00     0.161 C 
BRANCH  20  21
HETATM   21  C   UNL     1      43.025  -9.541  12.200  1.00  0.00    -0.038 A 
HETATM   22  C   UNL     1      43.200  -8.183  11.889  1.00  0.00     0.048 A 
HETATM   23  C   UNL     1      42.518  -7.248  12.642  1.00  0.00     0.105 A 
HETATM   24  C   UNL     1      41.681  -7.614  13.669  1.00  0.00     0.105 A 
HETATM   25  O   UNL     1      42.578  -5.900  12.478  1.00  0.00    -0.323 OA
HETATM   26  O   UNL     1      41.106  -6.542  14.277  1.00  0.00    -0.323 OA
HETATM   27  C   UNL     1      41.480  -8.935  14.003  1.00  0.00     0.040 A 
HETATM   28  C   UNL     1      41.688  -5.459  13.523  1.00  0.00     0.352 A 
HETATM   29  C   UNL     1      42.165  -9.906  13.264  1.00  0.00     0.012 A 
ENDBRANCH  20  21
ENDBRANCH  17  20
ENDBRANCH  15  16
ENDBRANCH  12  15
BRANCH   6  30
HETATM   30  S   UNL     1      40.289 -11.924   4.354  1.00  0.00    -0.082 SA
BRANCH  30  31
HETATM   31  C   UNL     1      39.221 -12.092   5.825  1.00  0.00     0.185 C 
BRANCH  31  32
HETATM   32  C   UNL     1      38.949 -10.749   6.505  1.00  0.00     0.232 C 
HETATM   33  N   UNL     1      39.799 -10.500   7.577  1.00  0.00    -0.324 N 
HETATM   34  H   UNL     1      40.502 -11.214   7.782  1.00  0.00     0.169 HD
HETATM   35  O   UNL     1      38.044 -10.028   6.102  1.00  0.00    -0.272 OA
BRANCH  33  36
HETATM   36  C   UNL     1      39.810  -9.399   8.472  1.00  0.00     0.073 A 
HETATM   37  C   UNL     1      40.166  -8.080   8.174  1.00  0.00     0.143 A 
HETATM   38  F   UNL     1      40.596  -7.704   6.965  1.00  0.00    -0.204 F 
HETATM   39  C   UNL     1      40.131  -7.083   9.155  1.00  0.00     0.044 A 
HETATM   40  C   UNL     1      39.740  -7.383  10.457  1.00  0.00     0.003 A 
HETATM   41  C   UNL     1      39.386  -8.688  10.777  1.00  0.00     0.002 A 
HETATM   42  C   UNL     1      39.423  -9.684   9.795  1.00  0.00     0.033 A 
ENDBRANCH  33  36
ENDBRANCH  31  32
ENDBRANCH  30  31
ENDBRANCH   6  30
TORSDOF 8
ENDMDL
MODEL 7
REMARK VINA RESULT:      -9.4      3.433      9.666
REMARK  8 active torsions:
REMARK  status: ('A' for Active; 'I' for Inactive)
REMARK    1  A    between atoms: C_6  and  S_7 
REMARK    2  A    between atoms: S_7  and  C_8 
REMARK    3  A    between atoms: C_8  and  C_9 
REMARK       I    between atoms: C_9  and  N_10 
REMARK    4  A    between atoms: N_10  and  C_11 
REMARK    5  A    between atoms: C_24  and  C_25 
REMARK    6  A    between atoms: C_25  and  C_26 
REMARK       I    between atoms: C_26  and  N_27 
REMARK    7  A    between atoms: N_27  and  C_28 
REMARK    8  A    between atoms: C_28  and  C_29 
ROOT
HETATM    1  C   UNL     1      39.789 -13.125  -0.315  1.00  0.00     0.001 A 
HETATM    2  C   UNL     1      39.625 -12.397   0.864  1.00  0.00     0.018 A 
HETATM    3  C   UNL     1      39.882 -13.016   2.088  1.00  0.00     0.039 A 
HETATM    4  C   UNL     1      40.308 -14.347   2.151  1.00  0.00     0.073 A 
HETATM    5  N   UNL     1      40.652 -14.965   3.359  1.00  0.00    -0.223 NA
HETATM    6  C   UNL     1      40.518 -14.290   4.452  1.00  0.00     0.178 C 
HETATM    7  N   UNL     1      39.965 -13.020   4.504  1.00  0.00    -0.241 N 
HETATM    8  C   UNL     1      39.704 -12.322   3.368  1.00  0.00     0.147 A 
HETATM    9  N   UNL     1      39.324 -11.084   3.497  1.00  0.00    -0.256 NA
HETATM   10  C   UNL     1      39.665 -12.208   5.573  1.00  0.00     0.257 A 
HETATM   11  O   UNL     1      39.713 -12.428   6.773  1.00  0.00    -0.270 OA
HETATM   12  C   UNL     1      39.233 -10.885   4.974  1.00  0.00     0.211 A 
HETATM   13  C   UNL     1      40.461 -15.065   0.965  1.00  0.00     0.032 A 
HETATM   14  C   UNL     1      40.200 -14.458  -0.264  1.00  0.00     0.002 A 
ENDROOT
BRANCH  12  15
HETATM   15  C   UNL     1      40.092  -9.719   5.460  1.00  0.00     0.140 C 
BRANCH  15  16
HETATM   16  C   UNL     1      39.287  -8.670   6.209  1.00  0.00     0.220 C 
HETATM   17  N   UNL     1      39.268  -8.664   7.566  1.00  0.00    -0.357 N 
HETATM   18  H   UNL     1      38.737  -7.900   7.968  1.00  0.00     0.162 HD
HETATM   19  O   UNL     1      38.630  -7.810   5.616  1.00  0.00    -0.274 OA
BRANCH  17  20
HETATM   20  C   UNL     1      40.071  -9.456   8.475  1.00  0.00     0.161 C 
BRANCH  20  21
HETATM   21  C   UNL     1      41.502  -8.979   8.493  1.00  0.00    -0.038 A 
HETATM   22  C   UNL     1      42.544  -9.862   8.165  1.00  0.00     0.048 A 
HETATM   23  C   UNL     1      43.837  -9.379   8.182  1.00  0.00     0.105 A 
HETATM   24  C   UNL     1      44.120  -8.073   8.503  1.00  0.00     0.105 A 
HETATM   25  O   UNL     1      44.956 -10.096   7.896  1.00  0.00    -0.323 OA
HETATM   26  O   UNL     1      45.452  -7.803   8.456  1.00  0.00    -0.323 OA
HETATM   27  C   UNL     1      43.127  -7.176   8.828  1.00  0.00     0.040 A 
HETATM   28  C   UNL     1      45.977  -9.094   8.080  1.00  0.00     0.352 A 
HETATM   29  C   UNL     1      41.806  -7.638   8.828  1.00  0.00     0.012 A 
ENDBRANCH  20  21
ENDBRANCH  17  20
ENDBRANCH  15  16
ENDBRANCH  12  15
BRANCH   6  30
HETATM   30  S   UNL     1      41.179 -14.992   5.902  1.00  0.00    -0.082 SA
BRANCH  30  31
HETATM   31  C   UNL     1      42.950 -14.788   5.509  1.00  0.00     0.185 C 
BRANCH  31  32
HETATM   32  C   UNL     1      43.679 -16.128   5.384  1.00  0.00     0.232 C 
HETATM   33  N   UNL     1      43.038 -17.017   4.530  1.00  0.00    -0.324 N 
HETATM   34  H   UNL     1      42.181 -16.687   4.079  1.00  0.00     0.169 HD
HETATM   35  O   UNL     1      44.708 -16.329   6.018  1.00  0.00    -0.272 OA
BRANCH  33  36
HETATM   36  C   UNL     1      43.382 -18.357   4.213  1.00  0.00     0.073 A 
HETATM   37  C   UNL     1      43.631 -19.395   5.116  1.00  0.00     0.143 A 
HETATM   38  F   UNL     1      43.613 -19.219   6.441  1.00  0.00    -0.204 F 
HETATM   39  C   UNL     1      43.961 -20.679   4.669  1.00  0.00     0.044 A 
HETATM   40  C   UNL     1      44.049 -20.954   3.307  1.00  0.00     0.003 A 
HETATM   41  C   UNL     1      43.809 -19.937   2.391  1.00  0.00     0.002 A 
HETATM   42  C   UNL     1      43.482 -18.653   2.840  1.00  0.00     0.033 A 
ENDBRANCH  33  36
ENDBRANCH  31  32
ENDBRANCH  30  31
ENDBRANCH   6  30
TORSDOF 8
ENDMDL
MODEL 8
REMARK VINA RESULT:      -9.3      5.014      9.327
REMARK  8 active torsions:
REMARK  status: ('A' for Active; 'I' for Inactive)
REMARK    1  A    between atoms: C_6  and  S_7 
REMARK    2  A    between atoms: S_7  and  C_8 
REMARK    3  A    between atoms: C_8  and  C_9 
REMARK       I    between atoms: C_9  and  N_10 
REMARK    4  A    between atoms: N_10  and  C_11 
REMARK    5  A    between atoms: C_24  and  C_25 
REMARK    6  A    between atoms: C_25  and  C_26 
REMARK       I    between atoms: C_26  and  N_27 
REMARK    7  A    between atoms: N_27  and  C_28 
REMARK    8  A    between atoms: C_28  and  C_29 
ROOT
HETATM    1  C   UNL     1      39.776 -14.023  -0.084  1.00  0.00     0.001 A 
HETATM    2  C   UNL     1      39.592 -13.103   0.949  1.00  0.00     0.018 A 
HETATM    3  C   UNL     1      39.839 -13.496   2.264  1.00  0.00     0.039 A 
HETATM    4  C   UNL     1      40.276 -14.791   2.562  1.00  0.00     0.073 A 
HETATM    5  N   UNL     1      40.612 -15.186   3.863  1.00  0.00    -0.223 NA
HETATM    6  C   UNL     1      40.458 -14.333   4.820  1.00  0.00     0.178 C 
HETATM    7  N   UNL     1      39.893 -13.079   4.645  1.00  0.00    -0.241 N 
HETATM    8  C   UNL     1      39.640 -12.592   3.402  1.00  0.00     0.147 A 
HETATM    9  N   UNL     1      39.246 -11.355   3.309  1.00  0.00    -0.256 NA
HETATM   10  C   UNL     1      39.573 -12.097   5.553  1.00  0.00     0.257 A 
HETATM   11  O   UNL     1      39.607 -12.104   6.773  1.00  0.00    -0.270 OA
HETATM   12  C   UNL     1      39.135 -10.902   4.728  1.00  0.00     0.211 A 
HETATM   13  C   UNL     1      40.451 -15.703   1.522  1.00  0.00     0.032 A 
HETATM   14  C   UNL     1      40.199 -15.323   0.203  1.00  0.00     0.002 A 
ENDROOT
BRANCH  12  15
HETATM   15  C   UNL     1      39.978  -9.660   5.012  1.00  0.00     0.140 C 
BRANCH  15  16
HETATM   16  C   UNL     1      41.350  -9.722   4.363  1.00  0.00     0.220 C 
HETATM   17  N   UNL     1      41.522  -9.291   3.088  1.00  0.00    -0.357 N 
HETATM   18  H   UNL     1      42.481  -9.335   2.763  1.00  0.00     0.162 HD
HETATM   19  O   UNL     1      42.333 -10.165   4.962  1.00  0.00    -0.274 OA
BRANCH  17  20
HETATM   20  C   UNL     1      40.573  -8.592   2.245  1.00  0.00     0.161 C 
BRANCH  20  21
HETATM   21  C   UNL     1      40.428  -9.274   0.908  1.00  0.00    -0.038 A 
HETATM   22  C   UNL     1      39.172  -9.341   0.282  1.00  0.00     0.048 A 
HETATM   23  C   UNL     1      39.088  -9.964  -0.947  1.00  0.00     0.105 A 
HETATM   24  C   UNL     1      40.190 -10.505  -1.563  1.00  0.00     0.105 A 
HETATM   25  O   UNL     1      37.955 -10.118  -1.682  1.00  0.00    -0.323 OA
HETATM   26  O   UNL     1      39.891 -11.065  -2.765  1.00  0.00    -0.323 OA
HETATM   27  C   UNL     1      41.440 -10.458  -0.984  1.00  0.00     0.040 A 
HETATM   28  C   UNL     1      38.469 -10.824  -2.829  1.00  0.00     0.352 A 
HETATM   29  C   UNL     1      41.556  -9.841   0.266  1.00  0.00     0.012 A 
ENDBRANCH  20  21
ENDBRANCH  17  20
ENDBRANCH  15  16
ENDBRANCH  12  15
BRANCH   6  30
HETATM   30  S   UNL     1      41.108 -14.764   6.378  1.00  0.00    -0.082 SA
BRANCH  30  31
HETATM   31  C   UNL     1      42.874 -14.486   6.011  1.00  0.00     0.185 C 
BRANCH  31  32
HETATM   32  C   UNL     1      43.638 -15.794   5.792  1.00  0.00     0.232 C 
HETATM   33  N   UNL     1      43.006 -16.649   4.896  1.00  0.00    -0.324 N 
HETATM   34  H   UNL     1      42.132 -16.317   4.481  1.00  0.00     0.169 HD
HETATM   35  O   UNL     1      44.684 -16.003   6.395  1.00  0.00    -0.272 OA
BRANCH  33  36
HETATM   36  C   UNL     1      43.382 -17.956   4.492  1.00  0.00     0.073 A 
HETATM   37  C   UNL     1      43.573 -18.407   3.182  1.00  0.00     0.143 A 
HETATM   38  F   UNL     1      43.372 -17.628   2.114  1.00  0.00    -0.204 F 
HETATM   39  C   UNL     1      43.947 -19.729   2.920  1.00  0.00     0.044 A 
HETATM   40  C   UNL     1      44.138 -20.632   3.963  1.00  0.00     0.003 A 
HETATM   41  C   UNL     1      43.950 -20.208   5.272  1.00  0.00     0.002 A 
HETATM   42  C   UNL     1      43.574 -18.885   5.532  1.00  0.00     0.033 A 
ENDBRANCH  33  36
ENDBRANCH  31  32
ENDBRANCH  30  31
ENDBRANCH   6  30
TORSDOF 8
ENDMDL
MODEL 9
REMARK VINA RESULT:      -9.1      2.552      4.785
REMARK  8 active torsions:
REMARK  status: ('A' for Active; 'I' for Inactive)
REMARK    1  A    between atoms: C_6  and  S_7 
REMARK    2  A    between atoms: S_7  and  C_8 
REMARK    3  A    between atoms: C_8  and  C_9 
REMARK       I    between atoms: C_9  and  N_10 
REMARK    4  A    between atoms: N_10  and  C_11 
REMARK    5  A    between atoms: C_24  and  C_25 
REMARK    6  A    between atoms: C_25  and  C_26 
REMARK       I    between atoms: C_26  and  N_27 
REMARK    7  A    between atoms: N_27  and  C_28 
REMARK    8  A    between atoms: C_28  and  C_29 
ROOT
HETATM    1  C   UNL     1      46.101 -11.051   7.036  1.00  0.00     0.001 A 
HETATM    2  C   UNL     1      45.037 -11.752   6.467  1.00  0.00     0.018 A 
HETATM    3  C   UNL     1      43.732 -11.317   6.701  1.00  0.00     0.039 A 
HETATM    4  C   UNL     1      43.475 -10.187   7.486  1.00  0.00     0.073 A 
HETATM    5  N   UNL     1      42.183  -9.681   7.667  1.00  0.00    -0.223 NA
HETATM    6  C   UNL     1      41.196 -10.317   7.129  1.00  0.00     0.178 C 
HETATM    7  N   UNL     1      41.335 -11.524   6.461  1.00  0.00    -0.241 N 
HETATM    8  C   UNL     1      42.564 -12.020   6.160  1.00  0.00     0.147 A 
HETATM    9  N   UNL     1      42.616 -13.080   5.406  1.00  0.00    -0.256 NA
HETATM   10  C   UNL     1      40.397 -12.370   5.919  1.00  0.00     0.257 A 
HETATM   11  O   UNL     1      39.177 -12.337   5.968  1.00  0.00    -0.270 OA
HETATM   12  C   UNL     1      41.184 -13.440   5.187  1.00  0.00     0.211 A 
HETATM   13  C   UNL     1      44.548  -9.499   8.053  1.00  0.00     0.032 A 
HETATM   14  C   UNL     1      45.856  -9.931   7.832  1.00  0.00     0.002 A 
ENDROOT
BRANCH  12  15
HETATM   15  C   UNL     1      40.821 -13.515   3.705  1.00  0.00     0.140 C 
BRANCH  15  16
HETATM   16  C   UNL     1      40.623 -14.943   3.222  1.00  0.00     0.220 C 
HETATM   17  N   UNL     1      40.793 -15.249   1.911  1.00  0.00    -0.357 N 
HETATM   18  H   UNL     1      40.679 -16.234   1.700  1.00  0.00     0.162 HD
HETATM   19  O   UNL     1      40.299 -15.850   3.993  1.00  0.00    -0.274 OA
BRANCH  17  20
HETATM   20  C   UNL     1      41.319 -14.407   0.857  1.00  0.00     0.161 C 
BRANCH  20  21
HETATM   21  C   UNL     1      40.212 -13.879  -0.021  1.00  0.00    -0.038 A 
HETATM   22  C   UNL     1      39.677 -12.601   0.210  1.00  0.00     0.048 A 
HETATM   23  C   UNL     1      38.674 -12.154  -0.626  1.00  0.00     0.105 A 
HETATM   24  C   UNL     1      38.201 -12.917  -1.666  1.00  0.00     0.105 A 
HETATM   25  O   UNL     1      38.048 -10.950  -0.541  1.00  0.00    -0.323 OA
HETATM   26  O   UNL     1      37.219 -12.290  -2.367  1.00  0.00    -0.323 OA
HETATM   27  C   UNL     1      38.700 -14.175  -1.927  1.00  0.00     0.040 A 
HETATM   28  C   UNL     1      37.120 -11.047  -1.641  1.00  0.00     0.352 A 
HETATM   29  C   UNL     1      39.711 -14.660  -1.091  1.00  0.00     0.012 A 
ENDBRANCH  20  21
ENDBRANCH  17  20
ENDBRANCH  15  16
ENDBRANCH  12  15
BRANCH   6  30
HETATM   30  S   UNL     1      39.638  -9.537   7.164  1.00  0.00    -0.082 SA
BRANCH  30  31
HETATM   31  C   UNL     1      39.072 -10.152   8.786  1.00  0.00     0.185 C 
BRANCH  31  32
HETATM   32  C   UNL     1      39.522  -9.255   9.941  1.00  0.00     0.232 C 
HETATM   33  N   UNL     1      40.678  -9.710  10.563  1.00  0.00    -0.324 N 
HETATM   34  H   UNL     1      41.100 -10.563  10.186  1.00  0.00     0.169 HD
HETATM   35  O   UNL     1      38.867  -8.263  10.240  1.00  0.00    -0.272 OA
BRANCH  33  36
HETATM   36  C   UNL     1      41.354  -9.179  11.693  1.00  0.00     0.073 A 
HETATM   37  C   UNL     1      42.489  -8.363  11.683  1.00  0.00     0.143 A 
HETATM   38  F   UNL     1      43.117  -8.013  10.556  1.00  0.00    -0.204 F 
HETATM   39  C   UNL     1      43.059  -7.902  12.875  1.00  0.00     0.044 A 
HETATM   40  C   UNL     1      42.505  -8.249  14.105  1.00  0.00     0.003 A 
HETATM   41  C   UNL     1      41.379  -9.062  14.139  1.00  0.00     0.002 A 
HETATM   42  C   UNL     1      40.812  -9.523  12.945  1.00  0.00     0.033 A 
ENDBRANCH  33  36
ENDBRANCH  31  32
ENDBRANCH  30  31
ENDBRANCH   6  30
TORSDOF 8
ENDMDL
MODEL 10
REMARK VINA RESULT:      -9.0      6.071      8.712
REMARK  8 active torsions:
REMARK  status: ('A' for Active; 'I' for Inactive)
REMARK    1  A    between atoms: C_6  and  S_7 
REMARK    2  A    between atoms: S_7  and  C_8 
REMARK    3  A    between atoms: C_8  and  C_9 
REMARK       I    between atoms: C_9  and  N_10 
REMARK    4  A    between atoms: N_10  and  C_11 
REMARK    5  A    between atoms: C_24  and  C_25 
REMARK    6  A    between atoms: C_25  and  C_26 
REMARK       I    between atoms: C_26  and  N_27 
REMARK    7  A    between atoms: N_27  and  C_28 
REMARK    8  A    between atoms: C_28  and  C_29 
ROOT
HETATM    1  C   UNL     1      39.146 -14.711  -2.626  1.00  0.00     0.001 A 
HETATM    2  C   UNL     1      39.905 -14.228  -1.560  1.00  0.00     0.018 A 
HETATM    3  C   UNL     1      39.449 -13.118  -0.847  1.00  0.00     0.039 A 
HETATM    4  C   UNL     1      38.243 -12.491  -1.178  1.00  0.00     0.073 A 
HETATM    5  N   UNL     1      37.722 -11.430  -0.427  1.00  0.00    -0.223 NA
HETATM    6  C   UNL     1      38.413 -10.990   0.571  1.00  0.00     0.178 C 
HETATM    7  N   UNL     1      39.684 -11.448   0.884  1.00  0.00    -0.241 N 
HETATM    8  C   UNL     1      40.207 -12.539   0.267  1.00  0.00     0.147 A 
HETATM    9  N   UNL     1      41.341 -12.996   0.714  1.00  0.00    -0.256 NA
HETATM   10  C   UNL     1      40.584 -11.033   1.838  1.00  0.00     0.257 A 
HETATM   11  O   UNL     1      40.548 -10.081   2.601  1.00  0.00    -0.270 OA
HETATM   12  C   UNL     1      41.724 -12.031   1.786  1.00  0.00     0.211 A 
HETATM   13  C   UNL     1      37.497 -12.980  -2.250  1.00  0.00     0.032 A 
HETATM   14  C   UNL     1      37.948 -14.084  -2.975  1.00  0.00     0.002 A 
ENDROOT
BRANCH  12  15
HETATM   15  C   UNL     1      41.957 -12.716   3.132  1.00  0.00     0.140 C 
BRANCH  15  16
HETATM   16  C   UNL     1      41.105 -13.961   3.312  1.00  0.00     0.220 C 
HETATM   17  N   UNL     1      41.670 -15.192   3.225  1.00  0.00    -0.357 N 
HETATM   18  H   UNL     1      41.025 -15.955   3.401  1.00  0.00     0.162 HD
HETATM   19  O   UNL     1      39.893 -13.893   3.530  1.00  0.00    -0.274 OA
BRANCH  17  20
HETATM   20  C   UNL     1      43.076 -15.527   3.137  1.00  0.00     0.161 C 
BRANCH  20  21
HETATM   21  C   UNL     1      43.284 -17.020   3.185  1.00  0.00    -0.038 A 
HETATM   22  C   UNL     1      43.688 -17.638   4.380  1.00  0.00     0.048 A 
HETATM   23  C   UNL     1      43.854 -19.008   4.382  1.00  0.00     0.105 A 
HETATM   24  C   UNL     1      43.629 -19.768   3.260  1.00  0.00     0.105 A 
HETATM   25  O   UNL     1      44.242 -19.759   5.447  1.00  0.00    -0.323 OA
HETATM   26  O   UNL     1      43.844 -21.093   3.477  1.00  0.00    -0.323 OA
HETATM   27  C   UNL     1      43.229 -19.201   2.069  1.00  0.00     0.040 A 
HETATM   28  C   UNL     1      44.243 -21.078   4.864  1.00  0.00     0.352 A 
HETATM   29  C   UNL     1      43.062 -17.813   2.033  1.00  0.00     0.012 A 
ENDBRANCH  20  21
ENDBRANCH  17  20
ENDBRANCH  15  16
ENDBRANCH  12  15
BRANCH   6  30
HETATM   30  S   UNL     1      37.636  -9.843   1.628  1.00  0.00    -0.082 SA
BRANCH  30  31
HETATM   31  C   UNL     1      37.657  -8.400   0.510  1.00  0.00     0.185 C 
BRANCH  31  32
HETATM   32  C   UNL     1      39.040  -7.752   0.419  1.00  0.00     0.232 C 
HETATM   33  N   UNL     1      39.673  -7.990  -0.795  1.00  0.00    -0.324 N 
HETATM   34  H   UNL     1      39.157  -8.545  -1.482  1.00  0.00     0.169 HD
HETATM   35  O   UNL     1      39.485  -7.118   1.369  1.00  0.00    -0.272 OA
BRANCH  33  36
HETATM   36  C   UNL     1      40.971  -7.602  -1.218  1.00  0.00     0.073 A 
HETATM   37  C   UNL     1      42.134  -8.379  -1.175  1.00  0.00     0.143 A 
HETATM   38  F   UNL     1      42.157  -9.615  -0.668  1.00  0.00    -0.204 F 
HETATM   39  C   UNL     1      43.357  -7.873  -1.628  1.00  0.00     0.044 A 
HETATM   40  C   UNL     1      43.446  -6.579  -2.134  1.00  0.00     0.003 A 
HETATM   41  C   UNL     1      42.304  -5.788  -2.182  1.00  0.00     0.002 A 
HETATM   42  C   UNL     1      41.082  -6.295  -1.727  1.00  0.00     0.033 A 
ENDBRANCH  33  36
ENDBRANCH  31  32
ENDBRANCH  30  31
ENDBRANCH   6  30
TORSDOF 8
ENDMDL
