MODEL 1
REMARK VINA RESULT:      -9.4      0.000      0.000
REMARK  4 active torsions:
REMARK  status: ('A' for Active; 'I' for Inactive)
REMARK    1  A    between atoms: C_5  and  C_6 
REMARK    2  A    between atoms: C_8  and  O_9 
REMARK    3  A    between atoms: C_15  and  C_16 
REMARK       I    between atoms: C_16  and  N_17 
REMARK    4  A    between atoms: N_17  and  C_18 
ROOT
HETATM    1  C   UNL     1      40.051 -12.856   5.454  1.00  0.00     0.071 C 
HETATM    2  C   UNL     1      41.432 -12.796   5.984  1.00  0.00     0.041 A 
HETATM    3  N   UNL     1      42.018 -11.637   6.423  1.00  0.00    -0.342 N 
HETATM    4  H   UNL     1      41.580 -10.728   6.454  1.00  0.00     0.167 HD
HETATM    5  C   UNL     1      43.303 -11.915   6.833  1.00  0.00     0.139 A 
HETATM    6  N   UNL     1      43.538 -13.210   6.721  1.00  0.00    -0.223 NA
HETATM    7  C   UNL     1      42.395 -13.772   6.161  1.00  0.00     0.149 A 
ENDROOT
BRANCH   7   8
HETATM    8  C   UNL     1      42.299 -15.200   5.828  1.00  0.00     0.276 C 
HETATM    9  N   UNL     1      43.126 -15.517   4.771  1.00  0.00    -0.322 N 
HETATM   10  H   UNL     1      43.682 -14.732   4.439  1.00  0.00     0.169 HD
HETATM   11  O   UNL     1      41.565 -15.966   6.444  1.00  0.00    -0.266 OA
BRANCH   9  12
HETATM   12  C   UNL     1      43.276 -16.754   4.120  1.00  0.00     0.035 A 
HETATM   13  C   UNL     1      43.738 -17.909   4.757  1.00  0.00     0.039 A 
HETATM   14  C   UNL     1      43.822 -19.085   4.026  1.00  0.00    -0.024 A 
HETATM   15  C   UNL     1      43.475 -19.130   2.686  1.00  0.00    -0.026 A 
HETATM   16  C   UNL     1      44.274 -20.429   4.464  1.00  0.00     0.207 C 
HETATM   17  C   UNL     1      43.695 -20.503   2.169  1.00  0.00     0.207 C 
HETATM   18  C   UNL     1      43.026 -18.000   2.029  1.00  0.00     0.012 A 
HETATM   19  O   UNL     1      43.983 -21.298   3.343  1.00  0.00    -0.382 OA
HETATM   20  C   UNL     1      42.919 -16.811   2.758  1.00  0.00     0.030 A 
ENDBRANCH   9  12
ENDBRANCH   7   8
BRANCH   5  21
HETATM   21  C   UNL     1      44.236 -10.904   7.337  1.00  0.00     0.013 A 
HETATM   22  C   UNL     1      43.794  -9.652   7.801  1.00  0.00     0.052 A 
HETATM   23  C   UNL     1      44.707  -8.702   8.272  1.00  0.00     0.069 A 
HETATM   24  C   UNL     1      46.069  -9.008   8.285  1.00  0.00     0.037 A 
HETATM   25  C   UNL     1      46.523 -10.239   7.817  1.00  0.00     0.004 A 
HETATM   26  C   UNL     1      45.610 -11.179   7.340  1.00  0.00     0.015 A 
BRANCH  23  27
HETATM   27  O   UNL     1      44.398  -7.455   8.743  1.00  0.00    -0.356 OA
HETATM   28  C   UNL     1      43.022  -7.166   8.957  1.00  0.00     0.210 C 
ENDBRANCH  23  27
ENDBRANCH   5  21
TORSDOF 4
ENDMDL
MODEL 2
REMARK VINA RESULT:      -8.3      3.475      5.421
REMARK  4 active torsions:
REMARK  status: ('A' for Active; 'I' for Inactive)
REMARK    1  A    between atoms: C_5  and  C_6 
REMARK    2  A    between atoms: C_8  and  O_9 
REMARK    3  A    between atoms: C_15  and  C_16 
REMARK       I    between atoms: C_16  and  N_17 
REMARK    4  A    between atoms: N_17  and  C_18 
ROOT
HETATM    1  C   UNL     1      46.621  -9.147   7.951  1.00  0.00     0.071 C 
HETATM    2  C   UNL     1      45.443  -9.625   8.710  1.00  0.00     0.041 A 
HETATM    3  N   UNL     1      44.989  -9.018   9.852  1.00  0.00    -0.342 N 
HETATM    4  H   UNL     1      45.381  -8.191  10.277  1.00  0.00     0.167 HD
HETATM    5  C   UNL     1      43.896  -9.711  10.321  1.00  0.00     0.139 A 
HETATM    6  N   UNL     1      43.607 -10.702   9.496  1.00  0.00    -0.223 NA
HETATM    7  C   UNL     1      44.580 -10.686   8.502  1.00  0.00     0.149 A 
ENDROOT
BRANCH   7   8
HETATM    8  C   UNL     1      44.627 -11.684   7.425  1.00  0.00     0.276 C 
HETATM    9  N   UNL     1      43.482 -12.454   7.415  1.00  0.00    -0.322 N 
HETATM   10  H   UNL     1      42.798 -12.174   8.114  1.00  0.00     0.169 HD
HETATM   11  O   UNL     1      45.581 -11.775   6.661  1.00  0.00    -0.266 OA
BRANCH   9  12
HETATM   12  C   UNL     1      43.170 -13.544   6.585  1.00  0.00     0.035 A 
HETATM   13  C   UNL     1      42.859 -13.415   5.229  1.00  0.00     0.039 A 
HETATM   14  C   UNL     1      42.593 -14.562   4.494  1.00  0.00    -0.024 A 
HETATM   15  C   UNL     1      42.613 -15.817   5.080  1.00  0.00    -0.026 A 
HETATM   16  C   UNL     1      42.242 -14.694   3.059  1.00  0.00     0.207 C 
HETATM   17  C   UNL     1      42.264 -16.838   4.062  1.00  0.00     0.207 C 
HETATM   18  C   UNL     1      42.908 -15.971   6.422  1.00  0.00     0.012 A 
HETATM   19  O   UNL     1      42.252 -16.120   2.806  1.00  0.00    -0.382 OA
HETATM   20  C   UNL     1      43.195 -14.826   7.171  1.00  0.00     0.030 A 
ENDBRANCH   9  12
ENDBRANCH   7   8
BRANCH   5  21
HETATM   21  C   UNL     1      43.170  -9.361  11.544  1.00  0.00     0.013 A 
HETATM   22  C   UNL     1      42.035 -10.079  11.964  1.00  0.00     0.052 A 
HETATM   23  C   UNL     1      41.357  -9.720  13.134  1.00  0.00     0.069 A 
HETATM   24  C   UNL     1      41.819  -8.643  13.892  1.00  0.00     0.037 A 
HETATM   25  C   UNL     1      42.934  -7.915  13.483  1.00  0.00     0.004 A 
HETATM   26  C   UNL     1      43.601  -8.271  12.311  1.00  0.00     0.015 A 
BRANCH  23  27
HETATM   27  O   UNL     1      40.245 -10.337  13.639  1.00  0.00    -0.356 OA
HETATM   28  C   UNL     1      39.297 -10.834  12.702  1.00  0.00     0.210 C 
ENDBRANCH  23  27
ENDBRANCH   5  21
TORSDOF 4
ENDMDL
MODEL 3
REMARK VINA RESULT:      -8.1      6.769      7.945
REMARK  4 active torsions:
REMARK  status: ('A' for Active; 'I' for Inactive)
REMARK    1  A    between atoms: C_5  and  C_6 
REMARK    2  A    between atoms: C_8  and  O_9 
REMARK    3  A    between atoms: C_15  and  C_16 
REMARK       I    between atoms: C_16  and  N_17 
REMARK    4  A    between atoms: N_17  and  C_18 
ROOT
HETATM    1  C   UNL     1      39.158 -14.673  -1.835  1.00  0.00     0.071 C 
HETATM    2  C   UNL     1      39.922 -13.487  -1.389  1.00  0.00     0.041 A 
HETATM    3  N   UNL     1      40.112 -12.378  -2.172  1.00  0.00    -0.342 N 
HETATM    4  H   UNL     1      39.746 -12.242  -3.103  1.00  0.00     0.167 HD
HETATM    5  C   UNL     1      40.875 -11.466  -1.477  1.00  0.00     0.139 A 
HETATM    6  N   UNL     1      41.132 -11.929  -0.266  1.00  0.00    -0.223 NA
HETATM    7  C   UNL     1      40.575 -13.202  -0.203  1.00  0.00     0.149 A 
ENDROOT
BRANCH   7   8
HETATM    8  C   UNL     1      40.706 -14.065   0.979  1.00  0.00     0.276 C 
HETATM    9  N   UNL     1      42.006 -14.502   1.129  1.00  0.00    -0.322 N 
HETATM   10  H   UNL     1      42.645 -14.125   0.434  1.00  0.00     0.169 HD
HETATM   11  O   UNL     1      39.753 -14.326   1.705  1.00  0.00    -0.266 OA
BRANCH   9  12
HETATM   12  C   UNL     1      42.524 -15.384   2.094  1.00  0.00     0.035 A 
HETATM   13  C   UNL     1      42.880 -16.706   1.817  1.00  0.00     0.039 A 
HETATM   14  C   UNL     1      43.408 -17.482   2.839  1.00  0.00    -0.024 A 
HETATM   15  C   UNL     1      43.570 -16.979   4.119  1.00  0.00    -0.026 A 
HETATM   16  C   UNL     1      43.858 -18.895   2.804  1.00  0.00     0.207 C 
HETATM   17  C   UNL     1      44.124 -18.040   4.996  1.00  0.00     0.207 C 
HETATM   18  C   UNL     1      43.215 -15.678   4.422  1.00  0.00     0.012 A 
HETATM   19  O   UNL     1      44.473 -19.118   4.096  1.00  0.00    -0.382 OA
HETATM   20  C   UNL     1      42.698 -14.878   3.398  1.00  0.00     0.030 A 
ENDBRANCH   9  12
ENDBRANCH   7   8
BRANCH   5  21
HETATM   21  C   UNL     1      41.300 -10.174  -2.020  1.00  0.00     0.013 A 
HETATM   22  C   UNL     1      40.856  -9.713  -3.272  1.00  0.00     0.052 A 
HETATM   23  C   UNL     1      41.282  -8.477  -3.771  1.00  0.00     0.069 A 
HETATM   24  C   UNL     1      42.151  -7.694  -3.009  1.00  0.00     0.037 A 
HETATM   25  C   UNL     1      42.609  -8.142  -1.772  1.00  0.00     0.004 A 
HETATM   26  C   UNL     1      42.189  -9.378  -1.284  1.00  0.00     0.015 A 
BRANCH  23  27
HETATM   27  O   UNL     1      40.923  -7.928  -4.971  1.00  0.00    -0.356 OA
HETATM   28  C   UNL     1      41.161  -6.536  -5.144  1.00  0.00     0.210 C 
ENDBRANCH  23  27
ENDBRANCH   5  21
TORSDOF 4
ENDMDL
MODEL 4
REMARK VINA RESULT:      -8.1      3.625     10.136
REMARK  4 active torsions:
REMARK  status: ('A' for Active; 'I' for Inactive)
REMARK    1  A    between atoms: C_5  and  C_6 
REMARK    2  A    between atoms: C_8  and  O_9 
REMARK    3  A    between atoms: C_15  and  C_16 
REMARK       I    between atoms: C_16  and  N_17 
REMARK    4  A    between atoms: N_17  and  C_18 
ROOT
HETATM    1  C   UNL     1      46.562  -9.250   7.900  1.00  0.00     0.071 C 
HETATM    2  C   UNL     1      45.525 -10.290   7.717  1.00  0.00     0.041 A 
HETATM    3  N   UNL     1      45.260 -10.882   6.509  1.00  0.00    -0.342 N 
HETATM    4  H   UNL     1      45.742 -10.695   5.641  1.00  0.00     0.167 HD
HETATM    5  C   UNL     1      44.235 -11.787   6.670  1.00  0.00     0.139 A 
HETATM    6  N   UNL     1      43.875 -11.832   7.941  1.00  0.00    -0.223 NA
HETATM    7  C   UNL     1      44.644 -10.882   8.604  1.00  0.00     0.149 A 
ENDROOT
BRANCH   7   8
HETATM    8  C   UNL     1      44.486 -10.597  10.037  1.00  0.00     0.276 C 
HETATM    9  N   UNL     1      43.259 -10.020  10.292  1.00  0.00    -0.322 N 
HETATM   10  H   UNL     1      42.670  -9.933   9.468  1.00  0.00     0.169 HD
HETATM   11  O   UNL     1      45.360 -10.860  10.855  1.00  0.00    -0.266 OA
BRANCH   9  12
HETATM   12  C   UNL     1      42.754  -9.549  11.517  1.00  0.00     0.035 A 
HETATM   13  C   UNL     1      43.356  -8.528  12.258  1.00  0.00     0.039 A 
HETATM   14  C   UNL     1      42.757  -8.123  13.442  1.00  0.00    -0.024 A 
HETATM   15  C   UNL     1      41.597  -8.718  13.906  1.00  0.00    -0.026 A 
HETATM   16  C   UNL     1      43.191  -7.074  14.398  1.00  0.00     0.207 C 
HETATM   17  C   UNL     1      41.213  -8.100  15.200  1.00  0.00     0.207 C 
HETATM   18  C   UNL     1      40.987  -9.737  13.199  1.00  0.00     0.012 A 
HETATM   19  O   UNL     1      42.101  -6.967  15.346  1.00  0.00    -0.382 OA
HETATM   20  C   UNL     1      41.569 -10.145  11.994  1.00  0.00     0.030 A 
ENDBRANCH   9  12
ENDBRANCH   7   8
BRANCH   5  21
HETATM   21  C   UNL     1      43.668 -12.584   5.579  1.00  0.00     0.013 A 
HETATM   22  C   UNL     1      43.150 -13.873   5.793  1.00  0.00     0.052 A 
HETATM   23  C   UNL     1      42.620 -14.615   4.733  1.00  0.00     0.069 A 
HETATM   24  C   UNL     1      42.600 -14.062   3.451  1.00  0.00     0.037 A 
HETATM   25  C   UNL     1      43.121 -12.790   3.221  1.00  0.00     0.004 A 
HETATM   26  C   UNL     1      43.657 -12.059   4.279  1.00  0.00     0.015 A 
BRANCH  23  27
HETATM   27  O   UNL     1      42.093 -15.875   4.817  1.00  0.00    -0.356 OA
HETATM   28  C   UNL     1      40.946 -16.152   4.024  1.00  0.00     0.210 C 
ENDBRANCH  23  27
ENDBRANCH   5  21
TORSDOF 4
ENDMDL
MODEL 5
REMARK VINA RESULT:      -8.0      4.486      6.588
REMARK  4 active torsions:
REMARK  status: ('A' for Active; 'I' for Inactive)
REMARK    1  A    between atoms: C_5  and  C_6 
REMARK    2  A    between atoms: C_8  and  O_9 
REMARK    3  A    between atoms: C_15  and  C_16 
REMARK       I    between atoms: C_16  and  N_17 
REMARK    4  A    between atoms: N_17  and  C_18 
ROOT
HETATM    1  C   UNL     1      43.912 -11.530   4.287  1.00  0.00     0.071 C 
HETATM    2  C   UNL     1      42.929 -11.947   3.262  1.00  0.00     0.041 A 
HETATM    3  N   UNL     1      42.424 -11.094   2.315  1.00  0.00    -0.342 N 
HETATM    4  H   UNL     1      42.674 -10.122   2.201  1.00  0.00     0.167 HD
HETATM    5  C   UNL     1      41.526 -11.781   1.529  1.00  0.00     0.139 A 
HETATM    6  N   UNL     1      41.480 -13.047   1.905  1.00  0.00    -0.223 NA
HETATM    7  C   UNL     1      42.323 -13.163   3.006  1.00  0.00     0.149 A 
ENDROOT
BRANCH   7   8
HETATM    8  C   UNL     1      42.491 -14.423   3.743  1.00  0.00     0.276 C 
HETATM    9  N   UNL     1      43.049 -15.395   2.939  1.00  0.00    -0.322 N 
HETATM   10  H   UNL     1      43.283 -15.066   2.005  1.00  0.00     0.169 HD
HETATM   11  O   UNL     1      42.164 -14.539   4.919  1.00  0.00    -0.266 OA
BRANCH   9  12
HETATM   12  C   UNL     1      43.313 -16.740   3.250  1.00  0.00     0.035 A 
HETATM   13  C   UNL     1      43.153 -17.788   2.340  1.00  0.00     0.039 A 
HETATM   14  C   UNL     1      43.469 -19.077   2.746  1.00  0.00    -0.024 A 
HETATM   15  C   UNL     1      43.917 -19.342   4.028  1.00  0.00    -0.026 A 
HETATM   16  C   UNL     1      43.389 -20.345   1.979  1.00  0.00     0.207 C 
HETATM   17  C   UNL     1      44.143 -20.801   4.177  1.00  0.00     0.207 C 
HETATM   18  C   UNL     1      44.073 -18.325   4.952  1.00  0.00     0.012 A 
HETATM   19  O   UNL     1      44.005 -21.334   2.839  1.00  0.00    -0.382 OA
HETATM   20  C   UNL     1      43.776 -17.018   4.553  1.00  0.00     0.030 A 
ENDBRANCH   9  12
ENDBRANCH   7   8
BRANCH   5  21
HETATM   21  C   UNL     1      40.769 -11.174   0.432  1.00  0.00     0.013 A 
HETATM   22  C   UNL     1      39.554 -11.718  -0.021  1.00  0.00     0.052 A 
HETATM   23  C   UNL     1      38.854 -11.122  -1.075  1.00  0.00     0.069 A 
HETATM   24  C   UNL     1      39.366  -9.971  -1.675  1.00  0.00     0.037 A 
HETATM   25  C   UNL     1      40.575  -9.427  -1.245  1.00  0.00     0.004 A 
HETATM   26  C   UNL     1      41.274 -10.030  -0.201  1.00  0.00     0.015 A 
BRANCH  23  27
HETATM   27  O   UNL     1      37.670 -11.561  -1.603  1.00  0.00    -0.356 OA
HETATM   28  C   UNL     1      37.644 -12.881  -2.130  1.00  0.00     0.210 C 
ENDBRANCH  23  27
ENDBRANCH   5  21
TORSDOF 4
ENDMDL
MODEL 6
REMARK VINA RESULT:      -8.0      2.218      2.435
REMARK  4 active torsions:
REMARK  status: ('A' for Active; 'I' for Inactive)
REMARK    1  A    between atoms: C_5  and  C_6 
REMARK    2  A    between atoms: C_8  and  O_9 
REMARK    3  A    between atoms: C_15  and  C_16 
REMARK       I    between atoms: C_16  and  N_17 
REMARK    4  A    between atoms: N_17  and  C_18 
ROOT
HETATM    1  C   UNL     1      41.357 -10.057   4.042  1.00  0.00     0.071 C 
HETATM    2  C   UNL     1      42.219 -10.556   5.137  1.00  0.00     0.041 A 
HETATM    3  N   UNL     1      42.391  -9.888   6.322  1.00  0.00    -0.342 N 
HETATM    4  H   UNL     1      41.946  -9.020   6.580  1.00  0.00     0.167 HD
HETATM    5  C   UNL     1      43.261 -10.603   7.114  1.00  0.00     0.139 A 
HETATM    6  N   UNL     1      43.607 -11.722   6.503  1.00  0.00    -0.223 NA
HETATM    7  C   UNL     1      42.994 -11.695   5.254  1.00  0.00     0.149 A 
ENDROOT
BRANCH   7   8
HETATM    8  C   UNL     1      43.192 -12.754   4.254  1.00  0.00     0.276 C 
HETATM    9  N   UNL     1      42.789 -13.979   4.746  1.00  0.00    -0.322 N 
HETATM   10  H   UNL     1      42.392 -13.931   5.682  1.00  0.00     0.169 HD
HETATM   11  O   UNL     1      43.654 -12.524   3.143  1.00  0.00    -0.266 OA
BRANCH   9  12
HETATM   12  C   UNL     1      42.869 -15.237   4.126  1.00  0.00     0.035 A 
HETATM   13  C   UNL     1      43.626 -16.298   4.630  1.00  0.00     0.039 A 
HETATM   14  C   UNL     1      43.613 -17.508   3.950  1.00  0.00    -0.024 A 
HETATM   15  C   UNL     1      42.884 -17.675   2.785  1.00  0.00    -0.026 A 
HETATM   16  C   UNL     1      44.321 -18.771   4.274  1.00  0.00     0.207 C 
HETATM   17  C   UNL     1      43.086 -19.054   2.274  1.00  0.00     0.207 C 
HETATM   18  C   UNL     1      42.135 -16.639   2.259  1.00  0.00     0.012 A 
HETATM   19  O   UNL     1      43.801 -19.737   3.329  1.00  0.00    -0.382 OA
HETATM   20  C   UNL     1      42.125 -15.418   2.942  1.00  0.00     0.030 A 
ENDBRANCH   9  12
ENDBRANCH   7   8
BRANCH   5  21
HETATM   21  C   UNL     1      43.699 -10.170   8.444  1.00  0.00     0.013 A 
HETATM   22  C   UNL     1      42.849  -9.456   9.308  1.00  0.00     0.052 A 
HETATM   23  C   UNL     1      43.294  -9.049  10.570  1.00  0.00     0.069 A 
HETATM   24  C   UNL     1      44.593  -9.364  10.975  1.00  0.00     0.037 A 
HETATM   25  C   UNL     1      45.450 -10.060  10.125  1.00  0.00     0.004 A 
HETATM   26  C   UNL     1      45.005 -10.455   8.864  1.00  0.00     0.015 A 
BRANCH  23  27
HETATM   27  O   UNL     1      42.564  -8.349  11.493  1.00  0.00    -0.356 OA
HETATM   28  C   UNL     1      42.610  -8.808  12.838  1.00  0.00     0.210 C 
ENDBRANCH  23  27
ENDBRANCH   5  21
TORSDOF 4
ENDMDL
MODEL 7
REMARK VINA RESULT:      -8.0      5.181      6.642
REMARK  4 active torsions:
REMARK  status: ('A' for Active; 'I' for Inactive)
REMARK    1  A    between atoms: C_5  and  C_6 
REMARK    2  A    between atoms: C_8  and  O_9 
REMARK    3  A    between atoms: C_15  and  C_16 
REMARK       I    between atoms: C_16  and  N_17 
REMARK    4  A    between atoms: N_17  and  C_18 
ROOT
HETATM    1  C   UNL     1      40.187 -12.415   4.087  1.00  0.00     0.071 C 
HETATM    2  C   UNL     1      40.506 -12.650   2.660  1.00  0.00     0.041 A 
HETATM    3  N   UNL     1      40.530 -11.652   1.721  1.00  0.00    -0.342 N 
HETATM    4  H   UNL     1      40.359 -10.672   1.896  1.00  0.00     0.167 HD
HETATM    5  C   UNL     1      40.841 -12.198   0.497  1.00  0.00     0.139 A 
HETATM    6  N   UNL     1      41.067 -13.493   0.629  1.00  0.00    -0.223 NA
HETATM    7  C   UNL     1      40.830 -13.801   1.965  1.00  0.00     0.149 A 
ENDROOT
BRANCH   7   8
HETATM    8  C   UNL     1      40.924 -15.171   2.490  1.00  0.00     0.276 C 
HETATM    9  N   UNL     1      42.239 -15.580   2.569  1.00  0.00    -0.322 N 
HETATM   10  H   UNL     1      42.906 -14.861   2.298  1.00  0.00     0.169 HD
HETATM   11  O   UNL     1      39.932 -15.819   2.803  1.00  0.00    -0.266 OA
BRANCH   9  12
HETATM   12  C   UNL     1      42.741 -16.832   2.962  1.00  0.00     0.035 A 
HETATM   13  C   UNL     1      42.731 -17.960   2.136  1.00  0.00     0.039 A 
HETATM   14  C   UNL     1      43.277 -19.142   2.616  1.00  0.00    -0.024 A 
HETATM   15  C   UNL     1      43.811 -19.227   3.890  1.00  0.00    -0.026 A 
HETATM   16  C   UNL     1      43.388 -20.461   1.945  1.00  0.00     0.207 C 
HETATM   17  C   UNL     1      44.289 -20.611   4.130  1.00  0.00     0.207 C 
HETATM   18  C   UNL     1      43.824 -18.130   4.731  1.00  0.00     0.012 A 
HETATM   19  O   UNL     1      44.195 -21.263   2.841  1.00  0.00    -0.382 OA
HETATM   20  C   UNL     1      43.292 -16.927   4.256  1.00  0.00     0.030 A 
ENDBRANCH   9  12
ENDBRANCH   7   8
BRANCH   5  21
HETATM   21  C   UNL     1      40.924 -11.426  -0.746  1.00  0.00     0.013 A 
HETATM   22  C   UNL     1      41.414 -10.108  -0.768  1.00  0.00     0.052 A 
HETATM   23  C   UNL     1      41.478  -9.390  -1.967  1.00  0.00     0.069 A 
HETATM   24  C   UNL     1      41.056  -9.996  -3.152  1.00  0.00     0.037 A 
HETATM   25  C   UNL     1      40.557 -11.297  -3.144  1.00  0.00     0.004 A 
HETATM   26  C   UNL     1      40.487 -12.004  -1.945  1.00  0.00     0.015 A 
BRANCH  23  27
HETATM   27  O   UNL     1      41.930  -8.107  -2.112  1.00  0.00    -0.356 OA
HETATM   28  C   UNL     1      43.058  -7.725  -1.336  1.00  0.00     0.210 C 
ENDBRANCH  23  27
ENDBRANCH   5  21
TORSDOF 4
ENDMDL
MODEL 8
REMARK VINA RESULT:      -7.9      4.284      8.689
REMARK  4 active torsions:
REMARK  status: ('A' for Active; 'I' for Inactive)
REMARK    1  A    between atoms: C_5  and  C_6 
REMARK    2  A    between atoms: C_8  and  O_9 
REMARK    3  A    between atoms: C_15  and  C_16 
REMARK       I    between atoms: C_16  and  N_17 
REMARK    4  A    between atoms: N_17  and  C_18 
ROOT
HETATM    1  C   UNL     1      42.847 -12.984   5.806  1.00  0.00     0.071 C 
HETATM    2  C   UNL     1      42.799 -14.240   5.023  1.00  0.00     0.041 A 
HETATM    3  N   UNL     1      43.193 -15.453   5.524  1.00  0.00    -0.342 N 
HETATM    4  H   UNL     1      43.528 -15.625   6.461  1.00  0.00     0.167 HD
HETATM    5  C   UNL     1      43.042 -16.410   4.546  1.00  0.00     0.139 A 
HETATM    6  N   UNL     1      42.521 -15.864   3.462  1.00  0.00    -0.223 NA
HETATM    7  C   UNL     1      42.393 -14.505   3.728  1.00  0.00     0.149 A 
ENDROOT
BRANCH   7   8
HETATM    8  C   UNL     1      41.898 -13.547   2.729  1.00  0.00     0.276 C 
HETATM    9  N   UNL     1      40.708 -13.979   2.179  1.00  0.00    -0.322 N 
HETATM   10  H   UNL     1      40.363 -14.846   2.584  1.00  0.00     0.169 HD
HETATM   11  O   UNL     1      42.501 -12.514   2.460  1.00  0.00    -0.266 OA
BRANCH   9  12
HETATM   12  C   UNL     1      39.951 -13.381   1.157  1.00  0.00     0.035 A 
HETATM   13  C   UNL     1      39.872 -13.889  -0.142  1.00  0.00     0.039 A 
HETATM   14  C   UNL     1      39.073 -13.233  -1.067  1.00  0.00    -0.024 A 
HETATM   15  C   UNL     1      38.374 -12.085  -0.734  1.00  0.00    -0.026 A 
HETATM   16  C   UNL     1      38.822 -13.567  -2.491  1.00  0.00     0.207 C 
HETATM   17  C   UNL     1      37.637 -11.597  -1.925  1.00  0.00     0.207 C 
HETATM   18  C   UNL     1      38.443 -11.555   0.541  1.00  0.00     0.012 A 
HETATM   19  O   UNL     1      37.780 -12.650  -2.906  1.00  0.00    -0.382 OA
HETATM   20  C   UNL     1      39.231 -12.215   1.490  1.00  0.00     0.030 A 
ENDBRANCH   9  12
ENDBRANCH   7   8
BRANCH   5  21
HETATM   21  C   UNL     1      43.395 -17.822   4.723  1.00  0.00     0.013 A 
HETATM   22  C   UNL     1      43.549 -18.690   3.627  1.00  0.00     0.052 A 
HETATM   23  C   UNL     1      43.880 -20.035   3.823  1.00  0.00     0.069 A 
HETATM   24  C   UNL     1      44.068 -20.513   5.122  1.00  0.00     0.037 A 
HETATM   25  C   UNL     1      43.908 -19.667   6.217  1.00  0.00     0.004 A 
HETATM   26  C   UNL     1      43.568 -18.330   6.017  1.00  0.00     0.015 A 
BRANCH  23  27
HETATM   27  O   UNL     1      44.052 -20.972   2.841  1.00  0.00    -0.356 OA
HETATM   28  C   UNL     1      43.739 -20.580   1.510  1.00  0.00     0.210 C 
ENDBRANCH  23  27
ENDBRANCH   5  21
TORSDOF 4
ENDMDL
MODEL 9
REMARK VINA RESULT:      -7.8      1.729      9.511
REMARK  4 active torsions:
REMARK  status: ('A' for Active; 'I' for Inactive)
REMARK    1  A    between atoms: C_5  and  C_6 
REMARK    2  A    between atoms: C_8  and  O_9 
REMARK    3  A    between atoms: C_15  and  C_16 
REMARK       I    between atoms: C_16  and  N_17 
REMARK    4  A    between atoms: N_17  and  C_18 
ROOT
HETATM    1  C   UNL     1      39.679 -12.962   5.150  1.00  0.00     0.071 C 
HETATM    2  C   UNL     1      40.949 -13.640   4.806  1.00  0.00     0.041 A 
HETATM    3  N   UNL     1      41.018 -14.953   4.419  1.00  0.00    -0.342 N 
HETATM    4  H   UNL     1      40.233 -15.579   4.308  1.00  0.00     0.167 HD
HETATM    5  C   UNL     1      42.335 -15.282   4.189  1.00  0.00     0.139 A 
HETATM    6  N   UNL     1      43.098 -14.217   4.365  1.00  0.00    -0.223 NA
HETATM    7  C   UNL     1      42.257 -13.192   4.782  1.00  0.00     0.149 A 
ENDROOT
BRANCH   7   8
HETATM    8  C   UNL     1      42.754 -11.855   5.135  1.00  0.00     0.276 C 
HETATM    9  N   UNL     1      42.514 -11.575   6.465  1.00  0.00    -0.322 N 
HETATM   10  H   UNL     1      42.082 -12.344   6.972  1.00  0.00     0.169 HD
HETATM   11  O   UNL     1      43.306 -11.127   4.318  1.00  0.00    -0.266 OA
BRANCH   9  12
HETATM   12  C   UNL     1      42.783 -10.389   7.169  1.00  0.00     0.035 A 
HETATM   13  C   UNL     1      42.081  -9.197   6.968  1.00  0.00     0.039 A 
HETATM   14  C   UNL     1      42.412  -8.091   7.738  1.00  0.00    -0.024 A 
HETATM   15  C   UNL     1      43.426  -8.142   8.679  1.00  0.00    -0.026 A 
HETATM   16  C   UNL     1      41.825  -6.728   7.719  1.00  0.00     0.207 C 
HETATM   17  C   UNL     1      43.567  -6.811   9.319  1.00  0.00     0.207 C 
HETATM   18  C   UNL     1      44.143  -9.304   8.891  1.00  0.00     0.012 A 
HETATM   19  O   UNL     1      42.432  -6.050   8.845  1.00  0.00    -0.382 OA
HETATM   20  C   UNL     1      43.810 -10.433   8.134  1.00  0.00     0.030 A 
ENDBRANCH   9  12
ENDBRANCH   7   8
BRANCH   5  21
HETATM   21  C   UNL     1      42.787 -16.616   3.788  1.00  0.00     0.013 A 
HETATM   22  C   UNL     1      43.523 -17.443   4.656  1.00  0.00     0.052 A 
HETATM   23  C   UNL     1      43.947 -18.711   4.246  1.00  0.00     0.069 A 
HETATM   24  C   UNL     1      43.627 -19.160   2.963  1.00  0.00     0.037 A 
HETATM   25  C   UNL     1      42.909 -18.348   2.088  1.00  0.00     0.004 A 
HETATM   26  C   UNL     1      42.497 -17.081   2.498  1.00  0.00     0.015 A 
BRANCH  23  27
HETATM   27  O   UNL     1      44.668 -19.599   4.997  1.00  0.00    -0.356 OA
HETATM   28  C   UNL     1      44.029 -20.820   5.348  1.00  0.00     0.210 C 
ENDBRANCH  23  27
ENDBRANCH   5  21
TORSDOF 4
ENDMDL
MODEL 10
REMARK VINA RESULT:      -7.7      2.416      9.955
REMARK  4 active torsions:
REMARK  status: ('A' for Active; 'I' for Inactive)
REMARK    1  A    between atoms: C_5  and  C_6 
REMARK    2  A    between atoms: C_8  and  O_9 
REMARK    3  A    between atoms: C_15  and  C_16 
REMARK       I    between atoms: C_16  and  N_17 
REMARK    4  A    between atoms: N_17  and  C_18 
ROOT
HETATM    1  C   UNL     1      42.565 -10.485   5.274  1.00  0.00     0.071 C 
HETATM    2  C   UNL     1      43.068 -11.705   5.945  1.00  0.00     0.041 A 
HETATM    3  N   UNL     1      42.943 -12.961   5.410  1.00  0.00    -0.342 N 
HETATM    4  H   UNL     1      42.526 -13.185   4.518  1.00  0.00     0.167 HD
HETATM    5  C   UNL     1      43.494 -13.873   6.282  1.00  0.00     0.139 A 
HETATM    6  N   UNL     1      44.009 -13.243   7.323  1.00  0.00    -0.223 NA
HETATM    7  C   UNL     1      43.724 -11.893   7.147  1.00  0.00     0.149 A 
ENDROOT
BRANCH   7   8
HETATM    8  C   UNL     1      44.091 -10.872   8.139  1.00  0.00     0.276 C 
HETATM    9  N   UNL     1      43.037 -10.609   8.989  1.00  0.00    -0.322 N 
HETATM   10  H   UNL     1      42.218 -11.187   8.814  1.00  0.00     0.169 HD
HETATM   11  O   UNL     1      45.203 -10.357   8.164  1.00  0.00    -0.266 OA
BRANCH   9  12
HETATM   12  C   UNL     1      42.967  -9.663  10.026  1.00  0.00     0.035 A 
HETATM   13  C   UNL     1      42.692  -8.308   9.817  1.00  0.00     0.039 A 
HETATM   14  C   UNL     1      42.621  -7.466  10.917  1.00  0.00    -0.024 A 
HETATM   15  C   UNL     1      42.833  -7.934  12.202  1.00  0.00    -0.026 A 
HETATM   16  C   UNL     1      42.345  -6.008  10.962  1.00  0.00     0.207 C 
HETATM   17  C   UNL     1      42.721  -6.806  13.160  1.00  0.00     0.207 C 
HETATM   18  C   UNL     1      43.118  -9.266  12.436  1.00  0.00     0.012 A 
HETATM   19  O   UNL     1      42.219  -5.701  12.372  1.00  0.00    -0.382 OA
HETATM   20  C   UNL     1      43.176 -10.132  11.339  1.00  0.00     0.030 A 
ENDBRANCH   9  12
ENDBRANCH   7   8
BRANCH   5  21
HETATM   21  C   UNL     1      43.510 -15.320   6.049  1.00  0.00     0.013 A 
HETATM   22  C   UNL     1      43.530 -15.861   4.751  1.00  0.00     0.052 A 
HETATM   23  C   UNL     1      43.540 -17.246   4.556  1.00  0.00     0.069 A 
HETATM   24  C   UNL     1      43.538 -18.096   5.664  1.00  0.00     0.037 A 
HETATM   25  C   UNL     1      43.506 -17.574   6.956  1.00  0.00     0.004 A 
HETATM   26  C   UNL     1      43.486 -16.193   7.145  1.00  0.00     0.015 A 
BRANCH  23  27
HETATM   27  O   UNL     1      43.556 -17.888   3.347  1.00  0.00    -0.356 OA
HETATM   28  C   UNL     1      43.063 -17.167   2.225  1.00  0.00     0.210 C 
ENDBRANCH  23  27
ENDBRANCH   5  21
TORSDOF 4
ENDMDL
