MODEL 1
REMARK VINA RESULT:      -8.0      0.000      0.000
REMARK  4 active torsions:
REMARK  status: ('A' for Active; 'I' for Inactive)
REMARK    1  A    between atoms: C_3  and  N_4 
REMARK       I    between atoms: N_4  and  C_5 
REMARK    2  A    between atoms: C_5  and  C_6 
REMARK    3  A    between atoms: C_7  and  C_8 
REMARK    4  A    between atoms: C_16  and  C_17 
ROOT
HETATM    1  C   UNL     1      43.186 -15.989   1.393  1.00  0.00     0.003 A 
HETATM    2  C   UNL     1      43.043 -15.016   2.383  1.00  0.00     0.029 A 
HETATM    3  C   UNL     1      43.141 -15.364   3.728  1.00  0.00     0.035 A 
HETATM    4  C   UNL     1      43.373 -16.706   4.070  1.00  0.00     0.042 A 
HETATM    5  C   UNL     1      43.512 -17.700   3.086  1.00  0.00    -0.021 A 
HETATM    6  C   UNL     1      43.422 -17.320   1.741  1.00  0.00     0.012 A 
ENDROOT
BRANCH   3   7
HETATM    7  N   UNL     1      43.056 -14.435   4.787  1.00  0.00    -0.327 N 
HETATM    8  C   UNL     1      41.971 -13.658   5.134  1.00  0.00     0.227 C 
HETATM    9  O   UNL     1      40.841 -13.714   4.670  1.00  0.00    -0.273 OA
HETATM   10  H   UNL     1      43.898 -14.308   5.333  1.00  0.00     0.169 HD
BRANCH   8  11
HETATM   11  C   UNL     1      42.291 -12.637   6.175  1.00  0.00     0.089 A 
HETATM   12  C   UNL     1      43.085 -11.414   5.726  1.00  0.00     0.057 A 
HETATM   13  C   UNL     1      41.652 -11.285   6.188  1.00  0.00     0.027 A 
BRANCH  12  14
HETATM   14  C   UNL     1      44.211 -10.969   6.633  1.00  0.00     0.057 A 
HETATM   15  O   UNL     1      44.060 -10.177   7.732  1.00  0.00    -0.327 OA
HETATM   16  C   UNL     1      45.291 -10.031   8.286  1.00  0.00     0.142 A 
HETATM   17  C   UNL     1      46.232 -10.721   7.559  1.00  0.00     0.027 A 
HETATM   18  C   UNL     1      45.535 -11.325   6.486  1.00  0.00     0.035 A 
ENDBRANCH  12  14
ENDBRANCH   8  11
ENDBRANCH   3   7
BRANCH   5  19
HETATM   19  C   UNL     1      43.753 -19.085   3.471  1.00  0.00     0.010 A 
HETATM   20  C   UNL     1      43.653 -20.287   2.728  1.00  0.00     0.152 A 
HETATM   21  N   UNL     1      43.973 -21.372   3.440  1.00  0.00    -0.187 NA
HETATM   22  N   UNL     1      44.279 -20.874   4.645  1.00  0.00    -0.289 N 
HETATM   23  H   UNL     1      44.561 -21.519   5.376  1.00  0.00     0.188 HD
HETATM   24  C   UNL     1      44.167 -19.515   4.716  1.00  0.00     0.123 A 
ENDBRANCH   5  19
TORSDOF 4
ENDMDL
MODEL 2
REMARK VINA RESULT:      -7.9      4.173      7.746
REMARK  4 active torsions:
REMARK  status: ('A' for Active; 'I' for Inactive)
REMARK    1  A    between atoms: C_3  and  N_4 
REMARK       I    between atoms: N_4  and  C_5 
REMARK    2  A    between atoms: C_5  and  C_6 
REMARK    3  A    between atoms: C_7  and  C_8 
REMARK    4  A    between atoms: C_16  and  C_17 
ROOT
HETATM    1  C   UNL     1      38.839 -12.190   2.200  1.00  0.00     0.003 A 
HETATM    2  C   UNL     1      39.321 -13.247   2.974  1.00  0.00     0.029 A 
HETATM    3  C   UNL     1      40.158 -14.206   2.408  1.00  0.00     0.035 A 
HETATM    4  C   UNL     1      40.496 -14.100   1.050  1.00  0.00     0.042 A 
HETATM    5  C   UNL     1      40.014 -13.046   0.254  1.00  0.00    -0.021 A 
HETATM    6  C   UNL     1      39.185 -12.089   0.852  1.00  0.00     0.012 A 
ENDROOT
BRANCH   3   7
HETATM    7  N   UNL     1      40.725 -15.277   3.132  1.00  0.00    -0.327 N 
HETATM    8  C   UNL     1      41.752 -15.215   4.051  1.00  0.00     0.227 C 
HETATM    9  O   UNL     1      42.282 -14.211   4.503  1.00  0.00    -0.273 OA
HETATM   10  H   UNL     1      40.352 -16.195   2.929  1.00  0.00     0.169 HD
BRANCH   8  11
HETATM   11  C   UNL     1      42.241 -16.562   4.472  1.00  0.00     0.089 A 
HETATM   12  C   UNL     1      43.548 -17.050   3.855  1.00  0.00     0.057 A 
HETATM   13  C   UNL     1      43.453 -16.737   5.330  1.00  0.00     0.027 A 
BRANCH  12  14
HETATM   14  C   UNL     1      43.580 -18.491   3.391  1.00  0.00     0.057 A 
HETATM   15  O   UNL     1      44.020 -19.540   4.141  1.00  0.00    -0.327 OA
HETATM   16  C   UNL     1      43.863 -20.658   3.386  1.00  0.00     0.142 A 
HETATM   17  C   UNL     1      43.324 -20.340   2.162  1.00  0.00     0.027 A 
HETATM   18  C   UNL     1      43.144 -18.937   2.162  1.00  0.00     0.035 A 
ENDBRANCH  12  14
ENDBRANCH   8  11
ENDBRANCH   3   7
BRANCH   5  19
HETATM   19  C   UNL     1      40.384 -12.962  -1.154  1.00  0.00     0.010 A 
HETATM   20  C   UNL     1      40.207 -13.880  -2.218  1.00  0.00     0.152 A 
HETATM   21  N   UNL     1      40.676 -13.429  -3.384  1.00  0.00    -0.187 NA
HETATM   22  N   UNL     1      41.158 -12.216  -3.077  1.00  0.00    -0.289 N 
HETATM   23  H   UNL     1      41.576 -11.662  -3.817  1.00  0.00     0.188 HD
HETATM   24  C   UNL     1      41.006 -11.889  -1.760  1.00  0.00     0.123 A 
ENDBRANCH   5  19
TORSDOF 4
ENDMDL
MODEL 3
REMARK VINA RESULT:      -7.9      3.857      6.730
REMARK  4 active torsions:
REMARK  status: ('A' for Active; 'I' for Inactive)
REMARK    1  A    between atoms: C_3  and  N_4 
REMARK       I    between atoms: N_4  and  C_5 
REMARK    2  A    between atoms: C_5  and  C_6 
REMARK    3  A    between atoms: C_7  and  C_8 
REMARK    4  A    between atoms: C_16  and  C_17 
ROOT
HETATM    1  C   UNL     1      43.507 -15.831   5.287  1.00  0.00     0.003 A 
HETATM    2  C   UNL     1      43.023 -15.083   4.212  1.00  0.00     0.029 A 
HETATM    3  C   UNL     1      42.771 -15.696   2.987  1.00  0.00     0.035 A 
HETATM    4  C   UNL     1      43.024 -17.069   2.847  1.00  0.00     0.042 A 
HETATM    5  C   UNL     1      43.518 -17.837   3.916  1.00  0.00    -0.021 A 
HETATM    6  C   UNL     1      43.750 -17.198   5.140  1.00  0.00     0.012 A 
ENDROOT
BRANCH   3   7
HETATM    7  N   UNL     1      42.238 -15.022   1.868  1.00  0.00    -0.327 N 
HETATM    8  C   UNL     1      40.942 -15.075   1.398  1.00  0.00     0.227 C 
HETATM    9  O   UNL     1      39.984 -15.618   1.928  1.00  0.00    -0.273 OA
HETATM   10  H   UNL     1      42.890 -14.459   1.338  1.00  0.00     0.169 HD
BRANCH   8  11
HETATM   11  C   UNL     1      40.772 -14.404   0.075  1.00  0.00     0.089 A 
HETATM   12  C   UNL     1      39.533 -13.533  -0.108  1.00  0.00     0.057 A 
HETATM   13  C   UNL     1      40.916 -12.925  -0.093  1.00  0.00     0.027 A 
BRANCH  12  14
HETATM   14  C   UNL     1      38.790 -13.682  -1.418  1.00  0.00     0.057 A 
HETATM   15  O   UNL     1      39.043 -14.642  -2.352  1.00  0.00    -0.327 OA
HETATM   16  C   UNL     1      38.152 -14.455  -3.360  1.00  0.00     0.142 A 
HETATM   17  C   UNL     1      37.329 -13.389  -3.085  1.00  0.00     0.027 A 
HETATM   18  C   UNL     1      37.743 -12.885  -1.829  1.00  0.00     0.035 A 
ENDBRANCH  12  14
ENDBRANCH   8  11
ENDBRANCH   3   7
BRANCH   5  19
HETATM   19  C   UNL     1      43.769 -19.263   3.741  1.00  0.00     0.010 A 
HETATM   20  C   UNL     1      43.721 -20.080   2.585  1.00  0.00     0.152 A 
HETATM   21  N   UNL     1      44.032 -21.355   2.831  1.00  0.00    -0.187 NA
HETATM   22  N   UNL     1      44.282 -21.366   4.147  1.00  0.00    -0.289 N 
HETATM   23  H   UNL     1      44.547 -22.245   4.580  1.00  0.00     0.188 HD
HETATM   24  C   UNL     1      44.142 -20.143   4.737  1.00  0.00     0.123 A 
ENDBRANCH   5  19
TORSDOF 4
ENDMDL
MODEL 4
REMARK VINA RESULT:      -7.8      2.829      8.360
REMARK  4 active torsions:
REMARK  status: ('A' for Active; 'I' for Inactive)
REMARK    1  A    between atoms: C_3  and  N_4 
REMARK       I    between atoms: N_4  and  C_5 
REMARK    2  A    between atoms: C_5  and  C_6 
REMARK    3  A    between atoms: C_7  and  C_8 
REMARK    4  A    between atoms: C_16  and  C_17 
ROOT
HETATM    1  C   UNL     1      41.252 -11.177   6.196  1.00  0.00     0.003 A 
HETATM    2  C   UNL     1      41.352 -12.546   5.944  1.00  0.00     0.029 A 
HETATM    3  C   UNL     1      42.560 -13.211   6.146  1.00  0.00     0.035 A 
HETATM    4  C   UNL     1      43.673 -12.481   6.593  1.00  0.00     0.042 A 
HETATM    5  C   UNL     1      43.593 -11.100   6.845  1.00  0.00    -0.021 A 
HETATM    6  C   UNL     1      42.363 -10.460   6.646  1.00  0.00     0.012 A 
ENDROOT
BRANCH   3   7
HETATM    7  N   UNL     1      42.732 -14.599   5.960  1.00  0.00    -0.327 N 
HETATM    8  C   UNL     1      42.881 -15.271   4.765  1.00  0.00     0.227 C 
HETATM    9  O   UNL     1      43.014 -14.783   3.652  1.00  0.00    -0.273 OA
HETATM   10  H   UNL     1      42.715 -15.163   6.799  1.00  0.00     0.169 HD
BRANCH   8  11
HETATM   11  C   UNL     1      42.833 -16.755   4.920  1.00  0.00     0.089 A 
HETATM   12  C   UNL     1      44.094 -17.533   4.557  1.00  0.00     0.057 A 
HETATM   13  C   UNL     1      43.601 -17.472   5.984  1.00  0.00     0.027 A 
BRANCH  12  14
HETATM   14  C   UNL     1      43.899 -18.797   3.747  1.00  0.00     0.057 A 
HETATM   15  O   UNL     1      44.179 -20.056   4.189  1.00  0.00    -0.327 OA
HETATM   16  C   UNL     1      43.844 -20.909   3.187  1.00  0.00     0.142 A 
HETATM   17  C   UNL     1      43.350 -20.215   2.108  1.00  0.00     0.027 A 
HETATM   18  C   UNL     1      43.389 -18.847   2.468  1.00  0.00     0.035 A 
ENDBRANCH  12  14
ENDBRANCH   8  11
ENDBRANCH   3   7
BRANCH   5  19
HETATM   19  C   UNL     1      44.765 -10.369   7.310  1.00  0.00     0.010 A 
HETATM   20  C   UNL     1      44.877  -9.173   8.061  1.00  0.00     0.152 A 
HETATM   21  N   UNL     1      46.143  -8.823   8.303  1.00  0.00    -0.187 NA
HETATM   22  N   UNL     1      46.853  -9.791   7.709  1.00  0.00    -0.289 N 
HETATM   23  H   UNL     1      47.866  -9.745   7.757  1.00  0.00     0.188 HD
HETATM   24  C   UNL     1      46.079 -10.740   7.104  1.00  0.00     0.123 A 
ENDBRANCH   5  19
TORSDOF 4
ENDMDL
MODEL 5
REMARK VINA RESULT:      -7.7      3.407      5.973
REMARK  4 active torsions:
REMARK  status: ('A' for Active; 'I' for Inactive)
REMARK    1  A    between atoms: C_3  and  N_4 
REMARK       I    between atoms: N_4  and  C_5 
REMARK    2  A    between atoms: C_5  and  C_6 
REMARK    3  A    between atoms: C_7  and  C_8 
REMARK    4  A    between atoms: C_16  and  C_17 
ROOT
HETATM    1  C   UNL     1      43.929 -16.014   6.101  1.00  0.00     0.003 A 
HETATM    2  C   UNL     1      43.188 -15.204   5.240  1.00  0.00     0.029 A 
HETATM    3  C   UNL     1      42.643 -15.734   4.072  1.00  0.00     0.035 A 
HETATM    4  C   UNL     1      42.863 -17.087   3.771  1.00  0.00     0.042 A 
HETATM    5  C   UNL     1      43.613 -17.917   4.623  1.00  0.00    -0.021 A 
HETATM    6  C   UNL     1      44.137 -17.361   5.797  1.00  0.00     0.012 A 
ENDROOT
BRANCH   3   7
HETATM    7  N   UNL     1      41.844 -14.996   3.174  1.00  0.00    -0.327 N 
HETATM    8  C   UNL     1      42.253 -14.346   2.029  1.00  0.00     0.227 C 
HETATM    9  O   UNL     1      43.359 -14.387   1.509  1.00  0.00    -0.273 OA
HETATM   10  H   UNL     1      40.866 -14.913   3.418  1.00  0.00     0.169 HD
BRANCH   8  11
HETATM   11  C   UNL     1      41.186 -13.491   1.428  1.00  0.00     0.089 A 
HETATM   12  C   UNL     1      40.109 -14.196   0.610  1.00  0.00     0.057 A 
HETATM   13  C   UNL     1      39.774 -13.518   1.918  1.00  0.00     0.027 A 
BRANCH  12  14
HETATM   14  C   UNL     1      39.719 -13.544  -0.698  1.00  0.00     0.057 A 
HETATM   15  O   UNL     1      38.951 -12.423  -0.811  1.00  0.00    -0.327 OA
HETATM   16  C   UNL     1      38.853 -12.144  -2.137  1.00  0.00     0.142 A 
HETATM   17  C   UNL     1      39.550 -13.069  -2.877  1.00  0.00     0.027 A 
HETATM   18  C   UNL     1      40.108 -13.979  -1.947  1.00  0.00     0.035 A 
ENDBRANCH  12  14
ENDBRANCH   8  11
ENDBRANCH   3   7
BRANCH   5  19
HETATM   19  C   UNL     1      43.822 -19.319   4.285  1.00  0.00     0.010 A 
HETATM   20  C   UNL     1      43.779 -19.990   3.038  1.00  0.00     0.152 A 
HETATM   21  N   UNL     1      44.042 -21.296   3.136  1.00  0.00    -0.187 NA
HETATM   22  N   UNL     1      44.255 -21.473   4.447  1.00  0.00    -0.289 N 
HETATM   23  H   UNL     1      44.479 -22.406   4.777  1.00  0.00     0.188 HD
HETATM   24  C   UNL     1      44.139 -20.324   5.176  1.00  0.00     0.123 A 
ENDBRANCH   5  19
TORSDOF 4
ENDMDL
MODEL 6
REMARK VINA RESULT:      -7.4      2.660      4.314
REMARK  4 active torsions:
REMARK  status: ('A' for Active; 'I' for Inactive)
REMARK    1  A    between atoms: C_3  and  N_4 
REMARK       I    between atoms: N_4  and  C_5 
REMARK    2  A    between atoms: C_5  and  C_6 
REMARK    3  A    between atoms: C_7  and  C_8 
REMARK    4  A    between atoms: C_16  and  C_17 
ROOT
HETATM    1  C   UNL     1      42.854 -13.305   3.491  1.00  0.00     0.003 A 
HETATM    2  C   UNL     1      43.010 -12.203   4.334  1.00  0.00     0.029 A 
HETATM    3  C   UNL     1      43.264 -12.388   5.691  1.00  0.00     0.035 A 
HETATM    4  C   UNL     1      43.347 -13.694   6.198  1.00  0.00     0.042 A 
HETATM    5  C   UNL     1      43.185 -14.816   5.365  1.00  0.00    -0.021 A 
HETATM    6  C   UNL     1      42.944 -14.601   4.003  1.00  0.00     0.012 A 
ENDROOT
BRANCH   3   7
HETATM    7  N   UNL     1      43.480 -11.330   6.599  1.00  0.00    -0.327 N 
HETATM    8  C   UNL     1      44.692 -10.822   7.019  1.00  0.00     0.227 C 
HETATM    9  O   UNL     1      45.802 -11.108   6.595  1.00  0.00    -0.273 OA
HETATM   10  H   UNL     1      42.650 -10.920   7.007  1.00  0.00     0.169 HD
BRANCH   8  11
HETATM   11  C   UNL     1      44.559  -9.844   8.140  1.00  0.00     0.089 A 
HETATM   12  C   UNL     1      45.070 -10.282   9.508  1.00  0.00     0.057 A 
HETATM   13  C   UNL     1      45.743  -9.163   8.748  1.00  0.00     0.027 A 
BRANCH  12  14
HETATM   14  C   UNL     1      44.187  -9.962  10.695  1.00  0.00     0.057 A 
HETATM   15  O   UNL     1      43.394 -10.863  11.340  1.00  0.00    -0.327 OA
HETATM   16  C   UNL     1      42.788 -10.197  12.357  1.00  0.00     0.142 A 
HETATM   17  C   UNL     1      43.184  -8.881  12.375  1.00  0.00     0.027 A 
HETATM   18  C   UNL     1      44.087  -8.726  11.296  1.00  0.00     0.035 A 
ENDBRANCH  12  14
ENDBRANCH   8  11
ENDBRANCH   3   7
BRANCH   5  19
HETATM   19  C   UNL     1      43.279 -16.161   5.920  1.00  0.00     0.010 A 
HETATM   20  C   UNL     1      43.540 -17.407   5.297  1.00  0.00     0.152 A 
HETATM   21  N   UNL     1      43.556 -18.429   6.157  1.00  0.00    -0.187 NA
HETATM   22  N   UNL     1      43.305 -17.847   7.337  1.00  0.00    -0.289 N 
HETATM   23  H   UNL     1      43.266 -18.433   8.165  1.00  0.00     0.188 HD
HETATM   24  C   UNL     1      43.134 -16.495   7.251  1.00  0.00     0.123 A 
ENDBRANCH   5  19
TORSDOF 4
ENDMDL
MODEL 7
REMARK VINA RESULT:      -7.3      4.020      6.679
REMARK  4 active torsions:
REMARK  status: ('A' for Active; 'I' for Inactive)
REMARK    1  A    between atoms: C_3  and  N_4 
REMARK       I    between atoms: N_4  and  C_5 
REMARK    2  A    between atoms: C_5  and  C_6 
REMARK    3  A    between atoms: C_7  and  C_8 
REMARK    4  A    between atoms: C_16  and  C_17 
ROOT
HETATM    1  C   UNL     1      43.933 -18.496   3.172  1.00  0.00     0.003 A 
HETATM    2  C   UNL     1      43.029 -17.903   2.290  1.00  0.00     0.029 A 
HETATM    3  C   UNL     1      42.213 -16.858   2.718  1.00  0.00     0.035 A 
HETATM    4  C   UNL     1      42.306 -16.422   4.049  1.00  0.00     0.042 A 
HETATM    5  C   UNL     1      43.206 -17.013   4.954  1.00  0.00    -0.021 A 
HETATM    6  C   UNL     1      44.023 -18.053   4.493  1.00  0.00     0.012 A 
ENDROOT
BRANCH   3   7
HETATM    7  N   UNL     1      41.309 -16.174   1.878  1.00  0.00    -0.327 N 
HETATM    8  C   UNL     1      41.408 -14.877   1.421  1.00  0.00     0.227 C 
HETATM    9  O   UNL     1      42.354 -14.114   1.556  1.00  0.00    -0.273 OA
HETATM   10  H   UNL     1      40.482 -16.689   1.606  1.00  0.00     0.169 HD
BRANCH   8  11
HETATM   11  C   UNL     1      40.175 -14.407   0.722  1.00  0.00     0.089 A 
HETATM   12  C   UNL     1      40.336 -13.904  -0.709  1.00  0.00     0.057 A 
HETATM   13  C   UNL     1      39.562 -15.167  -0.411  1.00  0.00     0.027 A 
BRANCH  12  14
HETATM   14  C   UNL     1      39.596 -12.634  -1.066  1.00  0.00     0.057 A 
HETATM   15  O   UNL     1      40.100 -11.374  -0.932  1.00  0.00    -0.327 OA
HETATM   16  C   UNL     1      39.147 -10.518  -1.383  1.00  0.00     0.142 A 
HETATM   17  C   UNL     1      38.039 -11.211  -1.808  1.00  0.00     0.027 A 
HETATM   18  C   UNL     1      38.326 -12.581  -1.600  1.00  0.00     0.035 A 
ENDBRANCH  12  14
ENDBRANCH   8  11
ENDBRANCH   3   7
BRANCH   5  19
HETATM   19  C   UNL     1      43.281 -16.538   6.330  1.00  0.00     0.010 A 
HETATM   20  C   UNL     1      43.010 -15.265   6.890  1.00  0.00     0.152 A 
HETATM   21  N   UNL     1      43.186 -15.226   8.213  1.00  0.00    -0.187 NA
HETATM   22  N   UNL     1      43.571 -16.474   8.513  1.00  0.00    -0.289 N 
HETATM   23  H   UNL     1      43.768 -16.697   9.483  1.00  0.00     0.188 HD
HETATM   24  C   UNL     1      43.641 -17.297   7.425  1.00  0.00     0.123 A 
ENDBRANCH   5  19
TORSDOF 4
ENDMDL
MODEL 8
REMARK VINA RESULT:      -7.3      4.766      8.241
REMARK  4 active torsions:
REMARK  status: ('A' for Active; 'I' for Inactive)
REMARK    1  A    between atoms: C_3  and  N_4 
REMARK       I    between atoms: N_4  and  C_5 
REMARK    2  A    between atoms: C_5  and  C_6 
REMARK    3  A    between atoms: C_7  and  C_8 
REMARK    4  A    between atoms: C_16  and  C_17 
ROOT
HETATM    1  C   UNL     1      39.441 -14.062  -1.305  1.00  0.00     0.003 A 
HETATM    2  C   UNL     1      39.847 -14.929  -0.288  1.00  0.00     0.029 A 
HETATM    3  C   UNL     1      40.700 -14.479   0.718  1.00  0.00     0.035 A 
HETATM    4  C   UNL     1      41.153 -13.151   0.685  1.00  0.00     0.042 A 
HETATM    5  C   UNL     1      40.760 -12.267  -0.336  1.00  0.00    -0.021 A 
HETATM    6  C   UNL     1      39.892 -12.741  -1.326  1.00  0.00     0.012 A 
ENDROOT
BRANCH   3   7
HETATM    7  N   UNL     1      41.119 -15.275   1.805  1.00  0.00    -0.327 N 
HETATM    8  C   UNL     1      42.267 -16.034   1.893  1.00  0.00     0.227 C 
HETATM    9  O   UNL     1      43.197 -16.066   1.100  1.00  0.00    -0.273 OA
HETATM   10  H   UNL     1      40.489 -15.313   2.595  1.00  0.00     0.169 HD
BRANCH   8  11
HETATM   11  C   UNL     1      42.296 -16.914   3.099  1.00  0.00     0.089 A 
HETATM   12  C   UNL     1      43.666 -17.329   3.625  1.00  0.00     0.057 A 
HETATM   13  C   UNL     1      42.765 -16.424   4.432  1.00  0.00     0.027 A 
BRANCH  12  14
HETATM   14  C   UNL     1      43.827 -18.780   4.021  1.00  0.00     0.057 A 
HETATM   15  O   UNL     1      43.975 -19.226   5.301  1.00  0.00    -0.327 OA
HETATM   16  C   UNL     1      44.059 -20.580   5.240  1.00  0.00     0.142 A 
HETATM   17  C   UNL     1      43.965 -21.010   3.938  1.00  0.00     0.027 A 
HETATM   18  C   UNL     1      43.819 -19.846   3.147  1.00  0.00     0.035 A 
ENDBRANCH  12  14
ENDBRANCH   8  11
ENDBRANCH   3   7
BRANCH   5  19
HETATM   19  C   UNL     1      41.246 -10.892  -0.343  1.00  0.00     0.010 A 
HETATM   20  C   UNL     1      41.637 -10.050  -1.414  1.00  0.00     0.152 A 
HETATM   21  N   UNL     1      42.017  -8.835  -1.012  1.00  0.00    -0.187 NA
HETATM   22  N   UNL     1      41.874  -8.887   0.319  1.00  0.00    -0.289 N 
HETATM   23  H   UNL     1      42.106  -8.061   0.862  1.00  0.00     0.188 HD
HETATM   24  C   UNL     1      41.414 -10.092   0.769  1.00  0.00     0.123 A 
ENDBRANCH   5  19
TORSDOF 4
ENDMDL
MODEL 9
REMARK VINA RESULT:      -7.3      3.030      4.773
REMARK  4 active torsions:
REMARK  status: ('A' for Active; 'I' for Inactive)
REMARK    1  A    between atoms: C_3  and  N_4 
REMARK       I    between atoms: N_4  and  C_5 
REMARK    2  A    between atoms: C_5  and  C_6 
REMARK    3  A    between atoms: C_7  and  C_8 
REMARK    4  A    between atoms: C_16  and  C_17 
ROOT
HETATM    1  C   UNL     1      42.056 -16.569   2.934  1.00  0.00     0.003 A 
HETATM    2  C   UNL     1      42.764 -15.660   3.723  1.00  0.00     0.029 A 
HETATM    3  C   UNL     1      42.625 -14.290   3.512  1.00  0.00     0.035 A 
HETATM    4  C   UNL     1      41.775 -13.841   2.489  1.00  0.00     0.042 A 
HETATM    5  C   UNL     1      41.060 -14.742   1.680  1.00  0.00    -0.021 A 
HETATM    6  C   UNL     1      41.209 -16.113   1.923  1.00  0.00     0.012 A 
ENDROOT
BRANCH   3   7
HETATM    7  N   UNL     1      43.268 -13.307   4.294  1.00  0.00    -0.327 N 
HETATM    8  C   UNL     1      42.888 -12.848   5.538  1.00  0.00     0.227 C 
HETATM    9  O   UNL     1      41.997 -13.288   6.250  1.00  0.00    -0.273 OA
HETATM   10  H   UNL     1      44.082 -12.874   3.880  1.00  0.00     0.169 HD
BRANCH   8  11
HETATM   11  C   UNL     1      43.673 -11.660   5.987  1.00  0.00     0.089 A 
HETATM   12  C   UNL     1      44.835 -11.915   6.941  1.00  0.00     0.057 A 
HETATM   13  C   UNL     1      45.078 -11.415   5.536  1.00  0.00     0.027 A 
BRANCH  12  14
HETATM   14  C   UNL     1      44.970 -10.966   8.112  1.00  0.00     0.057 A 
HETATM   15  O   UNL     1      44.335 -11.110   9.310  1.00  0.00    -0.327 OA
HETATM   16  C   UNL     1      44.736 -10.079  10.096  1.00  0.00     0.142 A 
HETATM   17  C   UNL     1      45.622  -9.274   9.420  1.00  0.00     0.027 A 
HETATM   18  C   UNL     1      45.772  -9.845   8.134  1.00  0.00     0.035 A 
ENDBRANCH  12  14
ENDBRANCH   8  11
ENDBRANCH   3   7
BRANCH   5  19
HETATM   19  C   UNL     1      40.184 -14.245   0.627  1.00  0.00     0.010 A 
HETATM   20  C   UNL     1      39.673 -12.947   0.377  1.00  0.00     0.152 A 
HETATM   21  N   UNL     1      38.901 -12.887  -0.710  1.00  0.00    -0.187 NA
HETATM   22  N   UNL     1      38.909 -14.147  -1.168  1.00  0.00    -0.289 N 
HETATM   23  H   UNL     1      38.380 -14.359  -2.007  1.00  0.00     0.188 HD
HETATM   24  C   UNL     1      39.662 -14.996  -0.407  1.00  0.00     0.123 A 
ENDBRANCH   5  19
TORSDOF 4
ENDMDL
MODEL 10
REMARK VINA RESULT:      -7.2      3.436      5.003
REMARK  4 active torsions:
REMARK  status: ('A' for Active; 'I' for Inactive)
REMARK    1  A    between atoms: C_3  and  N_4 
REMARK       I    between atoms: N_4  and  C_5 
REMARK    2  A    between atoms: C_5  and  C_6 
REMARK    3  A    between atoms: C_7  and  C_8 
REMARK    4  A    between atoms: C_16  and  C_17 
ROOT
HETATM    1  C   UNL     1      43.750 -15.840   6.298  1.00  0.00     0.003 A 
HETATM    2  C   UNL     1      43.908 -14.649   7.009  1.00  0.00     0.029 A 
HETATM    3  C   UNL     1      43.524 -13.437   6.441  1.00  0.00     0.035 A 
HETATM    4  C   UNL     1      42.990 -13.430   5.143  1.00  0.00     0.042 A 
HETATM    5  C   UNL     1      42.831 -14.619   4.409  1.00  0.00    -0.021 A 
HETATM    6  C   UNL     1      43.213 -15.825   5.010  1.00  0.00     0.012 A 
ENDROOT
BRANCH   3   7
HETATM    7  N   UNL     1      43.606 -12.197   7.110  1.00  0.00    -0.327 N 
HETATM    8  C   UNL     1      44.701 -11.362   7.194  1.00  0.00     0.227 C 
HETATM    9  O   UNL     1      45.767 -11.478   6.607  1.00  0.00    -0.273 OA
HETATM   10  H   UNL     1      42.774 -11.905   7.604  1.00  0.00     0.169 HD
BRANCH   8  11
HETATM   11  C   UNL     1      44.503 -10.233   8.150  1.00  0.00     0.089 A 
HETATM   12  C   UNL     1      45.110 -10.385   9.541  1.00  0.00     0.057 A 
HETATM   13  C   UNL     1      45.626  -9.342   8.577  1.00  0.00     0.027 A 
BRANCH  12  14
HETATM   14  C   UNL     1      44.241  -9.967  10.708  1.00  0.00     0.057 A 
HETATM   15  O   UNL     1      43.916  -8.679  11.014  1.00  0.00    -0.327 OA
HETATM   16  C   UNL     1      43.106  -8.726  12.103  1.00  0.00     0.142 A 
HETATM   17  C   UNL     1      42.905 -10.026  12.499  1.00  0.00     0.027 A 
HETATM   18  C   UNL     1      43.642 -10.831  11.599  1.00  0.00     0.035 A 
ENDBRANCH  12  14
ENDBRANCH   8  11
ENDBRANCH   3   7
BRANCH   5  19
HETATM   19  C   UNL     1      42.272 -14.582   3.063  1.00  0.00     0.010 A 
HETATM   20  C   UNL     1      40.930 -14.507   2.616  1.00  0.00     0.152 A 
HETATM   21  N   UNL     1      40.822 -14.481   1.285  1.00  0.00    -0.187 NA
HETATM   22  N   UNL     1      42.094 -14.539   0.868  1.00  0.00    -0.289 N 
HETATM   23  H   UNL     1      42.274 -14.533  -0.131  1.00  0.00     0.188 HD
HETATM   24  C   UNL     1      42.998 -14.599   1.889  1.00  0.00     0.123 A 
ENDBRANCH   5  19
TORSDOF 4
ENDMDL
