MODEL 1
REMARK VINA RESULT:      -7.9      0.000      0.000
REMARK  2 active torsions:
REMARK  status: ('A' for Active; 'I' for Inactive)
REMARK    1  A    between atoms: C_2  and  C_3 
REMARK    2  A    between atoms: C_6  and  C_7 
ROOT
HETATM    1  C   UNL     1      42.291 -13.136   3.072  1.00  0.00     0.119 C 
HETATM    2  S   UNL     1      42.777 -12.362   4.633  1.00  0.00    -0.141 SA
HETATM    3  C   UNL     1      41.229 -11.825   5.409  1.00  0.00     0.136 C 
HETATM    4  C   UNL     1      40.607 -10.584   4.782  1.00  0.00     0.031 C 
HETATM    5  C   UNL     1      40.253 -12.955   5.659  1.00  0.00     0.236 C 
HETATM    6  O   UNL     1      39.986 -13.388   6.772  1.00  0.00    -0.272 OA
HETATM    7  N   UNL     1      39.482 -13.538   4.612  1.00  0.00    -0.311 N 
HETATM    8  C   UNL     1      39.687 -13.325   3.271  1.00  0.00     0.134 C 
HETATM    9  C   UNL     1      40.873 -13.079   2.609  1.00  0.00     0.032 C 
HETATM   10  N   UNL     1      38.709 -13.377   2.316  1.00  0.00    -0.262 N 
HETATM   11  H   UNL     1      37.724 -13.587   2.431  1.00  0.00     0.191 HD
HETATM   12  N   UNL     1      39.129 -12.993   1.107  1.00  0.00    -0.178 NA
HETATM   13  C   UNL     1      40.448 -12.833   1.258  1.00  0.00     0.062 C 
HETATM   14  C   UNL     1      41.276 -12.469   0.077  1.00  0.00     0.073 C 
HETATM   15  H   UNL     1      38.696 -14.096   4.927  1.00  0.00     0.170 HD
ENDROOT
BRANCH   1  16
HETATM   16  C   UNL     1      42.672 -14.612   2.997  1.00  0.00    -0.040 A 
HETATM   17  C   UNL     1      42.927 -15.275   1.782  1.00  0.00     0.009 A 
HETATM   18  C   UNL     1      43.330 -16.614   1.761  1.00  0.00     0.007 A 
HETATM   19  C   UNL     1      43.480 -17.331   2.952  1.00  0.00    -0.059 A 
HETATM   20  C   UNL     1      43.209 -16.690   4.164  1.00  0.00     0.007 A 
HETATM   21  C   UNL     1      42.807 -15.352   4.185  1.00  0.00     0.009 A 
BRANCH  19  22
HETATM   22  C   UNL     1      43.960 -18.760   2.929  1.00  0.00     0.034 C 
HETATM   23  C   UNL     1      43.083 -19.629   2.040  1.00  0.00     0.010 C 
ENDBRANCH  19  22
ENDBRANCH   1  16
TORSDOF 2
ENDMDL
MODEL 2
REMARK VINA RESULT:      -7.8      2.449      3.524
REMARK  2 active torsions:
REMARK  status: ('A' for Active; 'I' for Inactive)
REMARK    1  A    between atoms: C_2  and  C_3 
REMARK    2  A    between atoms: C_6  and  C_7 
ROOT
HETATM    1  C   UNL     1      42.124 -13.998   5.889  1.00  0.00     0.119 C 
HETATM    2  S   UNL     1      40.341 -14.106   6.177  1.00  0.00    -0.141 SA
HETATM    3  C   UNL     1      39.610 -12.771   5.190  1.00  0.00     0.136 C 
HETATM    4  C   UNL     1      39.801 -11.377   5.775  1.00  0.00     0.031 C 
HETATM    5  C   UNL     1      39.916 -12.876   3.711  1.00  0.00     0.236 C 
HETATM    6  O   UNL     1      39.083 -13.174   2.865  1.00  0.00    -0.272 OA
HETATM    7  N   UNL     1      41.188 -12.527   3.172  1.00  0.00    -0.311 N 
HETATM    8  C   UNL     1      42.320 -12.292   3.914  1.00  0.00     0.134 C 
HETATM    9  C   UNL     1      42.697 -12.859   5.114  1.00  0.00     0.032 C 
HETATM   10  N   UNL     1      43.334 -11.453   3.541  1.00  0.00    -0.262 N 
HETATM   11  H   UNL     1      43.424 -10.908   2.691  1.00  0.00     0.191 HD
HETATM   12  N   UNL     1      44.255 -11.281   4.493  1.00  0.00    -0.178 NA
HETATM   13  C   UNL     1      43.900 -12.147   5.448  1.00  0.00     0.062 C 
HETATM   14  C   UNL     1      44.754 -12.285   6.658  1.00  0.00     0.073 C 
HETATM   15  H   UNL     1      41.199 -12.394   2.167  1.00  0.00     0.170 HD
ENDROOT
BRANCH   1  16
HETATM   16  C   UNL     1      42.696 -15.251   5.233  1.00  0.00    -0.040 A 
HETATM   17  C   UNL     1      43.823 -15.929   5.731  1.00  0.00     0.009 A 
HETATM   18  C   UNL     1      44.281 -17.107   5.133  1.00  0.00     0.007 A 
HETATM   19  C   UNL     1      43.631 -17.636   4.013  1.00  0.00    -0.059 A 
HETATM   20  C   UNL     1      42.523 -16.961   3.495  1.00  0.00     0.007 A 
HETATM   21  C   UNL     1      42.065 -15.784   4.093  1.00  0.00     0.009 A 
BRANCH  19  22
HETATM   22  C   UNL     1      44.098 -18.930   3.399  1.00  0.00     0.034 C 
HETATM   23  C   UNL     1      43.243 -19.319   2.201  1.00  0.00     0.010 C 
ENDBRANCH  19  22
ENDBRANCH   1  16
TORSDOF 2
ENDMDL
MODEL 3
REMARK VINA RESULT:      -7.2      2.660      3.670
REMARK  2 active torsions:
REMARK  status: ('A' for Active; 'I' for Inactive)
REMARK    1  A    between atoms: C_2  and  C_3 
REMARK    2  A    between atoms: C_6  and  C_7 
ROOT
HETATM    1  C   UNL     1      41.078 -14.425   3.895  1.00  0.00     0.119 C 
HETATM    2  S   UNL     1      39.555 -14.263   2.932  1.00  0.00    -0.141 SA
HETATM    3  C   UNL     1      39.794 -12.797   1.892  1.00  0.00     0.136 C 
HETATM    4  C   UNL     1      39.675 -11.471   2.634  1.00  0.00     0.031 C 
HETATM    5  C   UNL     1      40.994 -12.894   0.974  1.00  0.00     0.236 C 
HETATM    6  O   UNL     1      40.911 -13.029  -0.239  1.00  0.00    -0.272 OA
HETATM    7  N   UNL     1      42.327 -12.729   1.448  1.00  0.00    -0.311 N 
HETATM    8  C   UNL     1      42.695 -12.700   2.771  1.00  0.00     0.134 C 
HETATM    9  C   UNL     1      42.124 -13.361   3.839  1.00  0.00     0.032 C 
HETATM   10  N   UNL     1      43.773 -12.017   3.265  1.00  0.00    -0.262 N 
HETATM   11  H   UNL     1      44.455 -11.462   2.760  1.00  0.00     0.191 HD
HETATM   12  N   UNL     1      43.838 -12.024   4.598  1.00  0.00    -0.178 NA
HETATM   13  C   UNL     1      42.860 -12.859   4.966  1.00  0.00     0.062 C 
HETATM   14  C   UNL     1      42.676 -13.171   6.409  1.00  0.00     0.073 C 
HETATM   15  H   UNL     1      43.016 -12.563   0.722  1.00  0.00     0.170 HD
ENDROOT
BRANCH   1  16
HETATM   16  C   UNL     1      41.822 -15.727   3.615  1.00  0.00    -0.040 A 
HETATM   17  C   UNL     1      41.740 -16.406   2.386  1.00  0.00     0.009 A 
HETATM   18  C   UNL     1      42.483 -17.566   2.150  1.00  0.00     0.007 A 
HETATM   19  C   UNL     1      43.322 -18.087   3.140  1.00  0.00    -0.059 A 
HETATM   20  C   UNL     1      43.397 -17.435   4.373  1.00  0.00     0.007 A 
HETATM   21  C   UNL     1      42.654 -16.275   4.609  1.00  0.00     0.009 A 
BRANCH  19  22
HETATM   22  C   UNL     1      44.158 -19.311   2.867  1.00  0.00     0.034 C 
HETATM   23  C   UNL     1      43.472 -20.248   1.883  1.00  0.00     0.010 C 
ENDBRANCH  19  22
ENDBRANCH   1  16
TORSDOF 2
ENDMDL
MODEL 4
REMARK VINA RESULT:      -7.2      1.675      2.141
REMARK  2 active torsions:
REMARK  status: ('A' for Active; 'I' for Inactive)
REMARK    1  A    between atoms: C_2  and  C_3 
REMARK    2  A    between atoms: C_6  and  C_7 
ROOT
HETATM    1  C   UNL     1      42.725 -14.266   3.981  1.00  0.00     0.119 C 
HETATM    2  S   UNL     1      43.026 -12.906   5.136  1.00  0.00    -0.141 SA
HETATM    3  C   UNL     1      41.455 -12.005   5.241  1.00  0.00     0.136 C 
HETATM    4  C   UNL     1      41.142 -11.140   4.026  1.00  0.00     0.031 C 
HETATM    5  C   UNL     1      40.299 -12.857   5.716  1.00  0.00     0.236 C 
HETATM    6  O   UNL     1      39.775 -12.739   6.816  1.00  0.00    -0.272 OA
HETATM    7  N   UNL     1      39.655 -13.805   4.868  1.00  0.00    -0.311 N 
HETATM    8  C   UNL     1      40.128 -14.218   3.647  1.00  0.00     0.134 C 
HETATM    9  C   UNL     1      41.437 -14.349   3.230  1.00  0.00     0.032 C 
HETATM   10  N   UNL     1      39.343 -14.638   2.609  1.00  0.00    -0.262 N 
HETATM   11  H   UNL     1      38.333 -14.727   2.575  1.00  0.00     0.191 HD
HETATM   12  N   UNL     1      40.026 -14.850   1.481  1.00  0.00    -0.178 NA
HETATM   13  C   UNL     1      41.305 -14.706   1.844  1.00  0.00     0.062 C 
HETATM   14  C   UNL     1      42.377 -14.944   0.840  1.00  0.00     0.073 C 
HETATM   15  H   UNL     1      38.753 -14.125   5.202  1.00  0.00     0.170 HD
ENDROOT
BRANCH   1  16
HETATM   16  C   UNL     1      42.897 -15.639   4.624  1.00  0.00    -0.040 A 
HETATM   17  C   UNL     1      43.480 -16.730   3.952  1.00  0.00     0.009 A 
HETATM   18  C   UNL     1      43.672 -17.956   4.596  1.00  0.00     0.007 A 
HETATM   19  C   UNL     1      43.278 -18.130   5.926  1.00  0.00    -0.059 A 
HETATM   20  C   UNL     1      42.678 -17.062   6.598  1.00  0.00     0.007 A 
HETATM   21  C   UNL     1      42.487 -15.836   5.955  1.00  0.00     0.009 A 
BRANCH  19  22
HETATM   22  C   UNL     1      43.529 -19.438   6.633  1.00  0.00     0.034 C 
HETATM   23  C   UNL     1      43.833 -20.556   5.647  1.00  0.00     0.010 C 
ENDBRANCH  19  22
ENDBRANCH   1  16
TORSDOF 2
ENDMDL
MODEL 5
REMARK VINA RESULT:      -7.1      2.813      4.231
REMARK  2 active torsions:
REMARK  status: ('A' for Active; 'I' for Inactive)
REMARK    1  A    between atoms: C_2  and  C_3 
REMARK    2  A    between atoms: C_6  and  C_7 
ROOT
HETATM    1  C   UNL     1      42.696 -14.737   4.216  1.00  0.00     0.119 C 
HETATM    2  S   UNL     1      42.865 -16.319   5.077  1.00  0.00    -0.141 SA
HETATM    3  C   UNL     1      42.053 -16.084   6.682  1.00  0.00     0.136 C 
HETATM    4  C   UNL     1      42.853 -15.254   7.678  1.00  0.00     0.031 C 
HETATM    5  C   UNL     1      40.595 -15.694   6.571  1.00  0.00     0.236 C 
HETATM    6  O   UNL     1      39.668 -16.438   6.862  1.00  0.00    -0.272 OA
HETATM    7  N   UNL     1      40.187 -14.376   6.214  1.00  0.00    -0.311 N 
HETATM    8  C   UNL     1      41.017 -13.402   5.717  1.00  0.00     0.134 C 
HETATM    9  C   UNL     1      42.136 -13.547   4.922  1.00  0.00     0.032 C 
HETATM   10  N   UNL     1      40.834 -12.057   5.892  1.00  0.00    -0.262 N 
HETATM   11  H   UNL     1      40.082 -11.580   6.379  1.00  0.00     0.191 HD
HETATM   12  N   UNL     1      41.850 -11.321   5.438  1.00  0.00    -0.178 NA
HETATM   13  C   UNL     1      42.641 -12.205   4.820  1.00  0.00     0.062 C 
HETATM   14  C   UNL     1      43.862 -11.724   4.119  1.00  0.00     0.073 C 
HETATM   15  H   UNL     1      39.215 -14.165   6.417  1.00  0.00     0.170 HD
ENDROOT
BRANCH   1  16
HETATM   16  C   UNL     1      41.889 -14.846   2.925  1.00  0.00    -0.040 A 
HETATM   17  C   UNL     1      40.775 -15.694   2.790  1.00  0.00     0.009 A 
HETATM   18  C   UNL     1      40.027 -15.722   1.609  1.00  0.00     0.007 A 
HETATM   19  C   UNL     1      40.379 -14.912   0.525  1.00  0.00    -0.059 A 
HETATM   20  C   UNL     1      41.497 -14.081   0.638  1.00  0.00     0.007 A 
HETATM   21  C   UNL     1      42.243 -14.052   1.819  1.00  0.00     0.009 A 
BRANCH  19  22
HETATM   22  C   UNL     1      39.545 -14.909  -0.730  1.00  0.00     0.034 C 
HETATM   23  C   UNL     1      39.987 -13.815  -1.691  1.00  0.00     0.010 C 
ENDBRANCH  19  22
ENDBRANCH   1  16
TORSDOF 2
ENDMDL
MODEL 6
REMARK VINA RESULT:      -6.9      2.879      5.989
REMARK  2 active torsions:
REMARK  status: ('A' for Active; 'I' for Inactive)
REMARK    1  A    between atoms: C_2  and  C_3 
REMARK    2  A    between atoms: C_6  and  C_7 
ROOT
HETATM    1  C   UNL     1      42.937 -13.929   4.752  1.00  0.00     0.119 C 
HETATM    2  S   UNL     1      42.820 -13.557   2.985  1.00  0.00    -0.141 SA
HETATM    3  C   UNL     1      41.124 -13.993   2.511  1.00  0.00     0.136 C 
HETATM    4  C   UNL     1      40.867 -15.490   2.395  1.00  0.00     0.031 C 
HETATM    5  C   UNL     1      40.066 -13.235   3.284  1.00  0.00     0.236 C 
HETATM    6  O   UNL     1      39.363 -12.361   2.794  1.00  0.00    -0.272 OA
HETATM    7  N   UNL     1      39.733 -13.557   4.631  1.00  0.00    -0.311 N 
HETATM    8  C   UNL     1      40.455 -14.398   5.442  1.00  0.00     0.134 C 
HETATM    9  C   UNL     1      41.817 -14.622   5.455  1.00  0.00     0.032 C 
HETATM   10  N   UNL     1      39.925 -15.149   6.455  1.00  0.00    -0.262 N 
HETATM   11  H   UNL     1      38.963 -15.195   6.771  1.00  0.00     0.191 HD
HETATM   12  N   UNL     1      40.804 -15.992   7.003  1.00  0.00    -0.178 NA
HETATM   13  C   UNL     1      41.967 -15.669   6.428  1.00  0.00     0.062 C 
HETATM   14  C   UNL     1      43.208 -16.368   6.855  1.00  0.00     0.073 C 
HETATM   15  H   UNL     1      38.855 -13.164   4.954  1.00  0.00     0.170 HD
ENDROOT
BRANCH   1  16
HETATM   16  C   UNL     1      43.233 -12.695   5.600  1.00  0.00    -0.040 A 
HETATM   17  C   UNL     1      42.558 -11.473   5.433  1.00  0.00     0.009 A 
HETATM   18  C   UNL     1      42.819 -10.383   6.269  1.00  0.00     0.007 A 
HETATM   19  C   UNL     1      43.770 -10.480   7.289  1.00  0.00    -0.059 A 
HETATM   20  C   UNL     1      44.464 -11.682   7.452  1.00  0.00     0.007 A 
HETATM   21  C   UNL     1      44.203 -12.772   6.617  1.00  0.00     0.009 A 
BRANCH  19  22
HETATM   22  C   UNL     1      44.017  -9.320   8.219  1.00  0.00     0.034 C 
HETATM   23  C   UNL     1      45.505  -9.071   8.418  1.00  0.00     0.010 C 
ENDBRANCH  19  22
ENDBRANCH   1  16
TORSDOF 2
ENDMDL
MODEL 7
REMARK VINA RESULT:      -6.9      7.790     11.076
REMARK  2 active torsions:
REMARK  status: ('A' for Active; 'I' for Inactive)
REMARK    1  A    between atoms: C_2  and  C_3 
REMARK    2  A    between atoms: C_6  and  C_7 
ROOT
HETATM    1  C   UNL     1      42.259  -9.869  10.938  1.00  0.00     0.119 C 
HETATM    2  S   UNL     1      43.871 -10.404  10.317  1.00  0.00    -0.141 SA
HETATM    3  C   UNL     1      44.075  -9.568   8.720  1.00  0.00     0.136 C 
HETATM    4  C   UNL     1      43.244 -10.159   7.588  1.00  0.00     0.031 C 
HETATM    5  C   UNL     1      44.018  -8.058   8.815  1.00  0.00     0.236 C 
HETATM    6  O   UNL     1      44.991  -7.331   8.666  1.00  0.00    -0.272 OA
HETATM    7  N   UNL     1      42.791  -7.354   8.984  1.00  0.00    -0.311 N 
HETATM    8  C   UNL     1      41.588  -7.934   9.307  1.00  0.00     0.134 C 
HETATM    9  C   UNL     1      41.351  -9.052  10.080  1.00  0.00     0.032 C 
HETATM   10  N   UNL     1      40.365  -7.445   8.939  1.00  0.00    -0.262 N 
HETATM   11  H   UNL     1      40.152  -6.606   8.410  1.00  0.00     0.191 HD
HETATM   12  N   UNL     1      39.354  -8.261   9.249  1.00  0.00    -0.178 NA
HETATM   13  C   UNL     1      39.929  -9.232   9.966  1.00  0.00     0.062 C 
HETATM   14  C   UNL     1      39.080 -10.304  10.551  1.00  0.00     0.073 C 
HETATM   15  H   UNL     1      42.842  -6.362   8.782  1.00  0.00     0.170 HD
ENDROOT
BRANCH   1  16
HETATM   16  C   UNL     1      42.354  -9.102  12.254  1.00  0.00    -0.040 A 
HETATM   17  C   UNL     1      43.281  -8.067  12.471  1.00  0.00     0.009 A 
HETATM   18  C   UNL     1      43.297  -7.350  13.671  1.00  0.00     0.007 A 
HETATM   19  C   UNL     1      42.395  -7.656  14.694  1.00  0.00    -0.059 A 
HETATM   20  C   UNL     1      41.483  -8.697  14.501  1.00  0.00     0.007 A 
HETATM   21  C   UNL     1      41.466  -9.412  13.301  1.00  0.00     0.009 A 
BRANCH  19  22
HETATM   22  C   UNL     1      42.383  -6.852  15.969  1.00  0.00     0.034 C 
HETATM   23  C   UNL     1      41.490  -7.491  17.023  1.00  0.00     0.010 C 
ENDBRANCH  19  22
ENDBRANCH   1  16
TORSDOF 2
ENDMDL
MODEL 8
REMARK VINA RESULT:      -6.7      7.500      9.341
REMARK  2 active torsions:
REMARK  status: ('A' for Active; 'I' for Inactive)
REMARK    1  A    between atoms: C_2  and  C_3 
REMARK    2  A    between atoms: C_6  and  C_7 
ROOT
HETATM    1  C   UNL     1      41.459  -7.607  11.106  1.00  0.00     0.119 C 
HETATM    2  S   UNL     1      41.404  -7.646  12.914  1.00  0.00    -0.141 SA
HETATM    3  C   UNL     1      39.857  -8.497  13.332  1.00  0.00     0.136 C 
HETATM    4  C   UNL     1      38.602  -7.656  13.134  1.00  0.00     0.031 C 
HETATM    5  C   UNL     1      39.766  -9.899  12.769  1.00  0.00     0.236 C 
HETATM    6  O   UNL     1      39.832 -10.911  13.453  1.00  0.00    -0.272 OA
HETATM    7  N   UNL     1      39.488 -10.148  11.393  1.00  0.00    -0.311 N 
HETATM    8  C   UNL     1      39.502  -9.197  10.402  1.00  0.00     0.134 C 
HETATM    9  C   UNL     1      40.288  -8.067  10.304  1.00  0.00     0.032 C 
HETATM   10  N   UNL     1      38.739  -9.244   9.268  1.00  0.00    -0.262 N 
HETATM   11  H   UNL     1      38.082  -9.960   8.976  1.00  0.00     0.191 HD
HETATM   12  N   UNL     1      38.823  -8.135   8.528  1.00  0.00    -0.178 NA
HETATM   13  C   UNL     1      39.780  -7.418   9.126  1.00  0.00     0.062 C 
HETATM   14  C   UNL     1      40.201  -6.123   8.525  1.00  0.00     0.073 C 
HETATM   15  H   UNL     1      39.203 -11.099  11.186  1.00  0.00     0.170 HD
ENDROOT
BRANCH   1  16
HETATM   16  C   UNL     1      42.653  -8.365  10.533  1.00  0.00    -0.040 A 
HETATM   17  C   UNL     1      43.024  -9.651  10.968  1.00  0.00     0.009 A 
HETATM   18  C   UNL     1      44.089 -10.335  10.375  1.00  0.00     0.007 A 
HETATM   19  C   UNL     1      44.823  -9.749   9.340  1.00  0.00    -0.059 A 
HETATM   20  C   UNL     1      44.480  -8.463   8.912  1.00  0.00     0.007 A 
HETATM   21  C   UNL     1      43.414  -7.780   9.503  1.00  0.00     0.009 A 
BRANCH  19  22
HETATM   22  C   UNL     1      45.942 -10.506   8.671  1.00  0.00     0.034 C 
HETATM   23  C   UNL     1      45.506 -11.076   7.329  1.00  0.00     0.010 C 
ENDBRANCH  19  22
ENDBRANCH   1  16
TORSDOF 2
ENDMDL
MODEL 9
REMARK VINA RESULT:      -6.7      2.522      4.631
REMARK  2 active torsions:
REMARK  status: ('A' for Active; 'I' for Inactive)
REMARK    1  A    between atoms: C_2  and  C_3 
REMARK    2  A    between atoms: C_6  and  C_7 
ROOT
HETATM    1  C   UNL     1      41.930 -13.020   1.886  1.00  0.00     0.119 C 
HETATM    2  S   UNL     1      43.117 -14.294   2.378  1.00  0.00    -0.141 SA
HETATM    3  C   UNL     1      42.646 -14.767   4.065  1.00  0.00     0.136 C 
HETATM    4  C   UNL     1      43.024 -13.750   5.134  1.00  0.00     0.031 C 
HETATM    5  C   UNL     1      41.231 -15.292   4.174  1.00  0.00     0.236 C 
HETATM    6  O   UNL     1      40.956 -16.465   4.387  1.00  0.00    -0.272 OA
HETATM    7  N   UNL     1      40.097 -14.429   4.140  1.00  0.00    -0.311 N 
HETATM    8  C   UNL     1      40.126 -13.104   3.782  1.00  0.00     0.134 C 
HETATM    9  C   UNL     1      40.953 -12.474   2.875  1.00  0.00     0.032 C 
HETATM   10  N   UNL     1      39.263 -12.151   4.251  1.00  0.00    -0.262 N 
HETATM   11  H   UNL     1      38.486 -12.263   4.894  1.00  0.00     0.191 HD
HETATM   12  N   UNL     1      39.583 -10.913   3.868  1.00  0.00    -0.178 NA
HETATM   13  C   UNL     1      40.593 -11.090   3.009  1.00  0.00     0.062 C 
HETATM   14  C   UNL     1      41.171  -9.908   2.314  1.00  0.00     0.073 C 
HETATM   15  H   UNL     1      39.236 -14.851   4.471  1.00  0.00     0.170 HD
ENDROOT
BRANCH   1  16
HETATM   16  C   UNL     1      41.086 -13.429   0.682  1.00  0.00    -0.040 A 
HETATM   17  C   UNL     1      40.488 -14.697   0.561  1.00  0.00     0.009 A 
HETATM   18  C   UNL     1      39.675 -15.011  -0.531  1.00  0.00     0.007 A 
HETATM   19  C   UNL     1      39.445 -14.072  -1.541  1.00  0.00    -0.059 A 
HETATM   20  C   UNL     1      40.050 -12.815  -1.445  1.00  0.00     0.007 A 
HETATM   21  C   UNL     1      40.862 -12.501  -0.352  1.00  0.00     0.009 A 
BRANCH  19  22
HETATM   22  C   UNL     1      38.531 -14.396  -2.694  1.00  0.00     0.034 C 
HETATM   23  C   UNL     1      37.370 -13.416  -2.779  1.00  0.00     0.010 C 
ENDBRANCH  19  22
ENDBRANCH   1  16
TORSDOF 2
ENDMDL
MODEL 10
REMARK VINA RESULT:      -6.6      2.539      4.686
REMARK  2 active torsions:
REMARK  status: ('A' for Active; 'I' for Inactive)
REMARK    1  A    between atoms: C_2  and  C_3 
REMARK    2  A    between atoms: C_6  and  C_7 
ROOT
HETATM    1  C   UNL     1      42.090 -12.985   2.006  1.00  0.00     0.119 C 
HETATM    2  S   UNL     1      41.468 -11.496   1.186  1.00  0.00    -0.141 SA
HETATM    3  C   UNL     1      39.715 -11.822   0.858  1.00  0.00     0.136 C 
HETATM    4  C   UNL     1      39.457 -12.782  -0.297  1.00  0.00     0.031 C 
HETATM    5  C   UNL     1      38.909 -12.115   2.106  1.00  0.00     0.236 C 
HETATM    6  O   UNL     1      38.083 -11.346   2.577  1.00  0.00    -0.272 OA
HETATM    7  N   UNL     1      38.979 -13.370   2.776  1.00  0.00    -0.311 N 
HETATM    8  C   UNL     1      39.915 -14.345   2.530  1.00  0.00     0.134 C 
HETATM    9  C   UNL     1      41.227 -14.196   2.129  1.00  0.00     0.032 C 
HETATM   10  N   UNL     1      39.707 -15.686   2.701  1.00  0.00    -0.262 N 
HETATM   11  H   UNL     1      38.875 -16.159   3.037  1.00  0.00     0.191 HD
HETATM   12  N   UNL     1      40.718 -16.438   2.259  1.00  0.00    -0.178 NA
HETATM   13  C   UNL     1      41.663 -15.551   1.931  1.00  0.00     0.062 C 
HETATM   14  C   UNL     1      42.985 -16.041   1.456  1.00  0.00     0.073 C 
HETATM   15  H   UNL     1      38.224 -13.541   3.433  1.00  0.00     0.170 HD
ENDROOT
BRANCH   1  16
HETATM   16  C   UNL     1      42.597 -12.715   3.420  1.00  0.00    -0.040 A 
HETATM   17  C   UNL     1      42.743 -13.727   4.386  1.00  0.00     0.009 A 
HETATM   18  C   UNL     1      43.266 -13.448   5.652  1.00  0.00     0.007 A 
HETATM   19  C   UNL     1      43.649 -12.148   5.992  1.00  0.00    -0.059 A 
HETATM   20  C   UNL     1      43.489 -11.128   5.049  1.00  0.00     0.007 A 
HETATM   21  C   UNL     1      42.967 -11.408   3.784  1.00  0.00     0.009 A 
BRANCH  19  22
HETATM   22  C   UNL     1      44.256 -11.857   7.341  1.00  0.00     0.034 C 
HETATM   23  C   UNL     1      45.589 -11.135   7.208  1.00  0.00     0.010 C 
ENDBRANCH  19  22
ENDBRANCH   1  16
TORSDOF 2
ENDMDL
