MODEL 1
REMARK VINA RESULT:      -8.2      0.000      0.000
REMARK  6 active torsions:
REMARK  status: ('A' for Active; 'I' for Inactive)
REMARK    1  A    between atoms: C_3  and  C_4 
REMARK    2  A    between atoms: C_4  and  N_5 
REMARK    3  A    between atoms: N_5  and  C_6 
REMARK    4  A    between atoms: C_8  and  N_9 
REMARK    5  A    between atoms: C_11  and  N_12 
REMARK    6  A    between atoms: C_18  and  N_19 
ROOT
HETATM    1  C   UNL     1      42.609 -15.146   5.989  1.00  0.00     0.110 A 
HETATM    2  N   UNL     1      41.446 -14.656   5.539  1.00  0.00    -0.206 NA
HETATM    3  C   UNL     1      41.261 -13.336   5.613  1.00  0.00     0.202 A 
HETATM    4  N   UNL     1      42.155 -12.467   6.076  1.00  0.00    -0.199 NA
HETATM    5  C   UNL     1      43.326 -12.988   6.512  1.00  0.00     0.156 A 
HETATM    6  C   UNL     1      43.607 -14.338   6.477  1.00  0.00     0.096 A 
ENDROOT
BRANCH   1   7
HETATM    7  N   UNL     1      42.741 -16.535   5.881  1.00  0.00    -0.273 NA
HETATM    8  H   UNL     1      42.699 -16.829   6.857  1.00  0.00     0.129 HD
BRANCH   7   9
HETATM    9  C   UNL     1      43.990 -16.975   5.256  1.00  0.00     0.134 C 
BRANCH   9  10
HETATM   10  C   UNL     1      43.816 -18.116   4.257  1.00  0.00    -0.018 A 
HETATM   11  C   UNL     1      44.246 -19.419   4.604  1.00  0.00     0.011 A 
HETATM   12  C   UNL     1      44.079 -20.512   3.752  1.00  0.00     0.001 A 
HETATM   13  C   UNL     1      43.470 -20.340   2.521  1.00  0.00     0.002 A 
HETATM   14  C   UNL     1      43.030 -19.073   2.143  1.00  0.00     0.030 A 
HETATM   15  C   UNL     1      43.203 -17.951   2.985  1.00  0.00     0.047 A 
BRANCH  15  16
HETATM   16  N   UNL     1      42.725 -16.700   2.482  1.00  0.00    -0.315 N 
HETATM   17  C   UNL     1      43.431 -15.667   1.904  1.00  0.00     0.214 A 
HETATM   18  N   UNL     1      42.668 -14.652   1.562  1.00  0.00    -0.254 NA
HETATM   19  C   UNL     1      41.402 -15.035   1.884  1.00  0.00     0.135 A 
HETATM   20  C   UNL     1      41.403 -16.297   2.429  1.00  0.00     0.117 A 
ENDBRANCH  15  16
ENDBRANCH   9  10
ENDBRANCH   7   9
ENDBRANCH   1   7
BRANCH   3  21
HETATM   21  N   UNL     1      40.070 -12.832   5.137  1.00  0.00    -0.271 NA
HETATM   22  H   UNL     1      39.986 -13.030   4.149  1.00  0.00     0.127 HD
HETATM   23  H   UNL     1      39.965 -11.869   5.423  1.00  0.00     0.127 HD
ENDBRANCH   3  21
BRANCH   5  24
HETATM   24  N   UNL     1      44.303 -12.091   7.035  1.00  0.00    -0.227 N 
HETATM   25  N   UNL     1      44.229 -11.586   8.297  1.00  0.00    -0.179 NA
HETATM   26  C   UNL     1      45.292 -10.785   8.396  1.00  0.00     0.141 A 
HETATM   27  C   UNL     1      46.065 -10.762   7.225  1.00  0.00     0.040 A 
HETATM   28  C   UNL     1      45.410 -11.610   6.365  1.00  0.00     0.122 A 
ENDBRANCH   5  24
TORSDOF 6
ENDMDL
MODEL 2
REMARK VINA RESULT:      -8.0      1.330      2.928
REMARK  6 active torsions:
REMARK  status: ('A' for Active; 'I' for Inactive)
REMARK    1  A    between atoms: C_3  and  C_4 
REMARK    2  A    between atoms: C_4  and  N_5 
REMARK    3  A    between atoms: N_5  and  C_6 
REMARK    4  A    between atoms: C_8  and  N_9 
REMARK    5  A    between atoms: C_11  and  N_12 
REMARK    6  A    between atoms: C_18  and  N_19 
ROOT
HETATM    1  C   UNL     1      41.774 -14.776   4.116  1.00  0.00     0.110 A 
HETATM    2  N   UNL     1      40.549 -14.552   4.612  1.00  0.00    -0.206 NA
HETATM    3  C   UNL     1      40.427 -13.622   5.561  1.00  0.00     0.202 A 
HETATM    4  N   UNL     1      41.426 -12.882   6.035  1.00  0.00    -0.199 NA
HETATM    5  C   UNL     1      42.649 -13.120   5.508  1.00  0.00     0.156 A 
HETATM    6  C   UNL     1      42.874 -14.062   4.525  1.00  0.00     0.096 A 
ENDROOT
BRANCH   1   7
HETATM    7  N   UNL     1      41.834 -15.760   3.123  1.00  0.00    -0.273 NA
HETATM    8  H   UNL     1      41.257 -16.501   3.522  1.00  0.00     0.129 HD
BRANCH   7   9
HETATM    9  C   UNL     1      43.185 -16.247   2.838  1.00  0.00     0.134 C 
BRANCH   9  10
HETATM   10  C   UNL     1      43.389 -17.728   3.143  1.00  0.00    -0.018 A 
HETATM   11  C   UNL     1      43.330 -18.673   2.090  1.00  0.00     0.011 A 
HETATM   12  C   UNL     1      43.547 -20.036   2.297  1.00  0.00     0.001 A 
HETATM   13  C   UNL     1      43.835 -20.503   3.567  1.00  0.00     0.002 A 
HETATM   14  C   UNL     1      43.905 -19.606   4.630  1.00  0.00     0.030 A 
HETATM   15  C   UNL     1      43.674 -18.224   4.444  1.00  0.00     0.047 A 
BRANCH  15  16
HETATM   16  N   UNL     1      43.758 -17.403   5.613  1.00  0.00    -0.315 N 
HETATM   17  C   UNL     1      42.813 -17.182   6.591  1.00  0.00     0.214 A 
HETATM   18  N   UNL     1      43.225 -16.355   7.527  1.00  0.00    -0.254 NA
HETATM   19  C   UNL     1      44.506 -16.044   7.186  1.00  0.00     0.135 A 
HETATM   20  C   UNL     1      44.869 -16.691   6.029  1.00  0.00     0.117 A 
ENDBRANCH  15  16
ENDBRANCH   9  10
ENDBRANCH   7   9
ENDBRANCH   1   7
BRANCH   3  21
HETATM   21  N   UNL     1      39.165 -13.382   6.059  1.00  0.00    -0.271 NA
HETATM   22  H   UNL     1      38.929 -12.407   5.936  1.00  0.00     0.127 HD
HETATM   23  H   UNL     1      39.086 -13.760   6.993  1.00  0.00     0.127 HD
ENDBRANCH   3  21
BRANCH   5  24
HETATM   24  N   UNL     1      43.749 -12.361   6.003  1.00  0.00    -0.227 N 
HETATM   25  N   UNL     1      44.627 -11.724   5.180  1.00  0.00    -0.179 NA
HETATM   26  C   UNL     1      45.507 -11.158   6.008  1.00  0.00     0.141 A 
HETATM   27  C   UNL     1      45.218 -11.405   7.359  1.00  0.00     0.040 A 
HETATM   28  C   UNL     1      44.083 -12.179   7.330  1.00  0.00     0.122 A 
ENDBRANCH   5  24
TORSDOF 6
ENDMDL
MODEL 3
REMARK VINA RESULT:      -7.9      2.931      6.610
REMARK  6 active torsions:
REMARK  status: ('A' for Active; 'I' for Inactive)
REMARK    1  A    between atoms: C_3  and  C_4 
REMARK    2  A    between atoms: C_4  and  N_5 
REMARK    3  A    between atoms: N_5  and  C_6 
REMARK    4  A    between atoms: C_8  and  N_9 
REMARK    5  A    between atoms: C_11  and  N_12 
REMARK    6  A    between atoms: C_18  and  N_19 
ROOT
HETATM    1  C   UNL     1      41.036 -15.216   1.592  1.00  0.00     0.110 A 
HETATM    2  N   UNL     1      41.589 -14.080   2.040  1.00  0.00    -0.206 NA
HETATM    3  C   UNL     1      41.324 -12.957   1.369  1.00  0.00     0.202 A 
HETATM    4  N   UNL     1      40.531 -12.876   0.304  1.00  0.00    -0.199 NA
HETATM    5  C   UNL     1      39.976 -14.036  -0.119  1.00  0.00     0.156 A 
HETATM    6  C   UNL     1      40.194 -15.245   0.508  1.00  0.00     0.096 A 
ENDROOT
BRANCH   1   7
HETATM    7  N   UNL     1      41.352 -16.356   2.340  1.00  0.00    -0.273 NA
HETATM    8  H   UNL     1      40.854 -16.182   3.213  1.00  0.00     0.129 HD
BRANCH   7   9
HETATM    9  C   UNL     1      42.784 -16.541   2.581  1.00  0.00     0.134 C 
BRANCH   9  10
HETATM   10  C   UNL     1      43.163 -17.957   3.007  1.00  0.00    -0.018 A 
HETATM   11  C   UNL     1      43.176 -18.996   2.046  1.00  0.00     0.011 A 
HETATM   12  C   UNL     1      43.552 -20.303   2.363  1.00  0.00     0.001 A 
HETATM   13  C   UNL     1      43.934 -20.615   3.656  1.00  0.00     0.002 A 
HETATM   14  C   UNL     1      43.937 -19.620   4.631  1.00  0.00     0.030 A 
HETATM   15  C   UNL     1      43.546 -18.295   4.334  1.00  0.00     0.047 A 
BRANCH  15  16
HETATM   16  N   UNL     1      43.576 -17.365   5.421  1.00  0.00    -0.315 N 
HETATM   17  C   UNL     1      44.625 -16.601   5.884  1.00  0.00     0.214 A 
HETATM   18  N   UNL     1      44.301 -15.855   6.917  1.00  0.00    -0.254 NA
HETATM   19  C   UNL     1      42.977 -16.098   7.128  1.00  0.00     0.135 A 
HETATM   20  C   UNL     1      42.500 -17.002   6.211  1.00  0.00     0.117 A 
ENDBRANCH  15  16
ENDBRANCH   9  10
ENDBRANCH   7   9
ENDBRANCH   1   7
BRANCH   3  21
HETATM   21  N   UNL     1      41.881 -11.788   1.839  1.00  0.00    -0.271 NA
HETATM   22  H   UNL     1      41.149 -11.154   2.131  1.00  0.00     0.127 HD
HETATM   23  H   UNL     1      42.555 -11.436   1.174  1.00  0.00     0.127 HD
ENDBRANCH   3  21
BRANCH   5  24
HETATM   24  N   UNL     1      39.137 -13.994  -1.270  1.00  0.00    -0.227 N 
HETATM   25  N   UNL     1      38.183 -13.037  -1.444  1.00  0.00    -0.179 NA
HETATM   26  C   UNL     1      37.607 -13.350  -2.606  1.00  0.00     0.141 A 
HETATM   27  C   UNL     1      38.171 -14.489  -3.201  1.00  0.00     0.040 A 
HETATM   28  C   UNL     1      39.153 -14.884  -2.325  1.00  0.00     0.122 A 
ENDBRANCH   5  24
TORSDOF 6
ENDMDL
MODEL 4
REMARK VINA RESULT:      -7.8      1.609      6.565
REMARK  6 active torsions:
REMARK  status: ('A' for Active; 'I' for Inactive)
REMARK    1  A    between atoms: C_3  and  C_4 
REMARK    2  A    between atoms: C_4  and  N_5 
REMARK    3  A    between atoms: N_5  and  C_6 
REMARK    4  A    between atoms: C_8  and  N_9 
REMARK    5  A    between atoms: C_11  and  N_12 
REMARK    6  A    between atoms: C_18  and  N_19 
ROOT
HETATM    1  C   UNL     1      42.557 -14.150   2.657  1.00  0.00     0.110 A 
HETATM    2  N   UNL     1      41.220 -14.086   2.596  1.00  0.00    -0.206 NA
HETATM    3  C   UNL     1      40.541 -15.228   2.713  1.00  0.00     0.202 A 
HETATM    4  N   UNL     1      41.089 -16.424   2.911  1.00  0.00    -0.199 NA
HETATM    5  C   UNL     1      42.440 -16.458   2.981  1.00  0.00     0.156 A 
HETATM    6  C   UNL     1      43.227 -15.330   2.870  1.00  0.00     0.096 A 
ENDROOT
BRANCH   1   7
HETATM    7  N   UNL     1      43.210 -12.918   2.530  1.00  0.00    -0.273 NA
HETATM    8  H   UNL     1      44.185 -13.178   2.682  1.00  0.00     0.129 HD
BRANCH   7   9
HETATM    9  C   UNL     1      42.781 -11.907   3.498  1.00  0.00     0.134 C 
BRANCH   9  10
HETATM   10  C   UNL     1      43.564 -11.930   4.808  1.00  0.00    -0.018 A 
HETATM   11  C   UNL     1      44.834 -11.306   4.874  1.00  0.00     0.011 A 
HETATM   12  C   UNL     1      45.582 -11.258   6.052  1.00  0.00     0.001 A 
HETATM   13  C   UNL     1      45.083 -11.829   7.209  1.00  0.00     0.002 A 
HETATM   14  C   UNL     1      43.836 -12.451   7.187  1.00  0.00     0.030 A 
HETATM   15  C   UNL     1      43.070 -12.523   6.001  1.00  0.00     0.047 A 
BRANCH  15  16
HETATM   16  N   UNL     1      41.813 -13.199   6.098  1.00  0.00    -0.315 N 
HETATM   17  C   UNL     1      40.538 -12.687   5.993  1.00  0.00     0.214 A 
HETATM   18  N   UNL     1      39.603 -13.599   6.144  1.00  0.00    -0.254 NA
HETATM   19  C   UNL     1      40.276 -14.771   6.316  1.00  0.00     0.135 A 
HETATM   20  C   UNL     1      41.632 -14.561   6.269  1.00  0.00     0.117 A 
ENDBRANCH  15  16
ENDBRANCH   9  10
ENDBRANCH   7   9
ENDBRANCH   1   7
BRANCH   3  21
HETATM   21  N   UNL     1      39.165 -15.159   2.664  1.00  0.00    -0.271 NA
HETATM   22  H   UNL     1      38.800 -15.960   2.167  1.00  0.00     0.127 HD
HETATM   23  H   UNL     1      38.877 -14.247   2.339  1.00  0.00     0.127 HD
ENDBRANCH   3  21
BRANCH   5  24
HETATM   24  N   UNL     1      43.068 -17.723   3.173  1.00  0.00    -0.227 N 
HETATM   25  N   UNL     1      43.753 -18.034   4.308  1.00  0.00    -0.179 NA
HETATM   26  C   UNL     1      44.201 -19.273   4.095  1.00  0.00     0.141 A 
HETATM   27  C   UNL     1      43.815 -19.783   2.846  1.00  0.00     0.040 A 
HETATM   28  C   UNL     1      43.086 -18.769   2.272  1.00  0.00     0.122 A 
ENDBRANCH   5  24
TORSDOF 6
ENDMDL
MODEL 5
REMARK VINA RESULT:      -7.8      1.454      1.817
REMARK  6 active torsions:
REMARK  status: ('A' for Active; 'I' for Inactive)
REMARK    1  A    between atoms: C_3  and  C_4 
REMARK    2  A    between atoms: C_4  and  N_5 
REMARK    3  A    between atoms: N_5  and  C_6 
REMARK    4  A    between atoms: C_8  and  N_9 
REMARK    5  A    between atoms: C_11  and  N_12 
REMARK    6  A    between atoms: C_18  and  N_19 
ROOT
HETATM    1  C   UNL     1      43.470 -13.700   6.358  1.00  0.00     0.110 A 
HETATM    2  N   UNL     1      42.327 -13.404   5.725  1.00  0.00    -0.206 NA
HETATM    3  C   UNL     1      41.951 -12.124   5.695  1.00  0.00     0.202 A 
HETATM    4  N   UNL     1      42.638 -11.116   6.224  1.00  0.00    -0.199 NA
HETATM    5  C   UNL     1      43.795 -11.442   6.846  1.00  0.00     0.156 A 
HETATM    6  C   UNL     1      44.264 -12.736   6.930  1.00  0.00     0.096 A 
ENDROOT
BRANCH   1   7
HETATM    7  N   UNL     1      43.810 -15.058   6.352  1.00  0.00    -0.273 NA
HETATM    8  H   UNL     1      44.585 -15.081   5.689  1.00  0.00     0.129 HD
BRANCH   7   9
HETATM    9  C   UNL     1      42.729 -15.948   5.923  1.00  0.00     0.134 C 
BRANCH   9  10
HETATM   10  C   UNL     1      43.105 -16.868   4.765  1.00  0.00    -0.018 A 
HETATM   11  C   UNL     1      43.949 -17.980   5.002  1.00  0.00     0.011 A 
HETATM   12  C   UNL     1      44.297 -18.881   3.994  1.00  0.00     0.001 A 
HETATM   13  C   UNL     1      43.808 -18.703   2.712  1.00  0.00     0.002 A 
HETATM   14  C   UNL     1      42.973 -17.622   2.438  1.00  0.00     0.030 A 
HETATM   15  C   UNL     1      42.620 -16.691   3.440  1.00  0.00     0.047 A 
BRANCH  15  16
HETATM   16  N   UNL     1      41.769 -15.615   3.036  1.00  0.00    -0.315 N 
HETATM   17  C   UNL     1      42.106 -14.395   2.490  1.00  0.00     0.214 A 
HETATM   18  N   UNL     1      41.062 -13.635   2.244  1.00  0.00    -0.254 NA
HETATM   19  C   UNL     1      39.984 -14.388   2.599  1.00  0.00     0.135 A 
HETATM   20  C   UNL     1      40.385 -15.616   3.066  1.00  0.00     0.117 A 
ENDBRANCH  15  16
ENDBRANCH   9  10
ENDBRANCH   7   9
ENDBRANCH   1   7
BRANCH   3  21
HETATM   21  N   UNL     1      40.782 -11.820   5.031  1.00  0.00    -0.271 NA
HETATM   22  H   UNL     1      40.095 -12.542   5.201  1.00  0.00     0.127 HD
HETATM   23  H   UNL     1      40.982 -11.594   4.067  1.00  0.00     0.127 HD
ENDBRANCH   3  21
BRANCH   5  24
HETATM   24  N   UNL     1      44.550 -10.391   7.444  1.00  0.00    -0.227 N 
HETATM   25  N   UNL     1      45.910 -10.351   7.395  1.00  0.00    -0.179 NA
HETATM   26  C   UNL     1      46.234  -9.250   8.075  1.00  0.00     0.141 A 
HETATM   27  C   UNL     1      45.112  -8.564   8.563  1.00  0.00     0.040 A 
HETATM   28  C   UNL     1      44.041  -9.316   8.143  1.00  0.00     0.122 A 
ENDBRANCH   5  24
TORSDOF 6
ENDMDL
MODEL 6
REMARK VINA RESULT:      -7.3      2.019      3.323
REMARK  6 active torsions:
REMARK  status: ('A' for Active; 'I' for Inactive)
REMARK    1  A    between atoms: C_3  and  C_4 
REMARK    2  A    between atoms: C_4  and  N_5 
REMARK    3  A    between atoms: N_5  and  C_6 
REMARK    4  A    between atoms: C_8  and  N_9 
REMARK    5  A    between atoms: C_11  and  N_12 
REMARK    6  A    between atoms: C_18  and  N_19 
ROOT
HETATM    1  C   UNL     1      43.535 -13.980   6.175  1.00  0.00     0.110 A 
HETATM    2  N   UNL     1      44.182 -13.298   7.131  1.00  0.00    -0.206 NA
HETATM    3  C   UNL     1      44.240 -11.971   7.010  1.00  0.00     0.202 A 
HETATM    4  N   UNL     1      43.683 -11.270   6.027  1.00  0.00    -0.199 NA
HETATM    5  C   UNL     1      43.026 -11.982   5.082  1.00  0.00     0.156 A 
HETATM    6  C   UNL     1      42.914 -13.357   5.120  1.00  0.00     0.096 A 
ENDROOT
BRANCH   1   7
HETATM    7  N   UNL     1      43.508 -15.367   6.360  1.00  0.00    -0.273 NA
HETATM    8  H   UNL     1      44.426 -15.646   6.014  1.00  0.00     0.129 HD
BRANCH   7   9
HETATM    9  C   UNL     1      42.441 -16.052   5.627  1.00  0.00     0.134 C 
BRANCH   9  10
HETATM   10  C   UNL     1      42.945 -17.050   4.588  1.00  0.00    -0.018 A 
HETATM   11  C   UNL     1      43.827 -18.084   4.982  1.00  0.00     0.011 A 
HETATM   12  C   UNL     1      44.292 -19.051   4.088  1.00  0.00     0.001 A 
HETATM   13  C   UNL     1      43.885 -19.019   2.766  1.00  0.00     0.002 A 
HETATM   14  C   UNL     1      43.015 -18.018   2.338  1.00  0.00     0.030 A 
HETATM   15  C   UNL     1      42.545 -17.022   3.224  1.00  0.00     0.047 A 
BRANCH  15  16
HETATM   16  N   UNL     1      41.668 -16.039   2.665  1.00  0.00    -0.315 N 
HETATM   17  C   UNL     1      40.308 -15.894   2.827  1.00  0.00     0.214 A 
HETATM   18  N   UNL     1      39.816 -14.876   2.155  1.00  0.00    -0.254 NA
HETATM   19  C   UNL     1      40.892 -14.294   1.556  1.00  0.00     0.135 A 
HETATM   20  C   UNL     1      42.045 -14.971   1.870  1.00  0.00     0.117 A 
ENDBRANCH  15  16
ENDBRANCH   9  10
ENDBRANCH   7   9
ENDBRANCH   1   7
BRANCH   3  21
HETATM   21  N   UNL     1      44.893 -11.270   8.002  1.00  0.00    -0.271 NA
HETATM   22  H   UNL     1      44.912 -11.818   8.851  1.00  0.00     0.127 HD
HETATM   23  H   UNL     1      44.516 -10.335   8.067  1.00  0.00     0.127 HD
ENDBRANCH   3  21
BRANCH   5  24
HETATM   24  N   UNL     1      42.432 -11.269   4.000  1.00  0.00    -0.227 N 
HETATM   25  N   UNL     1      42.818 -11.451   2.707  1.00  0.00    -0.179 NA
HETATM   26  C   UNL     1      42.058 -10.602   2.012  1.00  0.00     0.141 A 
HETATM   27  C   UNL     1      41.176  -9.874   2.825  1.00  0.00     0.040 A 
HETATM   28  C   UNL     1      41.434 -10.321   4.098  1.00  0.00     0.122 A 
ENDBRANCH   5  24
TORSDOF 6
ENDMDL
MODEL 7
REMARK VINA RESULT:      -7.2      2.370      4.520
REMARK  6 active torsions:
REMARK  status: ('A' for Active; 'I' for Inactive)
REMARK    1  A    between atoms: C_3  and  C_4 
REMARK    2  A    between atoms: C_4  and  N_5 
REMARK    3  A    between atoms: N_5  and  C_6 
REMARK    4  A    between atoms: C_8  and  N_9 
REMARK    5  A    between atoms: C_11  and  N_12 
REMARK    6  A    between atoms: C_18  and  N_19 
ROOT
HETATM    1  C   UNL     1      44.692 -11.691   7.324  1.00  0.00     0.110 A 
HETATM    2  N   UNL     1      45.725 -10.883   7.049  1.00  0.00    -0.206 NA
HETATM    3  C   UNL     1      45.943  -9.856   7.872  1.00  0.00     0.202 A 
HETATM    4  N   UNL     1      45.227  -9.587   8.959  1.00  0.00    -0.199 NA
HETATM    5  C   UNL     1      44.197 -10.425   9.221  1.00  0.00     0.156 A 
HETATM    6  C   UNL     1      43.893 -11.512   8.427  1.00  0.00     0.096 A 
ENDROOT
BRANCH   1   7
HETATM    7  N   UNL     1      44.518 -12.750   6.425  1.00  0.00    -0.273 NA
HETATM    8  H   UNL     1      44.272 -12.260   5.565  1.00  0.00     0.129 HD
BRANCH   7   9
HETATM    9  C   UNL     1      43.470 -13.698   6.806  1.00  0.00     0.134 C 
BRANCH   9  10
HETATM   10  C   UNL     1      43.462 -14.980   5.978  1.00  0.00    -0.018 A 
HETATM   11  C   UNL     1      44.270 -16.072   6.374  1.00  0.00     0.011 A 
HETATM   12  C   UNL     1      44.278 -17.285   5.682  1.00  0.00     0.001 A 
HETATM   13  C   UNL     1      43.471 -17.449   4.570  1.00  0.00     0.002 A 
HETATM   14  C   UNL     1      42.658 -16.399   4.149  1.00  0.00     0.030 A 
HETATM   15  C   UNL     1      42.647 -15.158   4.826  1.00  0.00     0.047 A 
BRANCH  15  16
HETATM   16  N   UNL     1      41.784 -14.151   4.292  1.00  0.00    -0.315 N 
HETATM   17  C   UNL     1      40.469 -13.878   4.600  1.00  0.00     0.214 A 
HETATM   18  N   UNL     1      39.975 -12.877   3.904  1.00  0.00    -0.254 NA
HETATM   19  C   UNL     1      41.008 -12.438   3.133  1.00  0.00     0.135 A 
HETATM   20  C   UNL     1      42.137 -13.184   3.366  1.00  0.00     0.117 A 
ENDBRANCH  15  16
ENDBRANCH   9  10
ENDBRANCH   7   9
ENDBRANCH   1   7
BRANCH   3  21
HETATM   21  N   UNL     1      47.016  -9.035   7.596  1.00  0.00    -0.271 NA
HETATM   22  H   UNL     1      47.786  -9.262   8.211  1.00  0.00     0.127 HD
HETATM   23  H   UNL     1      46.715  -8.071   7.572  1.00  0.00     0.127 HD
ENDBRANCH   3  21
BRANCH   5  24
HETATM   24  N   UNL     1      43.392 -10.158  10.367  1.00  0.00    -0.227 N 
HETATM   25  N   UNL     1      42.319  -9.321  10.327  1.00  0.00    -0.179 NA
HETATM   26  C   UNL     1      41.856  -9.317  11.578  1.00  0.00     0.141 A 
HETATM   27  C   UNL     1      42.600 -10.142  12.435  1.00  0.00     0.040 A 
HETATM   28  C   UNL     1      43.581 -10.673  11.634  1.00  0.00     0.122 A 
ENDBRANCH   5  24
TORSDOF 6
ENDMDL
MODEL 8
REMARK VINA RESULT:      -7.2      3.790      7.056
REMARK  6 active torsions:
REMARK  status: ('A' for Active; 'I' for Inactive)
REMARK    1  A    between atoms: C_3  and  C_4 
REMARK    2  A    between atoms: C_4  and  N_5 
REMARK    3  A    between atoms: N_5  and  C_6 
REMARK    4  A    between atoms: C_8  and  N_9 
REMARK    5  A    between atoms: C_11  and  N_12 
REMARK    6  A    between atoms: C_18  and  N_19 
ROOT
HETATM    1  C   UNL     1      40.279 -14.620   2.846  1.00  0.00     0.110 A 
HETATM    2  N   UNL     1      40.204 -14.003   4.033  1.00  0.00    -0.206 NA
HETATM    3  C   UNL     1      40.962 -14.475   5.024  1.00  0.00     0.202 A 
HETATM    4  N   UNL     1      41.806 -15.497   4.916  1.00  0.00    -0.199 NA
HETATM    5  C   UNL     1      41.871 -16.094   3.703  1.00  0.00     0.156 A 
HETATM    6  C   UNL     1      41.125 -15.678   2.620  1.00  0.00     0.096 A 
ENDROOT
BRANCH   1   7
HETATM    7  N   UNL     1      39.462 -14.075   1.848  1.00  0.00    -0.273 NA
HETATM    8  H   UNL     1      38.861 -14.865   1.611  1.00  0.00     0.129 HD
BRANCH   7   9
HETATM    9  C   UNL     1      40.188 -13.596   0.670  1.00  0.00     0.134 C 
BRANCH   9  10
HETATM   10  C   UNL     1      39.380 -13.659  -0.624  1.00  0.00    -0.018 A 
HETATM   11  C   UNL     1      39.529 -14.772  -1.486  1.00  0.00     0.011 A 
HETATM   12  C   UNL     1      38.790 -14.908  -2.663  1.00  0.00     0.001 A 
HETATM   13  C   UNL     1      37.872 -13.935  -3.017  1.00  0.00     0.002 A 
HETATM   14  C   UNL     1      37.695 -12.825  -2.194  1.00  0.00     0.030 A 
HETATM   15  C   UNL     1      38.442 -12.661  -1.006  1.00  0.00     0.047 A 
BRANCH  15  16
HETATM   16  N   UNL     1      38.184 -11.473  -0.252  1.00  0.00    -0.315 N 
HETATM   17  C   UNL     1      37.264 -11.263   0.753  1.00  0.00     0.214 A 
HETATM   18  N   UNL     1      37.291 -10.036   1.225  1.00  0.00    -0.254 NA
HETATM   19  C   UNL     1      38.291  -9.415   0.541  1.00  0.00     0.135 A 
HETATM   20  C   UNL     1      38.873 -10.278  -0.355  1.00  0.00     0.117 A 
ENDBRANCH  15  16
ENDBRANCH   9  10
ENDBRANCH   7   9
ENDBRANCH   1   7
BRANCH   3  21
HETATM   21  N   UNL     1      40.894 -13.831   6.240  1.00  0.00    -0.271 NA
HETATM   22  H   UNL     1      39.931 -13.621   6.462  1.00  0.00     0.127 HD
HETATM   23  H   UNL     1      41.548 -13.060   6.259  1.00  0.00     0.127 HD
ENDBRANCH   3  21
BRANCH   5  24
HETATM   24  N   UNL     1      42.750 -17.207   3.552  1.00  0.00    -0.227 N 
HETATM   25  N   UNL     1      43.610 -17.596   4.534  1.00  0.00    -0.179 NA
HETATM   26  C   UNL     1      44.261 -18.636   4.010  1.00  0.00     0.141 A 
HETATM   27  C   UNL     1      43.839 -18.940   2.706  1.00  0.00     0.040 A 
HETATM   28  C   UNL     1      42.866 -18.009   2.435  1.00  0.00     0.122 A 
ENDBRANCH   5  24
TORSDOF 6
ENDMDL
MODEL 9
REMARK VINA RESULT:      -7.1      3.295      5.556
REMARK  6 active torsions:
REMARK  status: ('A' for Active; 'I' for Inactive)
REMARK    1  A    between atoms: C_3  and  C_4 
REMARK    2  A    between atoms: C_4  and  N_5 
REMARK    3  A    between atoms: N_5  and  C_6 
REMARK    4  A    between atoms: C_8  and  N_9 
REMARK    5  A    between atoms: C_11  and  N_12 
REMARK    6  A    between atoms: C_18  and  N_19 
ROOT
HETATM    1  C   UNL     1      44.161 -10.759   8.276  1.00  0.00     0.110 A 
HETATM    2  N   UNL     1      45.451 -10.592   7.954  1.00  0.00    -0.206 NA
HETATM    3  C   UNL     1      45.941  -9.352   7.985  1.00  0.00     0.202 A 
HETATM    4  N   UNL     1      45.252  -8.270   8.337  1.00  0.00    -0.199 NA
HETATM    5  C   UNL     1      43.955  -8.468   8.669  1.00  0.00     0.156 A 
HETATM    6  C   UNL     1      43.360  -9.713   8.664  1.00  0.00     0.096 A 
ENDROOT
BRANCH   1   7
HETATM    7  N   UNL     1      43.710 -12.083   8.226  1.00  0.00    -0.273 NA
HETATM    8  H   UNL     1      44.140 -12.486   9.058  1.00  0.00     0.129 HD
BRANCH   7   9
HETATM    9  C   UNL     1      44.114 -12.812   7.022  1.00  0.00     0.134 C 
BRANCH   9  10
HETATM   10  C   UNL     1      43.114 -13.875   6.575  1.00  0.00    -0.018 A 
HETATM   11  C   UNL     1      42.930 -15.036   7.364  1.00  0.00     0.011 A 
HETATM   12  C   UNL     1      42.003 -16.026   7.031  1.00  0.00     0.001 A 
HETATM   13  C   UNL     1      41.222 -15.885   5.897  1.00  0.00     0.002 A 
HETATM   14  C   UNL     1      41.371 -14.756   5.095  1.00  0.00     0.030 A 
HETATM   15  C   UNL     1      42.314 -13.750   5.407  1.00  0.00     0.047 A 
BRANCH  15  16
HETATM   16  N   UNL     1      42.387 -12.645   4.501  1.00  0.00    -0.315 N 
HETATM   17  C   UNL     1      43.249 -12.440   3.445  1.00  0.00     0.214 A 
HETATM   18  N   UNL     1      43.039 -11.300   2.824  1.00  0.00    -0.254 NA
HETATM   19  C   UNL     1      41.972 -10.742   3.460  1.00  0.00     0.135 A 
HETATM   20  C   UNL     1      41.536 -11.555   4.477  1.00  0.00     0.117 A 
ENDBRANCH  15  16
ENDBRANCH   9  10
ENDBRANCH   7   9
ENDBRANCH   1   7
BRANCH   3  21
HETATM   21  N   UNL     1      47.271  -9.184   7.668  1.00  0.00    -0.271 NA
HETATM   22  H   UNL     1      47.569  -9.921   7.043  1.00  0.00     0.127 HD
HETATM   23  H   UNL     1      47.813  -9.050   8.511  1.00  0.00     0.127 HD
ENDBRANCH   3  21
BRANCH   5  24
HETATM   24  N   UNL     1      43.177  -7.331   9.032  1.00  0.00    -0.227 N 
HETATM   25  N   UNL     1      42.637  -6.490   8.107  1.00  0.00    -0.179 NA
HETATM   26  C   UNL     1      42.015  -5.556   8.831  1.00  0.00     0.141 A 
HETATM   27  C   UNL     1      42.130  -5.775  10.212  1.00  0.00     0.040 A 
HETATM   28  C   UNL     1      42.880  -6.922  10.317  1.00  0.00     0.122 A 
ENDBRANCH   5  24
TORSDOF 6
ENDMDL
MODEL 10
REMARK VINA RESULT:      -7.1      2.509      3.981
REMARK  6 active torsions:
REMARK  status: ('A' for Active; 'I' for Inactive)
REMARK    1  A    between atoms: C_3  and  C_4 
REMARK    2  A    between atoms: C_4  and  N_5 
REMARK    3  A    between atoms: N_5  and  C_6 
REMARK    4  A    between atoms: C_8  and  N_9 
REMARK    5  A    between atoms: C_11  and  N_12 
REMARK    6  A    between atoms: C_18  and  N_19 
ROOT
HETATM    1  C   UNL     1      43.467 -11.337   4.787  1.00  0.00     0.110 A 
HETATM    2  N   UNL     1      42.380 -10.629   4.451  1.00  0.00    -0.206 NA
HETATM    3  C   UNL     1      41.848  -9.835   5.382  1.00  0.00     0.202 A 
HETATM    4  N   UNL     1      42.330  -9.674   6.611  1.00  0.00    -0.199 NA
HETATM    5  C   UNL     1      43.435 -10.391   6.920  1.00  0.00     0.156 A 
HETATM    6  C   UNL     1      44.055 -11.239   6.025  1.00  0.00     0.096 A 
ENDROOT
BRANCH   1   7
HETATM    7  N   UNL     1      43.978 -12.148   3.767  1.00  0.00    -0.273 NA
HETATM    8  H   UNL     1      44.717 -11.562   3.379  1.00  0.00     0.129 HD
BRANCH   7   9
HETATM    9  C   UNL     1      43.001 -12.508   2.738  1.00  0.00     0.134 C 
BRANCH   9  10
HETATM   10  C   UNL     1      42.661 -13.996   2.698  1.00  0.00    -0.018 A 
HETATM   11  C   UNL     1      43.397 -14.857   1.848  1.00  0.00     0.011 A 
HETATM   12  C   UNL     1      43.162 -16.232   1.795  1.00  0.00     0.001 A 
HETATM   13  C   UNL     1      42.184 -16.796   2.596  1.00  0.00     0.002 A 
HETATM   14  C   UNL     1      41.439 -15.983   3.447  1.00  0.00     0.030 A 
HETATM   15  C   UNL     1      41.651 -14.587   3.505  1.00  0.00     0.047 A 
BRANCH  15  16
HETATM   16  N   UNL     1      40.815 -13.854   4.406  1.00  0.00    -0.315 N 
HETATM   17  C   UNL     1      40.853 -13.805   5.782  1.00  0.00     0.214 A 
HETATM   18  N   UNL     1      39.921 -13.030   6.294  1.00  0.00    -0.254 NA
HETATM   19  C   UNL     1      39.264 -12.509   5.220  1.00  0.00     0.135 A 
HETATM   20  C   UNL     1      39.805 -12.979   4.048  1.00  0.00     0.117 A 
ENDBRANCH  15  16
ENDBRANCH   9  10
ENDBRANCH   7   9
ENDBRANCH   1   7
BRANCH   3  21
HETATM   21  N   UNL     1      40.739  -9.097   5.031  1.00  0.00    -0.271 NA
HETATM   22  H   UNL     1      40.936  -8.111   5.140  1.00  0.00     0.127 HD
HETATM   23  H   UNL     1      39.921  -9.457   5.503  1.00  0.00     0.127 HD
ENDBRANCH   3  21
BRANCH   5  24
HETATM   24  N   UNL     1      43.971 -10.260   8.234  1.00  0.00    -0.227 N 
HETATM   25  N   UNL     1      43.185 -10.043   9.325  1.00  0.00    -0.179 NA
HETATM   26  C   UNL     1      44.045  -9.957  10.341  1.00  0.00     0.141 A 
HETATM   27  C   UNL     1      45.379 -10.122   9.939  1.00  0.00     0.040 A 
HETATM   28  C   UNL     1      45.306 -10.317   8.581  1.00  0.00     0.122 A 
ENDBRANCH   5  24
TORSDOF 6
ENDMDL
