MODEL 1
REMARK VINA RESULT:      -8.3      0.000      0.000
REMARK  2 active torsions:
REMARK  status: ('A' for Active; 'I' for Inactive)
REMARK    1  A    between atoms: C_9  and  C_11 
REMARK    2  A    between atoms: C_9  and  O_10 
ROOT
HETATM    1  C   UNL     1      44.461 -18.908   3.026  1.00  0.00     0.048 C 
HETATM    2  C   UNL     1      43.659 -18.206   4.083  1.00  0.00    -0.061 A 
HETATM    3  C   UNL     1      42.745 -17.201   3.733  1.00  0.00     0.020 A 
HETATM    4  C   UNL     1      42.046 -16.554   4.743  1.00  0.00     0.018 A 
HETATM    5  C   UNL     1      42.243 -16.915   6.076  1.00  0.00     0.045 A 
HETATM    6  N   UNL     1      41.429 -16.161   6.907  1.00  0.00    -0.323 N 
HETATM    7  C   UNL     1      40.654 -15.253   6.181  1.00  0.00     0.266 A 
HETATM    8  O   UNL     1      39.843 -14.491   6.686  1.00  0.00    -0.269 OA
HETATM    9  C   UNL     1      40.994 -15.465   4.660  1.00  0.00     0.199 A 
HETATM   10  C   UNL     1      43.135 -17.894   6.455  1.00  0.00     0.031 A 
HETATM   11  C   UNL     1      43.852 -18.539   5.443  1.00  0.00     0.009 A 
HETATM   12  H   UNL     1      41.384 -16.229   7.913  1.00  0.00     0.169 HD
ENDROOT
BRANCH   9  13
HETATM   13  C   UNL     1      41.664 -14.276   4.002  1.00  0.00     0.025 A 
HETATM   14  C   UNL     1      42.654 -13.418   4.618  1.00  0.00     0.003 A 
HETATM   15  C   UNL     1      42.987 -12.421   3.702  1.00  0.00     0.043 A 
HETATM   16  C   UNL     1      43.291 -13.385   5.879  1.00  0.00     0.014 A 
HETATM   17  C   UNL     1      43.910 -11.403   3.978  1.00  0.00     0.030 A 
HETATM   18  N   UNL     1      42.260 -12.659   2.567  1.00  0.00    -0.359 N 
HETATM   19  C   UNL     1      44.518 -11.398   5.235  1.00  0.00     0.002 A 
HETATM   20  C   UNL     1      44.216 -12.377   6.175  1.00  0.00     0.001 A 
HETATM   21  H   UNL     1      42.311 -12.091   1.733  1.00  0.00     0.166 HD
HETATM   22  C   UNL     1      41.445 -13.753   2.725  1.00  0.00     0.016 A 
HETATM   23  C   UNL     1      40.538 -14.168   1.621  1.00  0.00     0.069 C 
ENDBRANCH   9  13
BRANCH   9  24
HETATM   24  O   UNL     1      39.855 -15.956   3.961  1.00  0.00    -0.371 OA
HETATM   25  H   UNL     1      40.178 -16.646   3.360  1.00  0.00     0.212 HD
ENDBRANCH   9  24
TORSDOF 2
ENDMDL
MODEL 2
REMARK VINA RESULT:      -8.3      0.984      3.139
REMARK  2 active torsions:
REMARK  status: ('A' for Active; 'I' for Inactive)
REMARK    1  A    between atoms: C_9  and  C_11 
REMARK    2  A    between atoms: C_9  and  O_10 
ROOT
HETATM    1  C   UNL     1      44.302 -18.945   2.690  1.00  0.00     0.048 C 
HETATM    2  C   UNL     1      43.647 -18.146   3.780  1.00  0.00    -0.061 A 
HETATM    3  C   UNL     1      42.566 -17.301   3.489  1.00  0.00     0.020 A 
HETATM    4  C   UNL     1      42.007 -16.555   4.518  1.00  0.00     0.018 A 
HETATM    5  C   UNL     1      42.508 -16.663   5.816  1.00  0.00     0.045 A 
HETATM    6  N   UNL     1      41.790 -15.853   6.682  1.00  0.00    -0.323 N 
HETATM    7  C   UNL     1      40.782 -15.154   6.013  1.00  0.00     0.266 A 
HETATM    8  O   UNL     1      40.000 -14.391   6.562  1.00  0.00    -0.269 OA
HETATM    9  C   UNL     1      40.836 -15.593   4.504  1.00  0.00     0.199 A 
HETATM   10  C   UNL     1      43.571 -17.481   6.135  1.00  0.00     0.031 A 
HETATM   11  C   UNL     1      44.145 -18.224   5.099  1.00  0.00     0.009 A 
HETATM   12  H   UNL     1      41.954 -15.752   7.672  1.00  0.00     0.169 HD
ENDROOT
BRANCH   9  13
HETATM   13  C   UNL     1      41.212 -14.479   3.547  1.00  0.00     0.025 A 
HETATM   14  C   UNL     1      40.802 -14.383   2.162  1.00  0.00     0.003 A 
HETATM   15  C   UNL     1      41.389 -13.242   1.619  1.00  0.00     0.043 A 
HETATM   16  C   UNL     1      39.996 -15.172   1.310  1.00  0.00     0.014 A 
HETATM   17  C   UNL     1      41.218 -12.852   0.283  1.00  0.00     0.030 A 
HETATM   18  N   UNL     1      42.109 -12.645   2.620  1.00  0.00    -0.359 N 
HETATM   19  C   UNL     1      40.419 -13.655  -0.532  1.00  0.00     0.002 A 
HETATM   20  C   UNL     1      39.812 -14.800  -0.027  1.00  0.00     0.001 A 
HETATM   21  H   UNL     1      42.633 -11.789   2.506  1.00  0.00     0.166 HD
HETATM   22  C   UNL     1      42.035 -13.375   3.780  1.00  0.00     0.016 A 
HETATM   23  C   UNL     1      42.776 -12.923   4.989  1.00  0.00     0.069 C 
ENDBRANCH   9  13
BRANCH   9  24
HETATM   24  O   UNL     1      39.649 -16.294   4.148  1.00  0.00    -0.371 OA
HETATM   25  H   UNL     1      39.933 -17.140   3.765  1.00  0.00     0.212 HD
ENDBRANCH   9  24
TORSDOF 2
ENDMDL
MODEL 3
REMARK VINA RESULT:      -8.2      1.182      5.529
REMARK  2 active torsions:
REMARK  status: ('A' for Active; 'I' for Inactive)
REMARK    1  A    between atoms: C_9  and  C_11 
REMARK    2  A    between atoms: C_9  and  O_10 
ROOT
HETATM    1  C   UNL     1      44.980 -11.302   6.015  1.00  0.00     0.048 C 
HETATM    2  C   UNL     1      43.993 -11.986   5.113  1.00  0.00    -0.061 A 
HETATM    3  C   UNL     1      43.287 -13.114   5.558  1.00  0.00     0.020 A 
HETATM    4  C   UNL     1      42.407 -13.737   4.683  1.00  0.00     0.018 A 
HETATM    5  C   UNL     1      42.222 -13.233   3.395  1.00  0.00     0.045 A 
HETATM    6  N   UNL     1      41.287 -13.990   2.708  1.00  0.00    -0.323 N 
HETATM    7  C   UNL     1      40.804 -15.043   3.490  1.00  0.00     0.266 A 
HETATM    8  O   UNL     1      39.956 -15.839   3.115  1.00  0.00    -0.269 OA
HETATM    9  C   UNL     1      41.506 -14.938   4.893  1.00  0.00     0.199 A 
HETATM   10  C   UNL     1      42.902 -12.130   2.926  1.00  0.00     0.031 A 
HETATM   11  C   UNL     1      43.799 -11.507   3.798  1.00  0.00     0.009 A 
HETATM   12  H   UNL     1      40.978 -13.834   1.760  1.00  0.00     0.169 HD
ENDROOT
BRANCH   9  13
HETATM   13  C   UNL     1      42.420 -16.102   5.219  1.00  0.00     0.025 A 
HETATM   14  C   UNL     1      42.891 -17.094   4.276  1.00  0.00     0.003 A 
HETATM   15  C   UNL     1      43.669 -18.015   4.975  1.00  0.00     0.043 A 
HETATM   16  C   UNL     1      42.715 -17.306   2.890  1.00  0.00     0.014 A 
HETATM   17  C   UNL     1      44.273 -19.126   4.369  1.00  0.00     0.030 A 
HETATM   18  N   UNL     1      43.701 -17.605   6.281  1.00  0.00    -0.359 N 
HETATM   19  C   UNL     1      44.076 -19.308   3.000  1.00  0.00     0.002 A 
HETATM   20  C   UNL     1      43.309 -18.409   2.266  1.00  0.00     0.001 A 
HETATM   21  H   UNL     1      44.204 -18.087   7.013  1.00  0.00     0.166 HD
HETATM   22  C   UNL     1      42.945 -16.473   6.459  1.00  0.00     0.016 A 
HETATM   23  C   UNL     1      42.813 -15.875   7.816  1.00  0.00     0.069 C 
ENDBRANCH   9  13
BRANCH   9  24
HETATM   24  O   UNL     1      40.549 -14.644   5.906  1.00  0.00    -0.371 OA
HETATM   25  H   UNL     1      41.054 -14.436   6.709  1.00  0.00     0.212 HD
ENDBRANCH   9  24
TORSDOF 2
ENDMDL
MODEL 4
REMARK VINA RESULT:      -8.2      1.880      4.956
REMARK  2 active torsions:
REMARK  status: ('A' for Active; 'I' for Inactive)
REMARK    1  A    between atoms: C_9  and  C_11 
REMARK    2  A    between atoms: C_9  and  O_10 
ROOT
HETATM    1  C   UNL     1      45.592 -11.579   6.094  1.00  0.00     0.048 C 
HETATM    2  C   UNL     1      44.206 -12.147   6.199  1.00  0.00    -0.061 A 
HETATM    3  C   UNL     1      44.015 -13.516   6.435  1.00  0.00     0.020 A 
HETATM    4  C   UNL     1      42.718 -14.008   6.494  1.00  0.00     0.018 A 
HETATM    5  C   UNL     1      41.632 -13.146   6.337  1.00  0.00     0.045 A 
HETATM    6  N   UNL     1      40.439 -13.842   6.456  1.00  0.00    -0.323 N 
HETATM    7  C   UNL     1      40.660 -15.202   6.688  1.00  0.00     0.266 A 
HETATM    8  O   UNL     1      39.767 -16.021   6.849  1.00  0.00    -0.269 OA
HETATM    9  C   UNL     1      42.217 -15.415   6.754  1.00  0.00     0.199 A 
HETATM   10  C   UNL     1      41.785 -11.797   6.101  1.00  0.00     0.031 A 
HETATM   11  C   UNL     1      43.089 -11.299   6.027  1.00  0.00     0.009 A 
HETATM   12  H   UNL     1      39.514 -13.449   6.382  1.00  0.00     0.169 HD
ENDROOT
BRANCH   9  13
HETATM   13  C   UNL     1      42.774 -16.278   5.640  1.00  0.00     0.025 A 
HETATM   14  C   UNL     1      42.820 -15.920   4.238  1.00  0.00     0.003 A 
HETATM   15  C   UNL     1      43.364 -16.995   3.538  1.00  0.00     0.043 A 
HETATM   16  C   UNL     1      42.435 -14.783   3.493  1.00  0.00     0.014 A 
HETATM   17  C   UNL     1      43.538 -16.997   2.148  1.00  0.00     0.030 A 
HETATM   18  N   UNL     1      43.662 -17.965   4.459  1.00  0.00    -0.359 N 
HETATM   19  C   UNL     1      43.144 -15.859   1.441  1.00  0.00     0.002 A 
HETATM   20  C   UNL     1      42.601 -14.764   2.103  1.00  0.00     0.001 A 
HETATM   21  H   UNL     1      44.078 -18.855   4.227  1.00  0.00     0.166 HD
HETATM   22  C   UNL     1      43.302 -17.569   5.723  1.00  0.00     0.016 A 
HETATM   23  C   UNL     1      43.506 -18.490   6.875  1.00  0.00     0.069 C 
ENDBRANCH   9  13
BRANCH   9  24
HETATM   24  O   UNL     1      42.606 -15.824   8.062  1.00  0.00    -0.371 OA
HETATM   25  H   UNL     1      43.454 -16.287   7.964  1.00  0.00     0.212 HD
ENDBRANCH   9  24
TORSDOF 2
ENDMDL
MODEL 5
REMARK VINA RESULT:      -7.9      1.728      5.134
REMARK  2 active torsions:
REMARK  status: ('A' for Active; 'I' for Inactive)
REMARK    1  A    between atoms: C_9  and  C_11 
REMARK    2  A    between atoms: C_9  and  O_10 
ROOT
HETATM    1  C   UNL     1      46.065 -11.329   6.521  1.00  0.00     0.048 C 
HETATM    2  C   UNL     1      44.611 -11.702   6.486  1.00  0.00    -0.061 A 
HETATM    3  C   UNL     1      44.221 -13.049   6.522  1.00  0.00     0.020 A 
HETATM    4  C   UNL     1      42.868 -13.353   6.455  1.00  0.00     0.018 A 
HETATM    5  C   UNL     1      41.922 -12.331   6.372  1.00  0.00     0.045 A 
HETATM    6  N   UNL     1      40.640 -12.859   6.342  1.00  0.00    -0.323 N 
HETATM    7  C   UNL     1      40.658 -14.255   6.392  1.00  0.00     0.266 A 
HETATM    8  O   UNL     1      39.654 -14.951   6.399  1.00  0.00    -0.269 OA
HETATM    9  C   UNL     1      42.165 -14.695   6.497  1.00  0.00     0.199 A 
HETATM   10  C   UNL     1      42.271 -10.999   6.332  1.00  0.00     0.031 A 
HETATM   11  C   UNL     1      43.632 -10.688   6.385  1.00  0.00     0.009 A 
HETATM   12  H   UNL     1      39.783 -12.330   6.282  1.00  0.00     0.169 HD
ENDROOT
BRANCH   9  13
HETATM   13  C   UNL     1      42.668 -15.476   5.299  1.00  0.00     0.025 A 
HETATM   14  C   UNL     1      43.113 -16.853   5.317  1.00  0.00     0.003 A 
HETATM   15  C   UNL     1      43.535 -17.185   4.031  1.00  0.00     0.043 A 
HETATM   16  C   UNL     1      43.211 -17.850   6.314  1.00  0.00     0.014 A 
HETATM   17  C   UNL     1      44.047 -18.444   3.692  1.00  0.00     0.030 A 
HETATM   18  N   UNL     1      43.341 -16.078   3.247  1.00  0.00    -0.359 N 
HETATM   19  C   UNL     1      44.134 -19.405   4.700  1.00  0.00     0.002 A 
HETATM   20  C   UNL     1      43.720 -19.115   5.996  1.00  0.00     0.001 A 
HETATM   21  H   UNL     1      43.555 -16.040   2.261  1.00  0.00     0.166 HD
HETATM   22  C   UNL     1      42.841 -15.034   3.986  1.00  0.00     0.016 A 
HETATM   23  C   UNL     1      42.589 -13.719   3.335  1.00  0.00     0.069 C 
ENDBRANCH   9  13
BRANCH   9  24
HETATM   24  O   UNL     1      42.412 -15.323   7.751  1.00  0.00    -0.371 OA
HETATM   25  H   UNL     1      42.001 -16.202   7.704  1.00  0.00     0.212 HD
ENDBRANCH   9  24
TORSDOF 2
ENDMDL
MODEL 6
REMARK VINA RESULT:      -7.8      2.313      4.525
REMARK  2 active torsions:
REMARK  status: ('A' for Active; 'I' for Inactive)
REMARK    1  A    between atoms: C_9  and  C_11 
REMARK    2  A    between atoms: C_9  and  O_10 
ROOT
HETATM    1  C   UNL     1      43.532 -18.111   2.140  1.00  0.00     0.048 C 
HETATM    2  C   UNL     1      42.886 -16.991   2.903  1.00  0.00    -0.061 A 
HETATM    3  C   UNL     1      41.827 -16.264   2.339  1.00  0.00     0.020 A 
HETATM    4  C   UNL     1      41.277 -15.215   3.064  1.00  0.00     0.018 A 
HETATM    5  C   UNL     1      41.764 -14.909   4.335  1.00  0.00     0.045 A 
HETATM    6  N   UNL     1      41.058 -13.849   4.882  1.00  0.00    -0.323 N 
HETATM    7  C   UNL     1      40.071 -13.384   4.009  1.00  0.00     0.266 A 
HETATM    8  O   UNL     1      39.303 -12.470   4.271  1.00  0.00    -0.269 OA
HETATM    9  C   UNL     1      40.128 -14.288   2.723  1.00  0.00     0.199 A 
HETATM   10  C   UNL     1      42.805 -15.600   4.917  1.00  0.00     0.031 A 
HETATM   11  C   UNL     1      43.371 -16.648   4.185  1.00  0.00     0.009 A 
HETATM   12  H   UNL     1      41.216 -13.437   5.789  1.00  0.00     0.169 HD
ENDROOT
BRANCH   9  13
HETATM   13  C   UNL     1      40.537 -13.550   1.463  1.00  0.00     0.025 A 
HETATM   14  C   UNL     1      40.162 -13.914   0.113  1.00  0.00     0.003 A 
HETATM   15  C   UNL     1      40.773 -13.014  -0.758  1.00  0.00     0.043 A 
HETATM   16  C   UNL     1      39.370 -14.937  -0.453  1.00  0.00     0.014 A 
HETATM   17  C   UNL     1      40.637 -13.084  -2.152  1.00  0.00     0.030 A 
HETATM   18  N   UNL     1      41.473 -12.122   0.010  1.00  0.00    -0.359 N 
HETATM   19  C   UNL     1      39.851 -14.109  -2.679  1.00  0.00     0.002 A 
HETATM   20  C   UNL     1      39.222 -15.024  -1.842  1.00  0.00     0.001 A 
HETATM   21  H   UNL     1      42.007 -11.351  -0.365  1.00  0.00     0.166 HD
HETATM   22  C   UNL     1      41.364 -12.431   1.343  1.00  0.00     0.016 A 
HETATM   23  C   UNL     1      42.080 -11.607   2.356  1.00  0.00     0.069 C 
ENDBRANCH   9  13
BRANCH   9  24
HETATM   24  O   UNL     1      38.928 -15.043   2.594  1.00  0.00    -0.371 OA
HETATM   25  H   UNL     1      38.325 -14.512   2.049  1.00  0.00     0.212 HD
ENDBRANCH   9  24
TORSDOF 2
ENDMDL
MODEL 7
REMARK VINA RESULT:      -7.5      9.194     11.428
REMARK  2 active torsions:
REMARK  status: ('A' for Active; 'I' for Inactive)
REMARK    1  A    between atoms: C_9  and  C_11 
REMARK    2  A    between atoms: C_9  and  O_10 
ROOT
HETATM    1  C   UNL     1      43.374  -6.357   9.410  1.00  0.00     0.048 C 
HETATM    2  C   UNL     1      42.917  -7.524  10.237  1.00  0.00    -0.061 A 
HETATM    3  C   UNL     1      41.622  -7.549  10.777  1.00  0.00     0.020 A 
HETATM    4  C   UNL     1      41.248  -8.631  11.562  1.00  0.00     0.018 A 
HETATM    5  C   UNL     1      42.144  -9.676  11.790  1.00  0.00     0.045 A 
HETATM    6  N   UNL     1      41.556 -10.655  12.576  1.00  0.00    -0.323 N 
HETATM    7  C   UNL     1      40.245 -10.317  12.923  1.00  0.00     0.266 A 
HETATM    8  O   UNL     1      39.511 -11.028  13.594  1.00  0.00    -0.269 OA
HETATM    9  C   UNL     1      39.929  -8.933  12.245  1.00  0.00     0.199 A 
HETATM   10  C   UNL     1      43.423  -9.682  11.278  1.00  0.00     0.031 A 
HETATM   11  C   UNL     1      43.809  -8.588  10.498  1.00  0.00     0.009 A 
HETATM   12  H   UNL     1      41.993 -11.511  12.882  1.00  0.00     0.169 HD
ENDROOT
BRANCH   9  13
HETATM   13  C   UNL     1      39.688  -7.802  13.224  1.00  0.00     0.025 A 
HETATM   14  C   UNL     1      40.551  -7.446  14.330  1.00  0.00     0.003 A 
HETATM   15  C   UNL     1      39.959  -6.384  15.012  1.00  0.00     0.043 A 
HETATM   16  C   UNL     1      41.779  -7.937  14.827  1.00  0.00     0.014 A 
HETATM   17  C   UNL     1      40.521  -5.796  16.153  1.00  0.00     0.030 A 
HETATM   18  N   UNL     1      38.798  -6.081  14.352  1.00  0.00    -0.359 N 
HETATM   19  C   UNL     1      41.732  -6.308  16.620  1.00  0.00     0.002 A 
HETATM   20  C   UNL     1      42.358  -7.364  15.965  1.00  0.00     0.001 A 
HETATM   21  H   UNL     1      38.168  -5.340  14.627  1.00  0.00     0.166 HD
HETATM   22  C   UNL     1      38.601  -6.927  13.289  1.00  0.00     0.016 A 
HETATM   23  C   UNL     1      37.376  -6.795  12.453  1.00  0.00     0.069 C 
ENDBRANCH   9  13
BRANCH   9  24
HETATM   24  O   UNL     1      38.909  -9.084  11.263  1.00  0.00    -0.371 OA
HETATM   25  H   UNL     1      38.357  -9.830  11.552  1.00  0.00     0.212 HD
ENDBRANCH   9  24
TORSDOF 2
ENDMDL
MODEL 8
REMARK VINA RESULT:      -7.5      1.899      3.008
REMARK  2 active torsions:
REMARK  status: ('A' for Active; 'I' for Inactive)
REMARK    1  A    between atoms: C_9  and  C_11 
REMARK    2  A    between atoms: C_9  and  O_10 
ROOT
HETATM    1  C   UNL     1      40.220 -15.115   0.868  1.00  0.00     0.048 C 
HETATM    2  C   UNL     1      40.865 -15.541   2.155  1.00  0.00    -0.061 A 
HETATM    3  C   UNL     1      40.509 -14.928   3.366  1.00  0.00     0.020 A 
HETATM    4  C   UNL     1      41.151 -15.328   4.530  1.00  0.00     0.018 A 
HETATM    5  C   UNL     1      42.117 -16.333   4.489  1.00  0.00     0.045 A 
HETATM    6  N   UNL     1      42.606 -16.588   5.761  1.00  0.00    -0.323 N 
HETATM    7  C   UNL     1      42.004 -15.765   6.716  1.00  0.00     0.266 A 
HETATM    8  O   UNL     1      42.251 -15.813   7.912  1.00  0.00    -0.269 OA
HETATM    9  C   UNL     1      40.957 -14.867   5.961  1.00  0.00     0.199 A 
HETATM   10  C   UNL     1      42.493 -16.953   3.317  1.00  0.00     0.031 A 
HETATM   11  C   UNL     1      41.859 -16.544   2.140  1.00  0.00     0.009 A 
HETATM   12  H   UNL     1      43.312 -17.268   5.999  1.00  0.00     0.169 HD
ENDROOT
BRANCH   9  13
HETATM   13  C   UNL     1      41.281 -13.387   5.978  1.00  0.00     0.025 A 
HETATM   14  C   UNL     1      42.588 -12.813   6.219  1.00  0.00     0.003 A 
HETATM   15  C   UNL     1      42.458 -11.425   6.193  1.00  0.00     0.043 A 
HETATM   16  C   UNL     1      43.873 -13.344   6.472  1.00  0.00     0.014 A 
HETATM   17  C   UNL     1      43.531 -10.550   6.408  1.00  0.00     0.030 A 
HETATM   18  N   UNL     1      41.143 -11.149   5.928  1.00  0.00    -0.359 N 
HETATM   19  C   UNL     1      44.786 -11.107   6.659  1.00  0.00     0.002 A 
HETATM   20  C   UNL     1      44.958 -12.487   6.688  1.00  0.00     0.001 A 
HETATM   21  H   UNL     1      40.767 -10.215   5.845  1.00  0.00     0.166 HD
HETATM   22  C   UNL     1      40.412 -12.306   5.814  1.00  0.00     0.016 A 
HETATM   23  C   UNL     1      38.946 -12.235   5.561  1.00  0.00     0.069 C 
ENDBRANCH   9  13
BRANCH   9  24
HETATM   24  O   UNL     1      39.635 -15.181   6.387  1.00  0.00    -0.371 OA
HETATM   25  H   UNL     1      39.107 -14.375   6.264  1.00  0.00     0.212 HD
ENDBRANCH   9  24
TORSDOF 2
ENDMDL
MODEL 9
REMARK VINA RESULT:      -7.4      9.288     11.581
REMARK  2 active torsions:
REMARK  status: ('A' for Active; 'I' for Inactive)
REMARK    1  A    between atoms: C_9  and  C_11 
REMARK    2  A    between atoms: C_9  and  O_10 
ROOT
HETATM    1  C   UNL     1      43.337  -6.313   9.411  1.00  0.00     0.048 C 
HETATM    2  C   UNL     1      42.892  -7.499  10.218  1.00  0.00    -0.061 A 
HETATM    3  C   UNL     1      41.615  -7.527  10.797  1.00  0.00     0.020 A 
HETATM    4  C   UNL     1      41.253  -8.627  11.562  1.00  0.00     0.018 A 
HETATM    5  C   UNL     1      42.144  -9.688  11.731  1.00  0.00     0.045 A 
HETATM    6  N   UNL     1      41.570 -10.684  12.506  1.00  0.00    -0.323 N 
HETATM    7  C   UNL     1      40.274 -10.342  12.903  1.00  0.00     0.266 A 
HETATM    8  O   UNL     1      39.554 -11.065  13.576  1.00  0.00    -0.269 OA
HETATM    9  C   UNL     1      39.952  -8.936  12.276  1.00  0.00     0.199 A 
HETATM   10  C   UNL     1      43.406  -9.691  11.179  1.00  0.00     0.031 A 
HETATM   11  C   UNL     1      43.780  -8.579  10.419  1.00  0.00     0.009 A 
HETATM   12  H   UNL     1      42.007 -11.553  12.773  1.00  0.00     0.169 HD
ENDROOT
BRANCH   9  13
HETATM   13  C   UNL     1      39.754  -7.832  13.295  1.00  0.00     0.025 A 
HETATM   14  C   UNL     1      38.791  -6.756  13.196  1.00  0.00     0.003 A 
HETATM   15  C   UNL     1      38.954  -5.931  14.308  1.00  0.00     0.043 A 
HETATM   16  C   UNL     1      37.801  -6.396  12.254  1.00  0.00     0.014 A 
HETATM   17  C   UNL     1      38.191  -4.776  14.524  1.00  0.00     0.030 A 
HETATM   18  N   UNL     1      39.951  -6.478  15.071  1.00  0.00    -0.359 N 
HETATM   19  C   UNL     1      37.224  -4.446  13.573  1.00  0.00     0.002 A 
HETATM   20  C   UNL     1      37.028  -5.246  12.452  1.00  0.00     0.001 A 
HETATM   21  H   UNL     1      40.272  -6.087  15.945  1.00  0.00     0.166 HD
HETATM   22  C   UNL     1      40.461  -7.606  14.479  1.00  0.00     0.016 A 
HETATM   23  C   UNL     1      41.583  -8.341  15.125  1.00  0.00     0.069 C 
ENDBRANCH   9  13
BRANCH   9  24
HETATM   24  O   UNL     1      38.901  -9.048  11.322  1.00  0.00    -0.371 OA
HETATM   25  H   UNL     1      38.365  -9.812  11.592  1.00  0.00     0.212 HD
ENDBRANCH   9  24
TORSDOF 2
ENDMDL
MODEL 10
REMARK VINA RESULT:      -7.3      2.228      5.052
REMARK  2 active torsions:
REMARK  status: ('A' for Active; 'I' for Inactive)
REMARK    1  A    between atoms: C_9  and  C_11 
REMARK    2  A    between atoms: C_9  and  O_10 
ROOT
HETATM    1  C   UNL     1      37.920 -11.182   1.806  1.00  0.00     0.048 C 
HETATM    2  C   UNL     1      38.976 -12.224   1.573  1.00  0.00    -0.061 A 
HETATM    3  C   UNL     1      39.310 -13.136   2.586  1.00  0.00     0.020 A 
HETATM    4  C   UNL     1      40.314 -14.064   2.342  1.00  0.00     0.018 A 
HETATM    5  C   UNL     1      40.960 -14.091   1.106  1.00  0.00     0.045 A 
HETATM    6  N   UNL     1      41.904 -15.106   1.075  1.00  0.00    -0.323 N 
HETATM    7  C   UNL     1      41.948 -15.803   2.285  1.00  0.00     0.266 A 
HETATM    8  O   UNL     1      42.685 -16.755   2.498  1.00  0.00    -0.269 OA
HETATM    9  C   UNL     1      40.860 -15.167   3.226  1.00  0.00     0.199 A 
HETATM   10  C   UNL     1      40.659 -13.208   0.092  1.00  0.00     0.031 A 
HETATM   11  C   UNL     1      39.658 -12.263   0.337  1.00  0.00     0.009 A 
HETATM   12  H   UNL     1      42.504 -15.333   0.296  1.00  0.00     0.169 HD
ENDROOT
BRANCH   9  13
HETATM   13  C   UNL     1      41.425 -14.487   4.457  1.00  0.00     0.025 A 
HETATM   14  C   UNL     1      42.406 -13.422   4.456  1.00  0.00     0.003 A 
HETATM   15  C   UNL     1      42.693 -13.103   5.782  1.00  0.00     0.043 A 
HETATM   16  C   UNL     1      43.092 -12.707   3.449  1.00  0.00     0.014 A 
HETATM   17  C   UNL     1      43.621 -12.119   6.151  1.00  0.00     0.030 A 
HETATM   18  N   UNL     1      41.914 -13.910   6.568  1.00  0.00    -0.359 N 
HETATM   19  C   UNL     1      44.283 -11.434   5.131  1.00  0.00     0.002 A 
HETATM   20  C   UNL     1      44.023 -11.721   3.796  1.00  0.00     0.001 A 
HETATM   21  H   UNL     1      41.912 -13.885   7.577  1.00  0.00     0.166 HD
HETATM   22  C   UNL     1      41.159 -14.762   5.800  1.00  0.00     0.016 A 
HETATM   23  C   UNL     1      40.263 -15.754   6.455  1.00  0.00     0.069 C 
ENDBRANCH   9  13
BRANCH   9  24
HETATM   24  O   UNL     1      39.830 -16.111   3.500  1.00  0.00    -0.371 OA
HETATM   25  H   UNL     1      40.266 -16.973   3.601  1.00  0.00     0.212 HD
ENDBRANCH   9  24
TORSDOF 2
ENDMDL
