MODEL 1
REMARK VINA RESULT:      -9.1      0.000      0.000
REMARK  5 active torsions:
REMARK  status: ('A' for Active; 'I' for Inactive)
REMARK    1  A    between atoms: O_2  and  C_3 
REMARK    2  A    between atoms: C_4  and  O_5 
REMARK    3  A    between atoms: C_6  and  C_7 
REMARK    4  A    between atoms: N_8  and  N_9 
REMARK       I    between atoms: N_9  and  C_10 
REMARK    5  A    between atoms: C_10  and  C_11 
ROOT
HETATM    1  N   UNL     1      43.560 -13.055   4.728  1.00  0.00    -0.242 N 
HETATM    2  C   UNL     1      42.320 -13.675   4.724  1.00  0.00     0.292 C 
HETATM    3  O   UNL     1      41.317 -13.250   5.294  1.00  0.00    -0.264 OA
HETATM    4  H   UNL     1      44.319 -13.511   4.226  1.00  0.00     0.192 HD
ENDROOT
BRANCH   2   5
HETATM    5  C   UNL     1      42.313 -14.931   3.955  1.00  0.00     0.154 A 
HETATM    6  N   UNL     1      41.672 -15.051   2.767  1.00  0.00    -0.168 NA
HETATM    7  N   UNL     1      41.916 -16.325   2.387  1.00  0.00    -0.276 N 
HETATM    8  H   UNL     1      41.522 -16.650   1.512  1.00  0.00     0.189 HD
HETATM    9  C   UNL     1      42.683 -17.021   3.270  1.00  0.00     0.069 A 
HETATM   10  C   UNL     1      42.949 -16.149   4.303  1.00  0.00     0.007 A 
HETATM   11  C   UNL     1      43.158 -18.393   3.213  1.00  0.00    -0.001 A 
HETATM   12  C   UNL     1      43.796 -16.544   5.459  1.00  0.00     0.048 C 
HETATM   13  C   UNL     1      43.766 -18.075   5.674  1.00  0.00     0.044 C 
HETATM   14  C   UNL     1      43.753 -18.905   4.394  1.00  0.00    -0.045 A 
HETATM   15  C   UNL     1      44.242 -20.217   4.409  1.00  0.00     0.008 A 
HETATM   16  C   UNL     1      44.166 -21.003   3.259  1.00  0.00     0.001 A 
HETATM   17  C   UNL     1      43.590 -20.493   2.096  1.00  0.00     0.001 A 
HETATM   18  C   UNL     1      43.084 -19.191   2.070  1.00  0.00     0.014 A 
ENDBRANCH   2   5
BRANCH   1  19
HETATM   19  N   UNL     1      43.742 -11.886   5.398  1.00  0.00    -0.183 NA
HETATM   20  C   UNL     1      44.393 -11.959   6.515  1.00  0.00     0.153 C 
BRANCH  20  21
HETATM   21  C   UNL     1      44.642 -10.742   7.317  1.00  0.00     0.019 A 
HETATM   22  C   UNL     1      43.585 -10.034   7.889  1.00  0.00     0.110 A 
HETATM   23  C   UNL     1      43.822  -8.874   8.643  1.00  0.00     0.102 A 
HETATM   24  C   UNL     1      45.134  -8.432   8.826  1.00  0.00     0.040 A 
HETATM   25  C   UNL     1      46.197  -9.139   8.257  1.00  0.00     0.004 A 
HETATM   26  C   UNL     1      45.953 -10.289   7.504  1.00  0.00     0.016 A 
BRANCH  22  27
HETATM   27  O   UNL     1      42.290 -10.457   7.718  1.00  0.00    -0.357 OA
HETATM   28  H   UNL     1      42.199 -11.238   8.300  1.00  0.00     0.218 HD
ENDBRANCH  22  27
BRANCH  23  29
HETATM   29  O   UNL     1      42.696  -8.270   9.145  1.00  0.00    -0.353 OA
HETATM   30  C   UNL     1      42.766  -7.814  10.492  1.00  0.00     0.210 C 
ENDBRANCH  23  29
ENDBRANCH  20  21
ENDBRANCH   1  19
TORSDOF 5
ENDMDL
MODEL 2
REMARK VINA RESULT:      -8.9      1.705      2.279
REMARK  5 active torsions:
REMARK  status: ('A' for Active; 'I' for Inactive)
REMARK    1  A    between atoms: O_2  and  C_3 
REMARK    2  A    between atoms: C_4  and  O_5 
REMARK    3  A    between atoms: C_6  and  C_7 
REMARK    4  A    between atoms: N_8  and  N_9 
REMARK       I    between atoms: N_9  and  C_10 
REMARK    5  A    between atoms: C_10  and  C_11 
ROOT
HETATM    1  N   UNL     1      44.034 -13.082   6.519  1.00  0.00    -0.242 N 
HETATM    2  C   UNL     1      42.996 -13.898   6.096  1.00  0.00     0.292 C 
HETATM    3  O   UNL     1      41.847 -13.521   5.875  1.00  0.00    -0.264 OA
HETATM    4  H   UNL     1      44.942 -13.515   6.678  1.00  0.00     0.192 HD
ENDROOT
BRANCH   2   5
HETATM    5  C   UNL     1      43.405 -15.304   5.935  1.00  0.00     0.154 A 
HETATM    6  N   UNL     1      44.020 -15.997   6.923  1.00  0.00    -0.168 NA
HETATM    7  N   UNL     1      44.208 -17.228   6.396  1.00  0.00    -0.276 N 
HETATM    8  H   UNL     1      44.666 -17.930   6.964  1.00  0.00     0.189 HD
HETATM    9  C   UNL     1      43.738 -17.354   5.125  1.00  0.00     0.069 A 
HETATM   10  C   UNL     1      43.221 -16.122   4.792  1.00  0.00     0.007 A 
HETATM   11  C   UNL     1      43.748 -18.505   4.237  1.00  0.00    -0.001 A 
HETATM   12  C   UNL     1      42.583 -15.873   3.472  1.00  0.00     0.048 C 
HETATM   13  C   UNL     1      43.128 -16.843   2.399  1.00  0.00     0.044 C 
HETATM   14  C   UNL     1      43.387 -18.265   2.887  1.00  0.00    -0.045 A 
HETATM   15  C   UNL     1      43.365 -19.330   1.978  1.00  0.00     0.008 A 
HETATM   16  C   UNL     1      43.673 -20.621   2.407  1.00  0.00     0.001 A 
HETATM   17  C   UNL     1      44.017 -20.855   3.738  1.00  0.00     0.001 A 
HETATM   18  C   UNL     1      44.057 -19.802   4.654  1.00  0.00     0.014 A 
ENDBRANCH   2   5
BRANCH   1  19
HETATM   19  N   UNL     1      43.825 -11.754   6.724  1.00  0.00    -0.183 NA
HETATM   20  C   UNL     1      44.009 -11.322   7.930  1.00  0.00     0.153 C 
BRANCH  20  21
HETATM   21  C   UNL     1      43.806  -9.893   8.252  1.00  0.00     0.019 A 
HETATM   22  C   UNL     1      42.533  -9.325   8.213  1.00  0.00     0.110 A 
HETATM   23  C   UNL     1      42.343  -7.966   8.512  1.00  0.00     0.102 A 
HETATM   24  C   UNL     1      43.445  -7.181   8.858  1.00  0.00     0.040 A 
HETATM   25  C   UNL     1      44.722  -7.746   8.901  1.00  0.00     0.004 A 
HETATM   26  C   UNL     1      44.904  -9.097   8.598  1.00  0.00     0.016 A 
BRANCH  22  27
HETATM   27  O   UNL     1      41.441 -10.085   7.875  1.00  0.00    -0.357 OA
HETATM   28  H   UNL     1      41.750 -10.666   7.151  1.00  0.00     0.218 HD
ENDBRANCH  22  27
BRANCH  23  29
HETATM   29  O   UNL     1      41.043  -7.532   8.431  1.00  0.00    -0.353 OA
HETATM   30  C   UNL     1      40.369  -7.313   9.665  1.00  0.00     0.210 C 
ENDBRANCH  23  29
ENDBRANCH  20  21
ENDBRANCH   1  19
TORSDOF 5
ENDMDL
MODEL 3
REMARK VINA RESULT:      -8.3      4.887      7.447
REMARK  5 active torsions:
REMARK  status: ('A' for Active; 'I' for Inactive)
REMARK    1  A    between atoms: O_2  and  C_3 
REMARK    2  A    between atoms: C_4  and  O_5 
REMARK    3  A    between atoms: C_6  and  C_7 
REMARK    4  A    between atoms: N_8  and  N_9 
REMARK       I    between atoms: N_9  and  C_10 
REMARK    5  A    between atoms: C_10  and  C_11 
ROOT
HETATM    1  N   UNL     1      41.074 -13.772   2.034  1.00  0.00    -0.242 N 
HETATM    2  C   UNL     1      42.272 -13.508   2.682  1.00  0.00     0.292 C 
HETATM    3  O   UNL     1      42.963 -12.507   2.506  1.00  0.00    -0.264 OA
HETATM    4  H   UNL     1      40.597 -14.643   2.257  1.00  0.00     0.192 HD
ENDROOT
BRANCH   2   5
HETATM    5  C   UNL     1      42.657 -14.573   3.623  1.00  0.00     0.154 A 
HETATM    6  N   UNL     1      42.836 -14.342   4.946  1.00  0.00    -0.168 NA
HETATM    7  N   UNL     1      43.159 -15.553   5.453  1.00  0.00    -0.276 N 
HETATM    8  H   UNL     1      43.348 -15.624   6.446  1.00  0.00     0.189 HD
HETATM    9  C   UNL     1      43.190 -16.544   4.521  1.00  0.00     0.069 A 
HETATM   10  C   UNL     1      42.880 -15.941   3.323  1.00  0.00     0.007 A 
HETATM   11  C   UNL     1      43.485 -17.959   4.673  1.00  0.00    -0.001 A 
HETATM   12  C   UNL     1      42.786 -16.718   2.058  1.00  0.00     0.048 C 
HETATM   13  C   UNL     1      43.653 -17.996   2.125  1.00  0.00     0.044 C 
HETATM   14  C   UNL     1      43.660 -18.700   3.478  1.00  0.00    -0.045 A 
HETATM   15  C   UNL     1      43.936 -20.071   3.549  1.00  0.00     0.008 A 
HETATM   16  C   UNL     1      44.014 -20.704   4.789  1.00  0.00     0.001 A 
HETATM   17  C   UNL     1      43.831 -19.974   5.964  1.00  0.00     0.001 A 
HETATM   18  C   UNL     1      43.569 -18.603   5.910  1.00  0.00     0.014 A 
ENDBRANCH   2   5
BRANCH   1  19
HETATM   19  N   UNL     1      40.576 -12.892   1.125  1.00  0.00    -0.183 NA
HETATM   20  C   UNL     1      40.775 -13.179  -0.121  1.00  0.00     0.153 C 
BRANCH  20  21
HETATM   21  C   UNL     1      40.273 -12.283  -1.185  1.00  0.00     0.019 A 
HETATM   22  C   UNL     1      38.904 -12.084  -1.365  1.00  0.00     0.110 A 
HETATM   23  C   UNL     1      38.428 -11.240  -2.381  1.00  0.00     0.102 A 
HETATM   24  C   UNL     1      39.341 -10.589  -3.214  1.00  0.00     0.040 A 
HETATM   25  C   UNL     1      40.713 -10.784  -3.037  1.00  0.00     0.004 A 
HETATM   26  C   UNL     1      41.179 -11.628  -2.027  1.00  0.00     0.016 A 
BRANCH  22  27
HETATM   27  O   UNL     1      37.995 -12.716  -0.553  1.00  0.00    -0.357 OA
HETATM   28  H   UNL     1      37.198 -12.150  -0.575  1.00  0.00     0.218 HD
ENDBRANCH  22  27
BRANCH  23  29
HETATM   29  O   UNL     1      37.061 -11.135  -2.453  1.00  0.00    -0.353 OA
HETATM   30  C   UNL     1      36.520  -9.820  -2.393  1.00  0.00     0.210 C 
ENDBRANCH  23  29
ENDBRANCH  20  21
ENDBRANCH   1  19
TORSDOF 5
ENDMDL
MODEL 4
REMARK VINA RESULT:      -8.2      2.682     10.530
REMARK  5 active torsions:
REMARK  status: ('A' for Active; 'I' for Inactive)
REMARK    1  A    between atoms: O_2  and  C_3 
REMARK    2  A    between atoms: C_4  and  O_5 
REMARK    3  A    between atoms: C_6  and  C_7 
REMARK    4  A    between atoms: N_8  and  N_9 
REMARK       I    between atoms: N_9  and  C_10 
REMARK    5  A    between atoms: C_10  and  C_11 
ROOT
HETATM    1  N   UNL     1      43.245 -11.489   7.606  1.00  0.00    -0.242 N 
HETATM    2  C   UNL     1      44.347 -11.086   8.344  1.00  0.00     0.292 C 
HETATM    3  O   UNL     1      45.517 -11.186   7.979  1.00  0.00    -0.264 OA
HETATM    4  H   UNL     1      42.325 -11.363   8.021  1.00  0.00     0.192 HD
ENDROOT
BRANCH   2   5
HETATM    5  C   UNL     1      43.980 -10.514   9.652  1.00  0.00     0.154 A 
HETATM    6  N   UNL     1      43.955 -11.255  10.785  1.00  0.00    -0.168 NA
HETATM    7  N   UNL     1      43.594 -10.376  11.747  1.00  0.00    -0.276 N 
HETATM    8  H   UNL     1      43.502 -10.714  12.698  1.00  0.00     0.189 HD
HETATM    9  C   UNL     1      43.394  -9.113  11.284  1.00  0.00     0.069 A 
HETATM   10  C   UNL     1      43.625  -9.170   9.927  1.00  0.00     0.007 A 
HETATM   11  C   UNL     1      43.010  -7.907  11.999  1.00  0.00    -0.001 A 
HETATM   12  C   UNL     1      43.531  -7.961   9.067  1.00  0.00     0.048 C 
HETATM   13  C   UNL     1      42.581  -6.910   9.686  1.00  0.00     0.044 C 
HETATM   14  C   UNL     1      42.659  -6.786  11.205  1.00  0.00    -0.045 A 
HETATM   15  C   UNL     1      42.288  -5.588  11.827  1.00  0.00     0.008 A 
HETATM   16  C   UNL     1      42.289  -5.494  13.218  1.00  0.00     0.001 A 
HETATM   17  C   UNL     1      42.645  -6.595  13.997  1.00  0.00     0.001 A 
HETATM   18  C   UNL     1      43.004  -7.802  13.391  1.00  0.00     0.014 A 
ENDBRANCH   2   5
BRANCH   1  19
HETATM   19  N   UNL     1      43.409 -12.045   6.376  1.00  0.00    -0.183 NA
HETATM   20  C   UNL     1      42.777 -13.154   6.157  1.00  0.00     0.153 C 
BRANCH  20  21
HETATM   21  C   UNL     1      42.892 -13.836   4.851  1.00  0.00     0.019 A 
HETATM   22  C   UNL     1      42.873 -15.228   4.766  1.00  0.00     0.110 A 
HETATM   23  C   UNL     1      42.990 -15.874   3.525  1.00  0.00     0.102 A 
HETATM   24  C   UNL     1      43.120 -15.109   2.364  1.00  0.00     0.040 A 
HETATM   25  C   UNL     1      43.138 -13.714   2.443  1.00  0.00     0.004 A 
HETATM   26  C   UNL     1      43.025 -13.079   3.681  1.00  0.00     0.016 A 
BRANCH  22  27
HETATM   27  O   UNL     1      42.745 -15.993   5.899  1.00  0.00    -0.357 OA
HETATM   28  H   UNL     1      43.661 -16.208   6.166  1.00  0.00     0.218 HD
ENDBRANCH  22  27
BRANCH  23  29
HETATM   29  O   UNL     1      42.962 -17.246   3.583  1.00  0.00    -0.353 OA
HETATM   30  C   UNL     1      43.149 -17.937   2.352  1.00  0.00     0.210 C 
ENDBRANCH  23  29
ENDBRANCH  20  21
ENDBRANCH   1  19
TORSDOF 5
ENDMDL
MODEL 5
REMARK VINA RESULT:      -8.2      2.340      9.904
REMARK  5 active torsions:
REMARK  status: ('A' for Active; 'I' for Inactive)
REMARK    1  A    between atoms: O_2  and  C_3 
REMARK    2  A    between atoms: C_4  and  O_5 
REMARK    3  A    between atoms: C_6  and  C_7 
REMARK    4  A    between atoms: N_8  and  N_9 
REMARK       I    between atoms: N_9  and  C_10 
REMARK    5  A    between atoms: C_10  and  C_11 
ROOT
HETATM    1  N   UNL     1      43.145 -12.868   6.872  1.00  0.00    -0.242 N 
HETATM    2  C   UNL     1      43.817 -11.678   6.639  1.00  0.00     0.292 C 
HETATM    3  O   UNL     1      44.801 -11.554   5.914  1.00  0.00    -0.264 OA
HETATM    4  H   UNL     1      42.347 -12.846   7.503  1.00  0.00     0.192 HD
ENDROOT
BRANCH   2   5
HETATM    5  C   UNL     1      43.230 -10.540   7.368  1.00  0.00     0.154 A 
HETATM    6  N   UNL     1      42.362  -9.678   6.789  1.00  0.00    -0.168 NA
HETATM    7  N   UNL     1      42.051  -8.808   7.776  1.00  0.00    -0.276 N 
HETATM    8  H   UNL     1      41.407  -8.054   7.568  1.00  0.00     0.189 HD
HETATM    9  C   UNL     1      42.674  -9.076   8.956  1.00  0.00     0.069 A 
HETATM   10  C   UNL     1      43.454 -10.187   8.723  1.00  0.00     0.007 A 
HETATM   11  C   UNL     1      42.593  -8.385  10.232  1.00  0.00    -0.001 A 
HETATM   12  C   UNL     1      44.274 -10.805   9.799  1.00  0.00     0.048 C 
HETATM   13  C   UNL     1      44.639  -9.768  10.886  1.00  0.00     0.044 C 
HETATM   14  C   UNL     1      43.536  -8.768  11.219  1.00  0.00    -0.045 A 
HETATM   15  C   UNL     1      43.510  -8.151  12.475  1.00  0.00     0.008 A 
HETATM   16  C   UNL     1      42.546  -7.183  12.758  1.00  0.00     0.001 A 
HETATM   17  C   UNL     1      41.613  -6.816  11.788  1.00  0.00     0.001 A 
HETATM   18  C   UNL     1      41.635  -7.412  10.525  1.00  0.00     0.014 A 
ENDBRANCH   2   5
BRANCH   1  19
HETATM   19  N   UNL     1      43.561 -14.020   6.280  1.00  0.00    -0.183 NA
HETATM   20  C   UNL     1      42.691 -14.635   5.545  1.00  0.00     0.153 C 
BRANCH  20  21
HETATM   21  C   UNL     1      43.048 -15.896   4.859  1.00  0.00     0.019 A 
HETATM   22  C   UNL     1      43.332 -17.050   5.588  1.00  0.00     0.110 A 
HETATM   23  C   UNL     1      43.680 -18.244   4.936  1.00  0.00     0.102 A 
HETATM   24  C   UNL     1      43.733 -18.272   3.540  1.00  0.00     0.040 A 
HETATM   25  C   UNL     1      43.447 -17.118   2.806  1.00  0.00     0.004 A 
HETATM   26  C   UNL     1      43.107 -15.933   3.462  1.00  0.00     0.016 A 
BRANCH  22  27
HETATM   27  O   UNL     1      43.283 -17.038   6.960  1.00  0.00    -0.357 OA
HETATM   28  H   UNL     1      43.128 -16.103   7.200  1.00  0.00     0.218 HD
ENDBRANCH  22  27
BRANCH  23  29
HETATM   29  O   UNL     1      43.940 -19.304   5.769  1.00  0.00    -0.353 OA
HETATM   30  C   UNL     1      44.052 -20.583   5.154  1.00  0.00     0.210 C 
ENDBRANCH  23  29
ENDBRANCH  20  21
ENDBRANCH   1  19
TORSDOF 5
ENDMDL
MODEL 6
REMARK VINA RESULT:      -8.1      1.717      2.287
REMARK  5 active torsions:
REMARK  status: ('A' for Active; 'I' for Inactive)
REMARK    1  A    between atoms: O_2  and  C_3 
REMARK    2  A    between atoms: C_4  and  O_5 
REMARK    3  A    between atoms: C_6  and  C_7 
REMARK    4  A    between atoms: N_8  and  N_9 
REMARK       I    between atoms: N_9  and  C_10 
REMARK    5  A    between atoms: C_10  and  C_11 
ROOT
HETATM    1  N   UNL     1      41.683 -11.761   5.845  1.00  0.00    -0.242 N 
HETATM    2  C   UNL     1      40.631 -12.664   5.823  1.00  0.00     0.292 C 
HETATM    3  O   UNL     1      39.607 -12.572   6.496  1.00  0.00    -0.264 OA
HETATM    4  H   UNL     1      42.484 -11.952   5.248  1.00  0.00     0.192 HD
ENDROOT
BRANCH   2   5
HETATM    5  C   UNL     1      40.861 -13.785   4.894  1.00  0.00     0.154 A 
HETATM    6  N   UNL     1      40.180 -13.914   3.731  1.00  0.00    -0.168 NA
HETATM    7  N   UNL     1      40.687 -15.037   3.174  1.00  0.00    -0.276 N 
HETATM    8  H   UNL     1      40.316 -15.341   2.281  1.00  0.00     0.189 HD
HETATM    9  C   UNL     1      41.659 -15.625   3.921  1.00  0.00     0.069 A 
HETATM   10  C   UNL     1      41.790 -14.845   5.048  1.00  0.00     0.007 A 
HETATM   11  C   UNL     1      42.438 -16.825   3.661  1.00  0.00    -0.001 A 
HETATM   12  C   UNL     1      42.790 -15.157   6.103  1.00  0.00     0.048 C 
HETATM   13  C   UNL     1      43.136 -16.664   6.113  1.00  0.00     0.044 C 
HETATM   14  C   UNL     1      43.223 -17.314   4.736  1.00  0.00    -0.045 A 
HETATM   15  C   UNL     1      44.006 -18.460   4.553  1.00  0.00     0.008 A 
HETATM   16  C   UNL     1      44.030 -19.100   3.314  1.00  0.00     0.001 A 
HETATM   17  C   UNL     1      43.265 -18.609   2.255  1.00  0.00     0.001 A 
HETATM   18  C   UNL     1      42.468 -17.475   2.425  1.00  0.00     0.014 A 
ENDBRANCH   2   5
BRANCH   1  19
HETATM   19  N   UNL     1      41.634 -10.670   6.656  1.00  0.00    -0.183 NA
HETATM   20  C   UNL     1      42.697 -10.424   7.352  1.00  0.00     0.153 C 
BRANCH  20  21
HETATM   21  C   UNL     1      42.741  -9.260   8.263  1.00  0.00     0.019 A 
HETATM   22  C   UNL     1      41.689  -8.997   9.140  1.00  0.00     0.110 A 
HETATM   23  C   UNL     1      41.729  -7.887   9.998  1.00  0.00     0.102 A 
HETATM   24  C   UNL     1      42.842  -7.043   9.975  1.00  0.00     0.040 A 
HETATM   25  C   UNL     1      43.900  -7.303   9.100  1.00  0.00     0.004 A 
HETATM   26  C   UNL     1      43.850  -8.406   8.246  1.00  0.00     0.016 A 
BRANCH  22  27
HETATM   27  O   UNL     1      40.590  -9.818   9.175  1.00  0.00    -0.357 OA
HETATM   28  H   UNL     1      40.327  -9.932   8.239  1.00  0.00     0.218 HD
ENDBRANCH  22  27
BRANCH  23  29
HETATM   29  O   UNL     1      40.629  -7.740  10.806  1.00  0.00    -0.353 OA
HETATM   30  C   UNL     1      40.856  -7.813  12.209  1.00  0.00     0.210 C 
ENDBRANCH  23  29
ENDBRANCH  20  21
ENDBRANCH   1  19
TORSDOF 5
ENDMDL
MODEL 7
REMARK VINA RESULT:      -7.9      3.971      5.117
REMARK  5 active torsions:
REMARK  status: ('A' for Active; 'I' for Inactive)
REMARK    1  A    between atoms: O_2  and  C_3 
REMARK    2  A    between atoms: C_4  and  O_5 
REMARK    3  A    between atoms: C_6  and  C_7 
REMARK    4  A    between atoms: N_8  and  N_9 
REMARK       I    between atoms: N_9  and  C_10 
REMARK    5  A    between atoms: C_10  and  C_11 
ROOT
HETATM    1  N   UNL     1      43.156 -12.655   3.211  1.00  0.00    -0.242 N 
HETATM    2  C   UNL     1      42.490 -13.190   4.303  1.00  0.00     0.292 C 
HETATM    3  O   UNL     1      41.579 -12.636   4.915  1.00  0.00    -0.264 OA
HETATM    4  H   UNL     1      43.902 -13.207   2.794  1.00  0.00     0.192 HD
ENDROOT
BRANCH   2   5
HETATM    5  C   UNL     1      42.993 -14.522   4.681  1.00  0.00     0.154 A 
HETATM    6  N   UNL     1      43.561 -14.768   5.885  1.00  0.00    -0.168 NA
HETATM    7  N   UNL     1      43.865 -16.085   5.846  1.00  0.00    -0.276 N 
HETATM    8  H   UNL     1      44.314 -16.500   6.653  1.00  0.00     0.189 HD
HETATM    9  C   UNL     1      43.513 -16.691   4.679  1.00  0.00     0.069 A 
HETATM   10  C   UNL     1      42.955 -15.703   3.898  1.00  0.00     0.007 A 
HETATM   11  C   UNL     1      43.666 -18.075   4.263  1.00  0.00    -0.001 A 
HETATM   12  C   UNL     1      42.418 -15.991   2.541  1.00  0.00     0.048 C 
HETATM   13  C   UNL     1      43.108 -17.227   1.920  1.00  0.00     0.044 C 
HETATM   14  C   UNL     1      43.408 -18.357   2.898  1.00  0.00    -0.045 A 
HETATM   15  C   UNL     1      43.526 -19.672   2.431  1.00  0.00     0.008 A 
HETATM   16  C   UNL     1      43.871 -20.698   3.310  1.00  0.00     0.001 A 
HETATM   17  C   UNL     1      44.114 -20.418   4.655  1.00  0.00     0.001 A 
HETATM   18  C   UNL     1      44.014 -19.110   5.134  1.00  0.00     0.014 A 
ENDBRANCH   2   5
BRANCH   1  19
HETATM   19  N   UNL     1      42.820 -11.426   2.736  1.00  0.00    -0.183 NA
HETATM   20  C   UNL     1      41.897 -11.393   1.829  1.00  0.00     0.153 C 
BRANCH  20  21
HETATM   21  C   UNL     1      41.462 -10.104   1.250  1.00  0.00     0.019 A 
HETATM   22  C   UNL     1      40.858  -9.130   2.045  1.00  0.00     0.110 A 
HETATM   23  C   UNL     1      40.438  -7.910   1.491  1.00  0.00     0.102 A 
HETATM   24  C   UNL     1      40.636  -7.671   0.129  1.00  0.00     0.040 A 
HETATM   25  C   UNL     1      41.242  -8.644  -0.671  1.00  0.00     0.004 A 
HETATM   26  C   UNL     1      41.653  -9.856  -0.114  1.00  0.00     0.016 A 
BRANCH  22  27
HETATM   27  O   UNL     1      40.657  -9.351   3.385  1.00  0.00    -0.357 OA
HETATM   28  H   UNL     1      40.816 -10.308   3.511  1.00  0.00     0.218 HD
ENDBRANCH  22  27
BRANCH  23  29
HETATM   29  O   UNL     1      39.854  -7.042   2.380  1.00  0.00    -0.353 OA
HETATM   30  C   UNL     1      40.499  -5.786   2.559  1.00  0.00     0.210 C 
ENDBRANCH  23  29
ENDBRANCH  20  21
ENDBRANCH   1  19
TORSDOF 5
ENDMDL
MODEL 8
REMARK VINA RESULT:      -7.8      6.948      9.918
REMARK  5 active torsions:
REMARK  status: ('A' for Active; 'I' for Inactive)
REMARK    1  A    between atoms: O_2  and  C_3 
REMARK    2  A    between atoms: C_4  and  O_5 
REMARK    3  A    between atoms: C_6  and  C_7 
REMARK    4  A    between atoms: N_8  and  N_9 
REMARK       I    between atoms: N_9  and  C_10 
REMARK    5  A    between atoms: C_10  and  C_11 
ROOT
HETATM    1  N   UNL     1      39.543 -14.534   0.377  1.00  0.00    -0.242 N 
HETATM    2  C   UNL     1      39.839 -13.537  -0.541  1.00  0.00     0.292 C 
HETATM    3  O   UNL     1      40.863 -12.857  -0.539  1.00  0.00    -0.264 OA
HETATM    4  H   UNL     1      38.655 -15.022   0.276  1.00  0.00     0.192 HD
ENDROOT
BRANCH   2   5
HETATM    5  C   UNL     1      38.778 -13.355  -1.548  1.00  0.00     0.154 A 
HETATM    6  N   UNL     1      38.611 -14.208  -2.587  1.00  0.00    -0.168 NA
HETATM    7  N   UNL     1      37.545 -13.712  -3.254  1.00  0.00    -0.276 N 
HETATM    8  H   UNL     1      37.234 -14.193  -4.089  1.00  0.00     0.189 HD
HETATM    9  C   UNL     1      37.022 -12.590  -2.688  1.00  0.00     0.069 A 
HETATM   10  C   UNL     1      37.805 -12.326  -1.587  1.00  0.00     0.007 A 
HETATM   11  C   UNL     1      35.887 -11.781  -3.100  1.00  0.00    -0.001 A 
HETATM   12  C   UNL     1      37.522 -11.178  -0.685  1.00  0.00     0.048 C 
HETATM   13  C   UNL     1      36.766 -10.056  -1.434  1.00  0.00     0.044 C 
HETATM   14  C   UNL     1      35.722 -10.540  -2.435  1.00  0.00    -0.045 A 
HETATM   15  C   UNL     1      34.644  -9.713  -2.774  1.00  0.00     0.008 A 
HETATM   16  C   UNL     1      33.728 -10.122  -3.743  1.00  0.00     0.001 A 
HETATM   17  C   UNL     1      33.887 -11.348  -4.387  1.00  0.00     0.001 A 
HETATM   18  C   UNL     1      34.965 -12.179  -4.071  1.00  0.00     0.014 A 
ENDBRANCH   2   5
BRANCH   1  19
HETATM   19  N   UNL     1      40.414 -14.826   1.379  1.00  0.00    -0.183 NA
HETATM   20  C   UNL     1      40.573 -16.080   1.655  1.00  0.00     0.153 C 
BRANCH  20  21
HETATM   21  C   UNL     1      41.499 -16.499   2.729  1.00  0.00     0.019 A 
HETATM   22  C   UNL     1      41.221 -16.211   4.065  1.00  0.00     0.110 A 
HETATM   23  C   UNL     1      42.106 -16.602   5.083  1.00  0.00     0.102 A 
HETATM   24  C   UNL     1      43.272 -17.293   4.749  1.00  0.00     0.040 A 
HETATM   25  C   UNL     1      43.554 -17.585   3.412  1.00  0.00     0.004 A 
HETATM   26  C   UNL     1      42.672 -17.189   2.405  1.00  0.00     0.016 A 
BRANCH  22  27
HETATM   27  O   UNL     1      40.078 -15.534   4.409  1.00  0.00    -0.357 OA
HETATM   28  H   UNL     1      39.559 -16.167   4.946  1.00  0.00     0.218 HD
ENDBRANCH  22  27
BRANCH  23  29
HETATM   29  O   UNL     1      41.717 -16.253   6.353  1.00  0.00    -0.353 OA
HETATM   30  C   UNL     1      42.475 -15.231   6.992  1.00  0.00     0.210 C 
ENDBRANCH  23  29
ENDBRANCH  20  21
ENDBRANCH   1  19
TORSDOF 5
ENDMDL
MODEL 9
REMARK VINA RESULT:      -7.8      3.999      5.446
REMARK  5 active torsions:
REMARK  status: ('A' for Active; 'I' for Inactive)
REMARK    1  A    between atoms: O_2  and  C_3 
REMARK    2  A    between atoms: C_4  and  O_5 
REMARK    3  A    between atoms: C_6  and  C_7 
REMARK    4  A    between atoms: N_8  and  N_9 
REMARK       I    between atoms: N_9  and  C_10 
REMARK    5  A    between atoms: C_10  and  C_11 
ROOT
HETATM    1  N   UNL     1      42.635 -12.923   3.886  1.00  0.00    -0.242 N 
HETATM    2  C   UNL     1      41.508 -13.716   3.735  1.00  0.00     0.292 C 
HETATM    3  O   UNL     1      40.817 -14.144   4.657  1.00  0.00    -0.264 OA
HETATM    4  H   UNL     1      43.131 -12.639   3.043  1.00  0.00     0.192 HD
ENDROOT
BRANCH   2   5
HETATM    5  C   UNL     1      41.206 -14.015   2.325  1.00  0.00     0.154 A 
HETATM    6  N   UNL     1      41.911 -14.924   1.610  1.00  0.00    -0.168 NA
HETATM    7  N   UNL     1      41.322 -14.918   0.393  1.00  0.00    -0.276 N 
HETATM    8  H   UNL     1      41.693 -15.529  -0.325  1.00  0.00     0.189 HD
HETATM    9  C   UNL     1      40.274 -14.055   0.299  1.00  0.00     0.069 A 
HETATM   10  C   UNL     1      40.179 -13.447   1.531  1.00  0.00     0.007 A 
HETATM   11  C   UNL     1      39.397 -13.771  -0.825  1.00  0.00    -0.001 A 
HETATM   12  C   UNL     1      39.119 -12.447   1.828  1.00  0.00     0.048 C 
HETATM   13  C   UNL     1      38.634 -11.749   0.537  1.00  0.00     0.044 C 
HETATM   14  C   UNL     1      38.534 -12.655  -0.686  1.00  0.00    -0.045 A 
HETATM   15  C   UNL     1      37.654 -12.329  -1.726  1.00  0.00     0.008 A 
HETATM   16  C   UNL     1      37.613 -13.114  -2.878  1.00  0.00     0.001 A 
HETATM   17  C   UNL     1      38.455 -14.219  -3.006  1.00  0.00     0.001 A 
HETATM   18  C   UNL     1      39.348 -14.549  -1.984  1.00  0.00     0.014 A 
ENDBRANCH   2   5
BRANCH   1  19
HETATM   19  N   UNL     1      43.057 -12.558   5.126  1.00  0.00    -0.183 NA
HETATM   20  C   UNL     1      43.919 -11.594   5.179  1.00  0.00     0.153 C 
BRANCH  20  21
HETATM   21  C   UNL     1      44.440 -11.126   6.481  1.00  0.00     0.019 A 
HETATM   22  C   UNL     1      43.571 -10.763   7.510  1.00  0.00     0.110 A 
HETATM   23  C   UNL     1      44.067 -10.311   8.744  1.00  0.00     0.102 A 
HETATM   24  C   UNL     1      45.447 -10.231   8.939  1.00  0.00     0.040 A 
HETATM   25  C   UNL     1      46.322 -10.595   7.912  1.00  0.00     0.004 A 
HETATM   26  C   UNL     1      45.821 -11.040   6.687  1.00  0.00     0.016 A 
BRANCH  22  27
HETATM   27  O   UNL     1      42.212 -10.837   7.333  1.00  0.00    -0.357 OA
HETATM   28  H   UNL     1      41.828 -10.424   8.132  1.00  0.00     0.218 HD
ENDBRANCH  22  27
BRANCH  23  29
HETATM   29  O   UNL     1      43.106  -9.982   9.668  1.00  0.00    -0.353 OA
HETATM   30  C   UNL     1      43.467  -9.007  10.640  1.00  0.00     0.210 C 
ENDBRANCH  23  29
ENDBRANCH  20  21
ENDBRANCH   1  19
TORSDOF 5
ENDMDL
MODEL 10
REMARK VINA RESULT:      -7.8      5.435      7.433
REMARK  5 active torsions:
REMARK  status: ('A' for Active; 'I' for Inactive)
REMARK    1  A    between atoms: O_2  and  C_3 
REMARK    2  A    between atoms: C_4  and  O_5 
REMARK    3  A    between atoms: C_6  and  C_7 
REMARK    4  A    between atoms: N_8  and  N_9 
REMARK       I    between atoms: N_9  and  C_10 
REMARK    5  A    between atoms: C_10  and  C_11 
ROOT
HETATM    1  N   UNL     1      41.557 -12.352   1.749  1.00  0.00    -0.242 N 
HETATM    2  C   UNL     1      40.602 -13.028   2.493  1.00  0.00     0.292 C 
HETATM    3  O   UNL     1      39.387 -12.877   2.385  1.00  0.00    -0.264 OA
HETATM    4  H   UNL     1      42.537 -12.556   1.938  1.00  0.00     0.192 HD
ENDROOT
BRANCH   2   5
HETATM    5  C   UNL     1      41.193 -13.970   3.460  1.00  0.00     0.154 A 
HETATM    6  N   UNL     1      41.161 -13.751   4.796  1.00  0.00    -0.168 NA
HETATM    7  N   UNL     1      41.780 -14.832   5.323  1.00  0.00    -0.276 N 
HETATM    8  H   UNL     1      41.881 -14.886   6.329  1.00  0.00     0.189 HD
HETATM    9  C   UNL     1      42.199 -15.729   4.389  1.00  0.00     0.069 A 
HETATM   10  C   UNL     1      41.844 -15.195   3.171  1.00  0.00     0.007 A 
HETATM   11  C   UNL     1      42.888 -16.998   4.558  1.00  0.00    -0.001 A 
HETATM   12  C   UNL     1      42.114 -15.912   1.895  1.00  0.00     0.048 C 
HETATM   13  C   UNL     1      43.313 -16.877   2.042  1.00  0.00     0.044 C 
HETATM   14  C   UNL     1      43.394 -17.604   3.381  1.00  0.00    -0.045 A 
HETATM   15  C   UNL     1      44.060 -18.833   3.468  1.00  0.00     0.008 A 
HETATM   16  C   UNL     1      44.200 -19.465   4.703  1.00  0.00     0.001 A 
HETATM   17  C   UNL     1      43.691 -18.872   5.858  1.00  0.00     0.001 A 
HETATM   18  C   UNL     1      43.036 -17.640   5.790  1.00  0.00     0.014 A 
ENDBRANCH   2   5
BRANCH   1  19
HETATM   19  N   UNL     1      41.181 -11.439   0.815  1.00  0.00    -0.183 NA
HETATM   20  C   UNL     1      41.145 -11.853  -0.411  1.00  0.00     0.153 C 
BRANCH  20  21
HETATM   21  C   UNL     1      40.748 -10.935  -1.500  1.00  0.00     0.019 A 
HETATM   22  C   UNL     1      41.452  -9.754  -1.732  1.00  0.00     0.110 A 
HETATM   23  C   UNL     1      41.069  -8.879  -2.762  1.00  0.00     0.102 A 
HETATM   24  C   UNL     1      39.972  -9.204  -3.563  1.00  0.00     0.040 A 
HETATM   25  C   UNL     1      39.264 -10.387  -3.336  1.00  0.00     0.004 A 
HETATM   26  C   UNL     1      39.649 -11.250  -2.308  1.00  0.00     0.016 A 
BRANCH  22  27
HETATM   27  O   UNL     1      42.532  -9.422  -0.953  1.00  0.00    -0.357 OA
HETATM   28  H   UNL     1      42.208  -8.720  -0.354  1.00  0.00     0.218 HD
ENDBRANCH  22  27
BRANCH  23  29
HETATM   29  O   UNL     1      41.842  -7.751  -2.880  1.00  0.00    -0.353 OA
HETATM   30  C   UNL     1      42.261  -7.402  -4.196  1.00  0.00     0.210 C 
ENDBRANCH  23  29
ENDBRANCH  20  21
ENDBRANCH   1  19
TORSDOF 5
ENDMDL
