MODEL 1
REMARK VINA RESULT:      -9.9      0.000      0.000
REMARK  11 active torsions:
REMARK  status: ('A' for Active; 'I' for Inactive)
REMARK    1  A    between atoms: C_8  and  C_9 
REMARK    2  A    between atoms: C_9  and  C_10 
REMARK    3  A    between atoms: N_14  and  C_15 
REMARK    4  A    between atoms: C_15  and  C_16 
REMARK    5  A    between atoms: C_16  and  C_17 
REMARK    6  A    between atoms: C_20  and  O_21 
REMARK    7  A    between atoms: C_27  and  N_28 
REMARK    8  A    between atoms: N_28  and  C_29 
REMARK    9  A    between atoms: C_29  and  C_30 
REMARK   10  A    between atoms: C_30  and  O_31 
REMARK   11  A    between atoms: C_30  and  C_32 
ROOT
HETATM    1  C   UNL     1      40.189 -16.053   1.862  1.00  0.00     0.052 C 
HETATM    2  C   UNL     1      40.583 -14.628   1.633  1.00  0.00    -0.015 A 
HETATM    3  C   UNL     1      41.498 -13.985   2.642  1.00  0.00     0.144 A 
HETATM    4  N   UNL     1      41.870 -14.663   3.679  1.00  0.00    -0.217 NA
HETATM    5  N   UNL     1      41.897 -12.685   2.391  1.00  0.00    -0.272 N 
HETATM    6  C   UNL     1      42.797 -12.072   3.247  1.00  0.00     0.266 C 
HETATM    7  O   UNL     1      43.325 -10.978   3.022  1.00  0.00    -0.267 OA
HETATM    8  C   UNL     1      43.137 -12.818   4.498  1.00  0.00     0.074 C 
HETATM    9  C   UNL     1      42.670 -14.080   4.625  1.00  0.00     0.121 C 
HETATM   10  C   UNL     1      41.442 -11.992   1.277  1.00  0.00     0.102 A 
HETATM   11  C   UNL     1      40.599 -12.546   0.398  1.00  0.00     0.018 A 
HETATM   12  C   UNL     1      40.167 -13.905   0.581  1.00  0.00     0.012 A 
ENDROOT
BRANCH   8  13
HETATM   13  C   UNL     1      43.913 -12.129   5.521  1.00  0.00     0.045 C 
BRANCH  13  14
HETATM   14  C   UNL     1      43.421 -11.313   6.464  1.00  0.00     0.077 A 
HETATM   15  S   UNL     1      41.903 -10.518   6.473  1.00  0.00    -0.055 SA
HETATM   16  C   UNL     1      42.244  -9.695   7.985  1.00  0.00     0.148 A 
HETATM   17  S   UNL     1      41.168  -8.601   8.647  1.00  0.00    -0.052 SA
HETATM   18  N   UNL     1      43.473 -10.098   8.489  1.00  0.00    -0.298 N 
HETATM   19  C   UNL     1      44.191 -10.975   7.692  1.00  0.00     0.266 A 
HETATM   20  O   UNL     1      45.301 -11.436   7.913  1.00  0.00    -0.266 OA
BRANCH  18  21
HETATM   21  C   UNL     1      43.960  -9.598   9.787  1.00  0.00     0.138 C 
BRANCH  21  22
HETATM   22  C   UNL     1      43.561 -10.344  11.067  1.00  0.00     0.059 C 
BRANCH  22  23
HETATM   23  C   UNL     1      42.913  -9.514  12.160  1.00  0.00    -0.057 A 
HETATM   24  C   UNL     1      41.792  -9.919  12.892  1.00  0.00     0.010 A 
HETATM   25  C   UNL     1      41.285  -9.116  13.920  1.00  0.00     0.037 A 
HETATM   26  C   UNL     1      41.884  -7.899  14.241  1.00  0.00     0.068 A 
HETATM   27  C   UNL     1      42.990  -7.476  13.509  1.00  0.00     0.037 A 
HETATM   28  C   UNL     1      43.500  -8.278  12.481  1.00  0.00     0.010 A 
BRANCH  26  29
HETATM   29  O   UNL     1      41.297  -7.226  15.277  1.00  0.00    -0.356 OA
HETATM   30  C   UNL     1      41.319  -7.863  16.548  1.00  0.00     0.210 C 
ENDBRANCH  26  29
ENDBRANCH  22  23
ENDBRANCH  21  22
ENDBRANCH  18  21
ENDBRANCH  13  14
ENDBRANCH   8  13
BRANCH   9  31
HETATM   31  N   UNL     1      42.905 -14.872   5.747  1.00  0.00    -0.274 NA
HETATM   32  H   UNL     1      42.449 -14.367   6.517  1.00  0.00     0.129 HD
BRANCH  31  33
HETATM   33  C   UNL     1      42.426 -16.263   5.831  1.00  0.00     0.130 C 
BRANCH  33  34
HETATM   34  C   UNL     1      43.606 -17.266   5.854  1.00  0.00     0.164 C 
BRANCH  34  35
HETATM   35  O   UNL     1      44.851 -16.554   5.917  1.00  0.00    -0.390 OA
HETATM   36  H   UNL     1      45.264 -16.781   6.768  1.00  0.00     0.210 HD
ENDBRANCH  34  35
BRANCH  34  37
HETATM   37  C   UNL     1      43.620 -18.248   4.697  1.00  0.00    -0.029 A 
HETATM   38  C   UNL     1      43.253 -17.825   3.411  1.00  0.00     0.010 A 
HETATM   39  C   UNL     1      43.251 -18.721   2.340  1.00  0.00     0.001 A 
HETATM   40  C   UNL     1      43.613 -20.051   2.542  1.00  0.00     0.000 A 
HETATM   41  C   UNL     1      43.980 -20.486   3.812  1.00  0.00     0.001 A 
HETATM   42  C   UNL     1      43.984 -19.590   4.883  1.00  0.00     0.010 A 
ENDBRANCH  34  37
ENDBRANCH  33  34
ENDBRANCH  31  33
ENDBRANCH   9  31
TORSDOF 11
ENDMDL
MODEL 2
REMARK VINA RESULT:      -9.5      2.490     10.391
REMARK  11 active torsions:
REMARK  status: ('A' for Active; 'I' for Inactive)
REMARK    1  A    between atoms: C_8  and  C_9 
REMARK    2  A    between atoms: C_9  and  C_10 
REMARK    3  A    between atoms: N_14  and  C_15 
REMARK    4  A    between atoms: C_15  and  C_16 
REMARK    5  A    between atoms: C_16  and  C_17 
REMARK    6  A    between atoms: C_20  and  O_21 
REMARK    7  A    between atoms: C_27  and  N_28 
REMARK    8  A    between atoms: N_28  and  C_29 
REMARK    9  A    between atoms: C_29  and  C_30 
REMARK   10  A    between atoms: C_30  and  O_31 
REMARK   11  A    between atoms: C_30  and  C_32 
ROOT
HETATM    1  C   UNL     1      44.363  -7.578   8.948  1.00  0.00     0.052 C 
HETATM    2  C   UNL     1      44.750  -8.867   8.293  1.00  0.00    -0.015 A 
HETATM    3  C   UNL     1      43.656  -9.679   7.652  1.00  0.00     0.144 A 
HETATM    4  N   UNL     1      42.433  -9.264   7.726  1.00  0.00    -0.217 NA
HETATM    5  N   UNL     1      44.033 -10.842   7.004  1.00  0.00    -0.272 N 
HETATM    6  C   UNL     1      43.079 -11.588   6.333  1.00  0.00     0.266 C 
HETATM    7  O   UNL     1      43.344 -12.549   5.604  1.00  0.00    -0.267 OA
HETATM    8  C   UNL     1      41.656 -11.163   6.514  1.00  0.00     0.074 C 
HETATM    9  C   UNL     1      41.424 -10.011   7.181  1.00  0.00     0.121 C 
HETATM   10  C   UNL     1      45.358 -11.259   6.981  1.00  0.00     0.102 A 
HETATM   11  C   UNL     1      46.327 -10.560   7.583  1.00  0.00     0.018 A 
HETATM   12  C   UNL     1      46.010  -9.326   8.249  1.00  0.00     0.012 A 
ENDROOT
BRANCH   8  13
HETATM   13  C   UNL     1      40.607 -12.034   6.001  1.00  0.00     0.045 C 
BRANCH  13  14
HETATM   14  C   UNL     1      40.526 -12.515   4.752  1.00  0.00     0.077 A 
HETATM   15  S   UNL     1      40.376 -11.626   3.295  1.00  0.00    -0.055 SA
HETATM   16  C   UNL     1      40.273 -13.080   2.316  1.00  0.00     0.148 A 
HETATM   17  S   UNL     1      40.027 -13.007   0.664  1.00  0.00    -0.052 SA
HETATM   18  N   UNL     1      40.428 -14.209   3.109  1.00  0.00    -0.298 N 
HETATM   19  C   UNL     1      40.552 -13.976   4.469  1.00  0.00     0.266 A 
HETATM   20  O   UNL     1      40.666 -14.811   5.355  1.00  0.00    -0.266 OA
BRANCH  18  21
HETATM   21  C   UNL     1      40.446 -15.557   2.512  1.00  0.00     0.138 C 
BRANCH  21  22
HETATM   22  C   UNL     1      41.734 -16.057   1.847  1.00  0.00     0.059 C 
BRANCH  22  23
HETATM   23  C   UNL     1      42.558 -17.059   2.635  1.00  0.00    -0.057 A 
HETATM   24  C   UNL     1      42.926 -16.891   3.974  1.00  0.00     0.010 A 
HETATM   25  C   UNL     1      43.645 -17.887   4.645  1.00  0.00     0.037 A 
HETATM   26  C   UNL     1      44.009 -19.068   3.999  1.00  0.00     0.068 A 
HETATM   27  C   UNL     1      43.664 -19.239   2.661  1.00  0.00     0.037 A 
HETATM   28  C   UNL     1      42.945 -18.245   1.988  1.00  0.00     0.010 A 
BRANCH  26  29
HETATM   29  O   UNL     1      44.692 -19.961   4.777  1.00  0.00    -0.356 OA
HETATM   30  C   UNL     1      43.919 -20.761   5.662  1.00  0.00     0.210 C 
ENDBRANCH  26  29
ENDBRANCH  22  23
ENDBRANCH  21  22
ENDBRANCH  18  21
ENDBRANCH  13  14
ENDBRANCH   8  13
BRANCH   9  31
HETATM   31  N   UNL     1      40.145  -9.516   7.427  1.00  0.00    -0.274 NA
HETATM   32  H   UNL     1      39.573 -10.354   7.592  1.00  0.00     0.129 HD
BRANCH  31  33
HETATM   33  C   UNL     1      39.866  -8.606   8.553  1.00  0.00     0.130 C 
BRANCH  33  34
HETATM   34  C   UNL     1      39.918  -9.352   9.909  1.00  0.00     0.164 C 
BRANCH  34  35
HETATM   35  O   UNL     1      38.664  -9.208  10.594  1.00  0.00    -0.390 OA
HETATM   36  H   UNL     1      38.294  -8.348  10.328  1.00  0.00     0.210 HD
ENDBRANCH  34  35
BRANCH  34  37
HETATM   37  C   UNL     1      41.062  -8.937  10.814  1.00  0.00    -0.029 A 
HETATM   38  C   UNL     1      41.153  -7.613  11.269  1.00  0.00     0.010 A 
HETATM   39  C   UNL     1      42.208  -7.214  12.093  1.00  0.00     0.001 A 
HETATM   40  C   UNL     1      43.185  -8.133  12.470  1.00  0.00     0.000 A 
HETATM   41  C   UNL     1      43.108  -9.450  12.027  1.00  0.00     0.001 A 
HETATM   42  C   UNL     1      42.054  -9.850  11.204  1.00  0.00     0.010 A 
ENDBRANCH  34  37
ENDBRANCH  33  34
ENDBRANCH  31  33
ENDBRANCH   9  31
TORSDOF 11
ENDMDL
MODEL 3
REMARK VINA RESULT:      -9.4      3.395      9.678
REMARK  11 active torsions:
REMARK  status: ('A' for Active; 'I' for Inactive)
REMARK    1  A    between atoms: C_8  and  C_9 
REMARK    2  A    between atoms: C_9  and  C_10 
REMARK    3  A    between atoms: N_14  and  C_15 
REMARK    4  A    between atoms: C_15  and  C_16 
REMARK    5  A    between atoms: C_16  and  C_17 
REMARK    6  A    between atoms: C_20  and  O_21 
REMARK    7  A    between atoms: C_27  and  N_28 
REMARK    8  A    between atoms: N_28  and  C_29 
REMARK    9  A    between atoms: C_29  and  C_30 
REMARK   10  A    between atoms: C_30  and  O_31 
REMARK   11  A    between atoms: C_30  and  C_32 
ROOT
HETATM    1  C   UNL     1      42.703  -7.420   8.158  1.00  0.00     0.052 C 
HETATM    2  C   UNL     1      41.358  -7.299   7.513  1.00  0.00    -0.015 A 
HETATM    3  C   UNL     1      40.753  -8.544   6.922  1.00  0.00     0.144 A 
HETATM    4  N   UNL     1      41.424  -9.650   6.953  1.00  0.00    -0.217 NA
HETATM    5  N   UNL     1      39.487  -8.431   6.375  1.00  0.00    -0.272 N 
HETATM    6  C   UNL     1      38.853  -9.560   5.886  1.00  0.00     0.266 C 
HETATM    7  O   UNL     1      37.673  -9.584   5.523  1.00  0.00    -0.267 OA
HETATM    8  C   UNL     1      39.674 -10.809   5.825  1.00  0.00     0.074 C 
HETATM    9  C   UNL     1      40.904 -10.781   6.386  1.00  0.00     0.121 C 
HETATM   10  C   UNL     1      38.822  -7.212   6.341  1.00  0.00     0.102 A 
HETATM   11  C   UNL     1      39.373  -6.095   6.830  1.00  0.00     0.018 A 
HETATM   12  C   UNL     1      40.674  -6.146   7.440  1.00  0.00     0.012 A 
ENDROOT
BRANCH   8  13
HETATM   13  C   UNL     1      39.120 -11.963   5.130  1.00  0.00     0.045 C 
BRANCH  13  14
HETATM   14  C   UNL     1      39.459 -12.379   3.902  1.00  0.00     0.077 A 
HETATM   15  S   UNL     1      38.863 -11.805   2.401  1.00  0.00    -0.055 SA
HETATM   16  C   UNL     1      39.802 -12.970   1.483  1.00  0.00     0.148 A 
HETATM   17  S   UNL     1      39.681 -13.074  -0.181  1.00  0.00    -0.052 SA
HETATM   18  N   UNL     1      40.605 -13.720   2.331  1.00  0.00    -0.298 N 
HETATM   19  C   UNL     1      40.454 -13.464   3.684  1.00  0.00     0.266 A 
HETATM   20  O   UNL     1      41.027 -14.020   4.611  1.00  0.00    -0.266 OA
BRANCH  18  21
HETATM   21  C   UNL     1      41.542 -14.725   1.795  1.00  0.00     0.138 C 
BRANCH  21  22
HETATM   22  C   UNL     1      41.198 -16.213   1.943  1.00  0.00     0.059 C 
BRANCH  22  23
HETATM   23  C   UNL     1      42.189 -17.062   2.717  1.00  0.00    -0.057 A 
HETATM   24  C   UNL     1      42.610 -16.785   4.022  1.00  0.00     0.010 A 
HETATM   25  C   UNL     1      43.489 -17.648   4.686  1.00  0.00     0.037 A 
HETATM   26  C   UNL     1      43.964 -18.804   4.066  1.00  0.00     0.068 A 
HETATM   27  C   UNL     1      43.566 -19.082   2.761  1.00  0.00     0.037 A 
HETATM   28  C   UNL     1      42.686 -18.221   2.096  1.00  0.00     0.010 A 
BRANCH  26  29
HETATM   29  O   UNL     1      44.801 -19.564   4.835  1.00  0.00    -0.356 OA
HETATM   30  C   UNL     1      44.312 -20.834   5.248  1.00  0.00     0.210 C 
ENDBRANCH  26  29
ENDBRANCH  22  23
ENDBRANCH  21  22
ENDBRANCH  18  21
ENDBRANCH  13  14
ENDBRANCH   8  13
BRANCH   9  31
HETATM   31  N   UNL     1      41.769 -11.873   6.381  1.00  0.00    -0.274 NA
HETATM   32  H   UNL     1      41.326 -12.549   5.746  1.00  0.00     0.129 HD
BRANCH  31  33
HETATM   33  C   UNL     1      43.169 -11.754   5.937  1.00  0.00     0.130 C 
BRANCH  33  34
HETATM   34  C   UNL     1      44.153 -12.230   7.034  1.00  0.00     0.164 C 
BRANCH  34  35
HETATM   35  O   UNL     1      43.514 -13.207   7.871  1.00  0.00    -0.390 OA
HETATM   36  H   UNL     1      43.247 -12.750   8.687  1.00  0.00     0.210 HD
ENDBRANCH  34  35
BRANCH  34  37
HETATM   37  C   UNL     1      44.739 -11.117   7.881  1.00  0.00    -0.029 A 
HETATM   38  C   UNL     1      44.228 -10.864   9.163  1.00  0.00     0.010 A 
HETATM   39  C   UNL     1      44.751  -9.834   9.948  1.00  0.00     0.001 A 
HETATM   40  C   UNL     1      45.789  -9.044   9.461  1.00  0.00     0.000 A 
HETATM   41  C   UNL     1      46.308  -9.282   8.191  1.00  0.00     0.001 A 
HETATM   42  C   UNL     1      45.787 -10.312   7.406  1.00  0.00     0.010 A 
ENDBRANCH  34  37
ENDBRANCH  33  34
ENDBRANCH  31  33
ENDBRANCH   9  31
TORSDOF 11
ENDMDL
MODEL 4
REMARK VINA RESULT:      -9.3      5.107      8.576
REMARK  11 active torsions:
REMARK  status: ('A' for Active; 'I' for Inactive)
REMARK    1  A    between atoms: C_8  and  C_9 
REMARK    2  A    between atoms: C_9  and  C_10 
REMARK    3  A    between atoms: N_14  and  C_15 
REMARK    4  A    between atoms: C_15  and  C_16 
REMARK    5  A    between atoms: C_16  and  C_17 
REMARK    6  A    between atoms: C_20  and  O_21 
REMARK    7  A    between atoms: C_27  and  N_28 
REMARK    8  A    between atoms: N_28  and  C_29 
REMARK    9  A    between atoms: C_29  and  C_30 
REMARK   10  A    between atoms: C_30  and  O_31 
REMARK   11  A    between atoms: C_30  and  C_32 
ROOT
HETATM    1  C   UNL     1      43.606 -19.836   1.643  1.00  0.00     0.052 C 
HETATM    2  C   UNL     1      43.706 -19.855   3.136  1.00  0.00    -0.015 A 
HETATM    3  C   UNL     1      43.586 -18.541   3.861  1.00  0.00     0.144 A 
HETATM    4  N   UNL     1      43.445 -17.452   3.177  1.00  0.00    -0.217 NA
HETATM    5  N   UNL     1      43.627 -18.578   5.244  1.00  0.00    -0.272 N 
HETATM    6  C   UNL     1      43.446 -17.409   5.962  1.00  0.00     0.266 C 
HETATM    7  O   UNL     1      43.314 -17.368   7.189  1.00  0.00    -0.267 OA
HETATM    8  C   UNL     1      43.394 -16.142   5.167  1.00  0.00     0.074 C 
HETATM    9  C   UNL     1      43.373 -16.246   3.820  1.00  0.00     0.121 C 
HETATM   10  C   UNL     1      43.811 -19.772   5.928  1.00  0.00     0.102 A 
HETATM   11  C   UNL     1      43.957 -20.937   5.287  1.00  0.00     0.018 A 
HETATM   12  C   UNL     1      43.894 -20.976   3.851  1.00  0.00     0.012 A 
ENDROOT
BRANCH   8  13
HETATM   13  C   UNL     1      43.412 -14.876   5.888  1.00  0.00     0.045 C 
BRANCH  13  14
HETATM   14  C   UNL     1      42.815 -13.741   5.498  1.00  0.00     0.077 A 
HETATM   15  S   UNL     1      43.555 -12.237   5.145  1.00  0.00    -0.055 SA
HETATM   16  C   UNL     1      42.015 -11.451   4.841  1.00  0.00     0.148 A 
HETATM   17  S   UNL     1      41.920  -9.822   4.479  1.00  0.00    -0.052 SA
HETATM   18  N   UNL     1      40.976 -12.367   4.942  1.00  0.00    -0.298 N 
HETATM   19  C   UNL     1      41.340 -13.648   5.323  1.00  0.00     0.266 A 
HETATM   20  O   UNL     1      40.599 -14.604   5.506  1.00  0.00    -0.266 OA
BRANCH  18  21
HETATM   21  C   UNL     1      39.584 -11.967   4.665  1.00  0.00     0.138 C 
BRANCH  21  22
HETATM   22  C   UNL     1      38.898 -12.498   3.400  1.00  0.00     0.059 C 
BRANCH  22  23
HETATM   23  C   UNL     1      38.633 -11.487   2.299  1.00  0.00    -0.057 A 
HETATM   24  C   UNL     1      39.340 -10.290   2.146  1.00  0.00     0.010 A 
HETATM   25  C   UNL     1      39.068  -9.435   1.071  1.00  0.00     0.037 A 
HETATM   26  C   UNL     1      38.091  -9.755   0.129  1.00  0.00     0.068 A 
HETATM   27  C   UNL     1      37.369 -10.935   0.280  1.00  0.00     0.037 A 
HETATM   28  C   UNL     1      37.639 -11.793   1.353  1.00  0.00     0.010 A 
BRANCH  26  29
HETATM   29  O   UNL     1      37.942  -8.840  -0.876  1.00  0.00    -0.356 OA
HETATM   30  C   UNL     1      37.718  -9.356  -2.182  1.00  0.00     0.210 C 
ENDBRANCH  26  29
ENDBRANCH  22  23
ENDBRANCH  21  22
ENDBRANCH  18  21
ENDBRANCH  13  14
ENDBRANCH   8  13
BRANCH   9  31
HETATM   31  N   UNL     1      43.340 -15.142   2.970  1.00  0.00    -0.274 NA
HETATM   32  H   UNL     1      44.327 -14.962   2.745  1.00  0.00     0.129 HD
BRANCH  31  33
HETATM   33  C   UNL     1      42.627 -15.174   1.680  1.00  0.00     0.130 C 
BRANCH  33  34
HETATM   34  C   UNL     1      41.236 -14.503   1.787  1.00  0.00     0.164 C 
BRANCH  34  35
HETATM   35  O   UNL     1      40.305 -15.404   2.407  1.00  0.00    -0.390 OA
HETATM   36  H   UNL     1      40.476 -16.287   2.036  1.00  0.00     0.210 HD
ENDBRANCH  34  35
BRANCH  34  37
HETATM   37  C   UNL     1      40.678 -13.995   0.471  1.00  0.00    -0.029 A 
HETATM   38  C   UNL     1      41.073 -12.743  -0.024  1.00  0.00     0.010 A 
HETATM   39  C   UNL     1      40.558 -12.259  -1.228  1.00  0.00     0.001 A 
HETATM   40  C   UNL     1      39.640 -13.017  -1.950  1.00  0.00     0.000 A 
HETATM   41  C   UNL     1      39.238 -14.262  -1.472  1.00  0.00     0.001 A 
HETATM   42  C   UNL     1      39.754 -14.748  -0.269  1.00  0.00     0.010 A 
ENDBRANCH  34  37
ENDBRANCH  33  34
ENDBRANCH  31  33
ENDBRANCH   9  31
TORSDOF 11
ENDMDL
MODEL 5
REMARK VINA RESULT:      -9.3      2.528      5.810
REMARK  11 active torsions:
REMARK  status: ('A' for Active; 'I' for Inactive)
REMARK    1  A    between atoms: C_8  and  C_9 
REMARK    2  A    between atoms: C_9  and  C_10 
REMARK    3  A    between atoms: N_14  and  C_15 
REMARK    4  A    between atoms: C_15  and  C_16 
REMARK    5  A    between atoms: C_16  and  C_17 
REMARK    6  A    between atoms: C_20  and  O_21 
REMARK    7  A    between atoms: C_27  and  N_28 
REMARK    8  A    between atoms: N_28  and  C_29 
REMARK    9  A    between atoms: C_29  and  C_30 
REMARK   10  A    between atoms: C_30  and  O_31 
REMARK   11  A    between atoms: C_30  and  C_32 
ROOT
HETATM    1  C   UNL     1      44.690 -17.247   5.201  1.00  0.00     0.052 C 
HETATM    2  C   UNL     1      43.591 -17.127   4.192  1.00  0.00    -0.015 A 
HETATM    3  C   UNL     1      42.632 -15.975   4.337  1.00  0.00     0.144 A 
HETATM    4  N   UNL     1      42.762 -15.166   5.338  1.00  0.00    -0.217 NA
HETATM    5  N   UNL     1      41.653 -15.845   3.368  1.00  0.00    -0.272 N 
HETATM    6  C   UNL     1      40.792 -14.762   3.411  1.00  0.00     0.266 C 
HETATM    7  O   UNL     1      39.993 -14.481   2.512  1.00  0.00    -0.267 OA
HETATM    8  C   UNL     1      40.877 -13.894   4.627  1.00  0.00     0.074 C 
HETATM    9  C   UNL     1      41.876 -14.137   5.505  1.00  0.00     0.121 C 
HETATM   10  C   UNL     1      41.539 -16.761   2.330  1.00  0.00     0.102 A 
HETATM   11  C   UNL     1      42.365 -17.807   2.219  1.00  0.00     0.018 A 
HETATM   12  C   UNL     1      43.424 -17.987   3.174  1.00  0.00     0.012 A 
ENDROOT
BRANCH   8  13
HETATM   13  C   UNL     1      39.858 -12.870   4.814  1.00  0.00     0.045 C 
BRANCH  13  14
HETATM   14  C   UNL     1      40.012 -11.558   4.588  1.00  0.00     0.077 A 
HETATM   15  S   UNL     1      40.014 -10.749   3.077  1.00  0.00    -0.055 SA
HETATM   16  C   UNL     1      40.347  -9.190   3.814  1.00  0.00     0.148 A 
HETATM   17  S   UNL     1      40.573  -7.816   2.888  1.00  0.00    -0.052 SA
HETATM   18  N   UNL     1      40.376  -9.305   5.197  1.00  0.00    -0.298 N 
HETATM   19  C   UNL     1      40.220 -10.587   5.697  1.00  0.00     0.266 A 
HETATM   20  O   UNL     1      40.243 -10.932   6.870  1.00  0.00    -0.266 OA
BRANCH  18  21
HETATM   21  C   UNL     1      40.573  -8.119   6.051  1.00  0.00     0.138 C 
BRANCH  21  22
HETATM   22  C   UNL     1      41.941  -7.897   6.708  1.00  0.00     0.059 C 
BRANCH  22  23
HETATM   23  C   UNL     1      41.945  -7.705   8.214  1.00  0.00    -0.057 A 
HETATM   24  C   UNL     1      41.107  -8.396   9.096  1.00  0.00     0.010 A 
HETATM   25  C   UNL     1      41.210  -8.198  10.477  1.00  0.00     0.037 A 
HETATM   26  C   UNL     1      42.146  -7.312  11.008  1.00  0.00     0.068 A 
HETATM   27  C   UNL     1      42.974  -6.605  10.140  1.00  0.00     0.037 A 
HETATM   28  C   UNL     1      42.875  -6.802   8.757  1.00  0.00     0.010 A 
BRANCH  26  29
HETATM   29  O   UNL     1      42.149  -7.228  12.373  1.00  0.00    -0.356 OA
HETATM   30  C   UNL     1      43.178  -7.934  13.054  1.00  0.00     0.210 C 
ENDBRANCH  26  29
ENDBRANCH  22  23
ENDBRANCH  21  22
ENDBRANCH  18  21
ENDBRANCH  13  14
ENDBRANCH   8  13
BRANCH   9  31
HETATM   31  N   UNL     1      42.052 -13.410   6.680  1.00  0.00    -0.274 NA
HETATM   32  H   UNL     1      41.690 -14.025   7.419  1.00  0.00     0.129 HD
BRANCH  31  33
HETATM   33  C   UNL     1      43.386 -12.974   7.131  1.00  0.00     0.130 C 
BRANCH  33  34
HETATM   34  C   UNL     1      43.608 -11.465   6.861  1.00  0.00     0.164 C 
BRANCH  34  35
HETATM   35  O   UNL     1      44.381 -11.292   5.663  1.00  0.00    -0.390 OA
HETATM   36  H   UNL     1      44.009 -10.526   5.193  1.00  0.00     0.210 HD
ENDBRANCH  34  35
BRANCH  34  37
HETATM   37  C   UNL     1      44.242 -10.705   8.010  1.00  0.00    -0.029 A 
HETATM   38  C   UNL     1      45.288  -9.803   7.764  1.00  0.00     0.010 A 
HETATM   39  C   UNL     1      45.889  -9.106   8.814  1.00  0.00     0.001 A 
HETATM   40  C   UNL     1      45.454  -9.303  10.122  1.00  0.00     0.000 A 
HETATM   41  C   UNL     1      44.417 -10.195  10.383  1.00  0.00     0.001 A 
HETATM   42  C   UNL     1      43.814 -10.891   9.333  1.00  0.00     0.010 A 
ENDBRANCH  34  37
ENDBRANCH  33  34
ENDBRANCH  31  33
ENDBRANCH   9  31
TORSDOF 11
ENDMDL
MODEL 6
REMARK VINA RESULT:      -9.2      2.847     10.015
REMARK  11 active torsions:
REMARK  status: ('A' for Active; 'I' for Inactive)
REMARK    1  A    between atoms: C_8  and  C_9 
REMARK    2  A    between atoms: C_9  and  C_10 
REMARK    3  A    between atoms: N_14  and  C_15 
REMARK    4  A    between atoms: C_15  and  C_16 
REMARK    5  A    between atoms: C_16  and  C_17 
REMARK    6  A    between atoms: C_20  and  O_21 
REMARK    7  A    between atoms: C_27  and  N_28 
REMARK    8  A    between atoms: N_28  and  C_29 
REMARK    9  A    between atoms: C_29  and  C_30 
REMARK   10  A    between atoms: C_30  and  O_31 
REMARK   11  A    between atoms: C_30  and  C_32 
ROOT
HETATM    1  C   UNL     1      41.771  -6.213   9.383  1.00  0.00     0.052 C 
HETATM    2  C   UNL     1      41.292  -6.550   8.005  1.00  0.00    -0.015 A 
HETATM    3  C   UNL     1      41.806  -7.819   7.379  1.00  0.00     0.144 A 
HETATM    4  N   UNL     1      42.665  -8.540   8.025  1.00  0.00    -0.217 NA
HETATM    5  N   UNL     1      41.316  -8.147   6.127  1.00  0.00    -0.272 N 
HETATM    6  C   UNL     1      41.697  -9.340   5.538  1.00  0.00     0.266 C 
HETATM    7  O   UNL     1      41.197  -9.786   4.501  1.00  0.00    -0.267 OA
HETATM    8  C   UNL     1      42.770 -10.113   6.238  1.00  0.00     0.074 C 
HETATM    9  C   UNL     1      43.170  -9.676   7.452  1.00  0.00     0.121 C 
HETATM   10  C   UNL     1      40.418  -7.320   5.465  1.00  0.00     0.102 A 
HETATM   11  C   UNL     1      39.988  -6.172   6.001  1.00  0.00     0.018 A 
HETATM   12  C   UNL     1      40.434  -5.785   7.312  1.00  0.00     0.012 A 
ENDROOT
BRANCH   8  13
HETATM   13  C   UNL     1      43.347 -11.263   5.554  1.00  0.00     0.045 C 
BRANCH  13  14
HETATM   14  C   UNL     1      42.853 -12.509   5.556  1.00  0.00     0.077 A 
HETATM   15  S   UNL     1      41.911 -13.263   4.340  1.00  0.00    -0.055 SA
HETATM   16  C   UNL     1      41.722 -14.736   5.277  1.00  0.00     0.148 A 
HETATM   17  S   UNL     1      40.792 -16.010   4.725  1.00  0.00    -0.052 SA
HETATM   18  N   UNL     1      42.441 -14.651   6.462  1.00  0.00    -0.298 N 
HETATM   19  C   UNL     1      43.074 -13.441   6.695  1.00  0.00     0.266 A 
HETATM   20  O   UNL     1      43.732 -13.127   7.677  1.00  0.00    -0.266 OA
BRANCH  18  21
HETATM   21  C   UNL     1      42.497 -15.790   7.396  1.00  0.00     0.138 C 
BRANCH  21  22
HETATM   22  C   UNL     1      43.765 -16.653   7.438  1.00  0.00     0.059 C 
BRANCH  22  23
HETATM   23  C   UNL     1      43.862 -17.763   6.407  1.00  0.00    -0.057 A 
HETATM   24  C   UNL     1      43.482 -19.089   6.643  1.00  0.00     0.010 A 
HETATM   25  C   UNL     1      43.555 -20.042   5.621  1.00  0.00     0.037 A 
HETATM   26  C   UNL     1      44.004 -19.697   4.348  1.00  0.00     0.068 A 
HETATM   27  C   UNL     1      44.401 -18.385   4.105  1.00  0.00     0.037 A 
HETATM   28  C   UNL     1      44.328 -17.428   5.124  1.00  0.00     0.010 A 
BRANCH  26  29
HETATM   29  O   UNL     1      44.008 -20.722   3.443  1.00  0.00    -0.356 OA
HETATM   30  C   UNL     1      43.532 -20.423   2.136  1.00  0.00     0.210 C 
ENDBRANCH  26  29
ENDBRANCH  22  23
ENDBRANCH  21  22
ENDBRANCH  18  21
ENDBRANCH  13  14
ENDBRANCH   8  13
BRANCH   9  31
HETATM   31  N   UNL     1      44.169 -10.300   8.197  1.00  0.00    -0.274 NA
HETATM   32  H   UNL     1      44.946 -10.420   7.534  1.00  0.00     0.129 HD
BRANCH  31  33
HETATM   33  C   UNL     1      44.751  -9.672   9.397  1.00  0.00     0.130 C 
BRANCH  33  34
HETATM   34  C   UNL     1      44.196 -10.311  10.694  1.00  0.00     0.164 C 
BRANCH  34  35
HETATM   35  O   UNL     1      43.660 -11.612  10.406  1.00  0.00    -0.390 OA
HETATM   36  H   UNL     1      42.717 -11.590  10.647  1.00  0.00     0.210 HD
ENDBRANCH  34  35
BRANCH  34  37
HETATM   37  C   UNL     1      43.166  -9.468  11.421  1.00  0.00    -0.029 A 
HETATM   38  C   UNL     1      43.580  -8.424  12.262  1.00  0.00     0.010 A 
HETATM   39  C   UNL     1      42.643  -7.648  12.948  1.00  0.00     0.001 A 
HETATM   40  C   UNL     1      41.282  -7.907  12.803  1.00  0.00     0.000 A 
HETATM   41  C   UNL     1      40.855  -8.939  11.972  1.00  0.00     0.001 A 
HETATM   42  C   UNL     1      41.791  -9.715  11.285  1.00  0.00     0.010 A 
ENDBRANCH  34  37
ENDBRANCH  33  34
ENDBRANCH  31  33
ENDBRANCH   9  31
TORSDOF 11
ENDMDL
MODEL 7
REMARK VINA RESULT:      -9.2      2.129      5.468
REMARK  11 active torsions:
REMARK  status: ('A' for Active; 'I' for Inactive)
REMARK    1  A    between atoms: C_8  and  C_9 
REMARK    2  A    between atoms: C_9  and  C_10 
REMARK    3  A    between atoms: N_14  and  C_15 
REMARK    4  A    between atoms: C_15  and  C_16 
REMARK    5  A    between atoms: C_16  and  C_17 
REMARK    6  A    between atoms: C_20  and  O_21 
REMARK    7  A    between atoms: C_27  and  N_28 
REMARK    8  A    between atoms: N_28  and  C_29 
REMARK    9  A    between atoms: C_29  and  C_30 
REMARK   10  A    between atoms: C_30  and  O_31 
REMARK   11  A    between atoms: C_30  and  C_32 
ROOT
HETATM    1  C   UNL     1      43.350 -19.744   1.726  1.00  0.00     0.052 C 
HETATM    2  C   UNL     1      43.565 -19.835   3.204  1.00  0.00    -0.015 A 
HETATM    3  C   UNL     1      43.559 -18.551   3.991  1.00  0.00     0.144 A 
HETATM    4  N   UNL     1      43.415 -17.427   3.366  1.00  0.00    -0.217 NA
HETATM    5  N   UNL     1      43.706 -18.652   5.363  1.00  0.00    -0.272 N 
HETATM    6  C   UNL     1      43.633 -17.511   6.142  1.00  0.00     0.266 C 
HETATM    7  O   UNL     1      43.599 -17.520   7.376  1.00  0.00    -0.267 OA
HETATM    8  C   UNL     1      43.576 -16.208   5.408  1.00  0.00     0.074 C 
HETATM    9  C   UNL     1      43.446 -16.250   4.063  1.00  0.00     0.121 C 
HETATM   10  C   UNL     1      43.888 -19.883   5.980  1.00  0.00     0.102 A 
HETATM   11  C   UNL     1      43.933 -21.023   5.281  1.00  0.00     0.018 A 
HETATM   12  C   UNL     1      43.757 -20.993   3.854  1.00  0.00     0.012 A 
ENDROOT
BRANCH   8  13
HETATM   13  C   UNL     1      43.706 -14.978   6.177  1.00  0.00     0.045 C 
BRANCH  13  14
HETATM   14  C   UNL     1      42.831 -13.963   6.191  1.00  0.00     0.077 A 
HETATM   15  S   UNL     1      41.125 -14.050   6.062  1.00  0.00    -0.055 SA
HETATM   16  C   UNL     1      40.945 -12.304   6.099  1.00  0.00     0.148 A 
HETATM   17  S   UNL     1      39.449 -11.576   5.935  1.00  0.00    -0.052 SA
HETATM   18  N   UNL     1      42.178 -11.695   6.283  1.00  0.00    -0.298 N 
HETATM   19  C   UNL     1      43.270 -12.547   6.321  1.00  0.00     0.266 A 
HETATM   20  O   UNL     1      44.447 -12.237   6.441  1.00  0.00    -0.266 OA
BRANCH  18  21
HETATM   21  C   UNL     1      42.287 -10.230   6.415  1.00  0.00     0.138 C 
BRANCH  21  22
HETATM   22  C   UNL     1      43.207  -9.649   7.496  1.00  0.00     0.059 C 
BRANCH  22  23
HETATM   23  C   UNL     1      42.661  -9.635   8.912  1.00  0.00    -0.057 A 
HETATM   24  C   UNL     1      41.372  -9.212   9.253  1.00  0.00     0.010 A 
HETATM   25  C   UNL     1      40.928  -9.279  10.578  1.00  0.00     0.037 A 
HETATM   26  C   UNL     1      41.755  -9.768  11.588  1.00  0.00     0.068 A 
HETATM   27  C   UNL     1      43.047 -10.175  11.265  1.00  0.00     0.037 A 
HETATM   28  C   UNL     1      43.493 -10.111   9.940  1.00  0.00     0.010 A 
BRANCH  26  29
HETATM   29  O   UNL     1      41.189  -9.793  12.833  1.00  0.00    -0.356 OA
HETATM   30  C   UNL     1      39.874 -10.326  12.926  1.00  0.00     0.210 C 
ENDBRANCH  26  29
ENDBRANCH  22  23
ENDBRANCH  21  22
ENDBRANCH  18  21
ENDBRANCH  13  14
ENDBRANCH   8  13
BRANCH   9  31
HETATM   31  N   UNL     1      43.397 -15.108   3.266  1.00  0.00    -0.274 NA
HETATM   32  H   UNL     1      44.379 -14.824   3.163  1.00  0.00     0.129 HD
BRANCH  31  33
HETATM   33  C   UNL     1      42.836 -15.135   1.903  1.00  0.00     0.130 C 
BRANCH  33  34
HETATM   34  C   UNL     1      41.308 -14.881   1.915  1.00  0.00     0.164 C 
BRANCH  34  35
HETATM   35  O   UNL     1      40.612 -16.107   2.187  1.00  0.00    -0.390 OA
HETATM   36  H   UNL     1      40.088 -16.317   1.395  1.00  0.00     0.210 HD
ENDBRANCH  34  35
BRANCH  34  37
HETATM   37  C   UNL     1      40.766 -14.237   0.654  1.00  0.00    -0.029 A 
HETATM   38  C   UNL     1      41.101 -12.911   0.341  1.00  0.00     0.010 A 
HETATM   39  C   UNL     1      40.599 -12.303  -0.811  1.00  0.00     0.001 A 
HETATM   40  C   UNL     1      39.754 -13.010  -1.663  1.00  0.00     0.000 A 
HETATM   41  C   UNL     1      39.412 -14.327  -1.367  1.00  0.00     0.001 A 
HETATM   42  C   UNL     1      39.915 -14.937  -0.216  1.00  0.00     0.010 A 
ENDBRANCH  34  37
ENDBRANCH  33  34
ENDBRANCH  31  33
ENDBRANCH   9  31
TORSDOF 11
ENDMDL
MODEL 8
REMARK VINA RESULT:      -9.2      2.756     11.183
REMARK  11 active torsions:
REMARK  status: ('A' for Active; 'I' for Inactive)
REMARK    1  A    between atoms: C_8  and  C_9 
REMARK    2  A    between atoms: C_9  and  C_10 
REMARK    3  A    between atoms: N_14  and  C_15 
REMARK    4  A    between atoms: C_15  and  C_16 
REMARK    5  A    between atoms: C_16  and  C_17 
REMARK    6  A    between atoms: C_20  and  O_21 
REMARK    7  A    between atoms: C_27  and  N_28 
REMARK    8  A    between atoms: N_28  and  C_29 
REMARK    9  A    between atoms: C_29  and  C_30 
REMARK   10  A    between atoms: C_30  and  O_31 
REMARK   11  A    between atoms: C_30  and  C_32 
ROOT
HETATM    1  C   UNL     1      40.147  -5.918  12.438  1.00  0.00     0.052 C 
HETATM    2  C   UNL     1      40.635  -5.407  11.119  1.00  0.00    -0.015 A 
HETATM    3  C   UNL     1      41.212  -6.409  10.154  1.00  0.00     0.144 A 
HETATM    4  N   UNL     1      41.305  -7.649  10.509  1.00  0.00    -0.217 NA
HETATM    5  N   UNL     1      41.612  -5.933   8.917  1.00  0.00    -0.272 N 
HETATM    6  C   UNL     1      42.080  -6.822   7.965  1.00  0.00     0.266 C 
HETATM    7  O   UNL     1      42.313  -6.515   6.792  1.00  0.00    -0.267 OA
HETATM    8  C   UNL     1      42.286  -8.233   8.418  1.00  0.00     0.074 C 
HETATM    9  C   UNL     1      41.862  -8.564   9.658  1.00  0.00     0.121 C 
HETATM   10  C   UNL     1      41.519  -4.585   8.598  1.00  0.00     0.102 A 
HETATM   11  C   UNL     1      41.043  -3.686   9.467  1.00  0.00     0.018 A 
HETATM   12  C   UNL     1      40.582  -4.115  10.759  1.00  0.00     0.012 A 
ENDROOT
BRANCH   8  13
HETATM   13  C   UNL     1      42.968  -9.153   7.517  1.00  0.00     0.045 C 
BRANCH  13  14
HETATM   14  C   UNL     1      42.408 -10.194   6.885  1.00  0.00     0.077 A 
HETATM   15  S   UNL     1      40.854 -10.270   6.167  1.00  0.00    -0.055 SA
HETATM   16  C   UNL     1      41.045 -11.958   5.725  1.00  0.00     0.148 A 
HETATM   17  S   UNL     1      39.811 -12.815   4.990  1.00  0.00    -0.052 SA
HETATM   18  N   UNL     1      42.313 -12.408   6.066  1.00  0.00    -0.298 N 
HETATM   19  C   UNL     1      43.115 -11.494   6.730  1.00  0.00     0.266 A 
HETATM   20  O   UNL     1      44.248 -11.675   7.153  1.00  0.00    -0.266 OA
BRANCH  18  21
HETATM   21  C   UNL     1      42.745 -13.779   5.737  1.00  0.00     0.138 C 
BRANCH  21  22
HETATM   22  C   UNL     1      42.858 -14.188   4.264  1.00  0.00     0.059 C 
BRANCH  22  23
HETATM   23  C   UNL     1      43.183 -15.645   3.989  1.00  0.00    -0.057 A 
HETATM   24  C   UNL     1      43.669 -16.536   4.952  1.00  0.00     0.010 A 
HETATM   25  C   UNL     1      43.896 -17.878   4.629  1.00  0.00     0.037 A 
HETATM   26  C   UNL     1      43.641 -18.361   3.346  1.00  0.00     0.068 A 
HETATM   27  C   UNL     1      43.174 -17.481   2.374  1.00  0.00     0.037 A 
HETATM   28  C   UNL     1      42.945 -16.138   2.694  1.00  0.00     0.010 A 
BRANCH  26  29
HETATM   29  O   UNL     1      43.890 -19.695   3.175  1.00  0.00    -0.356 OA
HETATM   30  C   UNL     1      43.516 -20.260   1.925  1.00  0.00     0.210 C 
ENDBRANCH  26  29
ENDBRANCH  22  23
ENDBRANCH  21  22
ENDBRANCH  18  21
ENDBRANCH  13  14
ENDBRANCH   8  13
BRANCH   9  31
HETATM   31  N   UNL     1      42.010  -9.839  10.200  1.00  0.00    -0.274 NA
HETATM   32  H   UNL     1      42.373 -10.407   9.424  1.00  0.00     0.129 HD
BRANCH  31  33
HETATM   33  C   UNL     1      42.901 -10.098  11.345  1.00  0.00     0.130 C 
BRANCH  33  34
HETATM   34  C   UNL     1      42.101 -10.217  12.667  1.00  0.00     0.164 C 
BRANCH  34  35
HETATM   35  O   UNL     1      40.719 -10.481  12.378  1.00  0.00    -0.390 OA
HETATM   36  H   UNL     1      40.210 -10.220  13.165  1.00  0.00     0.210 HD
ENDBRANCH  34  35
BRANCH  34  37
HETATM   37  C   UNL     1      42.225  -9.020  13.589  1.00  0.00    -0.029 A 
HETATM   38  C   UNL     1      43.196  -8.038  13.340  1.00  0.00     0.010 A 
HETATM   39  C   UNL     1      43.329  -6.937  14.188  1.00  0.00     0.001 A 
HETATM   40  C   UNL     1      42.497  -6.805  15.297  1.00  0.00     0.000 A 
HETATM   41  C   UNL     1      41.528  -7.771  15.558  1.00  0.00     0.001 A 
HETATM   42  C   UNL     1      41.393  -8.871  14.709  1.00  0.00     0.010 A 
ENDBRANCH  34  37
ENDBRANCH  33  34
ENDBRANCH  31  33
ENDBRANCH   9  31
TORSDOF 11
ENDMDL
MODEL 9
REMARK VINA RESULT:      -9.1      2.476      4.135
REMARK  11 active torsions:
REMARK  status: ('A' for Active; 'I' for Inactive)
REMARK    1  A    between atoms: C_8  and  C_9 
REMARK    2  A    between atoms: C_9  and  C_10 
REMARK    3  A    between atoms: N_14  and  C_15 
REMARK    4  A    between atoms: C_15  and  C_16 
REMARK    5  A    between atoms: C_16  and  C_17 
REMARK    6  A    between atoms: C_20  and  O_21 
REMARK    7  A    between atoms: C_27  and  N_28 
REMARK    8  A    between atoms: N_28  and  C_29 
REMARK    9  A    between atoms: C_29  and  C_30 
REMARK   10  A    between atoms: C_30  and  O_31 
REMARK   11  A    between atoms: C_30  and  C_32 
ROOT
HETATM    1  C   UNL     1      38.616 -15.349  -2.626  1.00  0.00     0.052 C 
HETATM    2  C   UNL     1      38.348 -13.913  -2.299  1.00  0.00    -0.015 A 
HETATM    3  C   UNL     1      39.264 -13.240  -1.311  1.00  0.00     0.144 A 
HETATM    4  N   UNL     1      40.208 -13.927  -0.753  1.00  0.00    -0.217 NA
HETATM    5  N   UNL     1      39.038 -11.899  -1.057  1.00  0.00    -0.272 N 
HETATM    6  C   UNL     1      39.895 -11.212  -0.214  1.00  0.00     0.266 C 
HETATM    7  O   UNL     1      39.866  -9.989  -0.050  1.00  0.00    -0.267 OA
HETATM    8  C   UNL     1      40.915 -12.034   0.509  1.00  0.00     0.074 C 
HETATM    9  C   UNL     1      41.023 -13.339   0.175  1.00  0.00     0.121 C 
HETATM   10  C   UNL     1      37.990 -11.216  -1.660  1.00  0.00     0.102 A 
HETATM   11  C   UNL     1      37.151 -11.821  -2.509  1.00  0.00     0.018 A 
HETATM   12  C   UNL     1      37.345 -13.206  -2.841  1.00  0.00     0.012 A 
ENDROOT
BRANCH   8  13
HETATM   13  C   UNL     1      41.699 -11.392   1.556  1.00  0.00     0.045 C 
BRANCH  13  14
HETATM   14  C   UNL     1      41.419 -11.405   2.867  1.00  0.00     0.077 A 
HETATM   15  S   UNL     1      39.896 -11.166   3.615  1.00  0.00    -0.055 SA
HETATM   16  C   UNL     1      40.573 -11.283   5.230  1.00  0.00     0.148 A 
HETATM   17  S   UNL     1      39.628 -11.065   6.592  1.00  0.00    -0.052 SA
HETATM   18  N   UNL     1      41.929 -11.574   5.168  1.00  0.00    -0.298 N 
HETATM   19  C   UNL     1      42.472 -11.636   3.895  1.00  0.00     0.266 A 
HETATM   20  O   UNL     1      43.639 -11.844   3.597  1.00  0.00    -0.266 OA
BRANCH  18  21
HETATM   21  C   UNL     1      42.715 -11.788   6.396  1.00  0.00     0.138 C 
BRANCH  21  22
HETATM   22  C   UNL     1      43.869 -10.830   6.715  1.00  0.00     0.059 C 
BRANCH  22  23
HETATM   23  C   UNL     1      43.875 -10.214   8.102  1.00  0.00    -0.057 A 
HETATM   24  C   UNL     1      42.752  -9.646   8.713  1.00  0.00     0.010 A 
HETATM   25  C   UNL     1      42.829  -9.145  10.017  1.00  0.00     0.037 A 
HETATM   26  C   UNL     1      44.020  -9.200  10.739  1.00  0.00     0.068 A 
HETATM   27  C   UNL     1      45.150  -9.747  10.136  1.00  0.00     0.037 A 
HETATM   28  C   UNL     1      45.076 -10.250   8.831  1.00  0.00     0.010 A 
BRANCH  26  29
HETATM   29  O   UNL     1      43.949  -8.691  12.006  1.00  0.00    -0.356 OA
HETATM   30  C   UNL     1      42.744  -8.025  12.360  1.00  0.00     0.210 C 
ENDBRANCH  26  29
ENDBRANCH  22  23
ENDBRANCH  21  22
ENDBRANCH  18  21
ENDBRANCH  13  14
ENDBRANCH   8  13
BRANCH   9  31
HETATM   31  N   UNL     1      41.923 -14.211   0.785  1.00  0.00    -0.274 NA
HETATM   32  H   UNL     1      42.542 -13.600   1.332  1.00  0.00     0.129 HD
BRANCH  31  33
HETATM   33  C   UNL     1      41.475 -15.268   1.710  1.00  0.00     0.130 C 
BRANCH  33  34
HETATM   34  C   UNL     1      42.470 -15.450   2.883  1.00  0.00     0.164 C 
BRANCH  34  35
HETATM   35  O   UNL     1      43.574 -14.544   2.732  1.00  0.00    -0.390 OA
HETATM   36  H   UNL     1      43.965 -14.424   3.614  1.00  0.00     0.210 HD
ENDBRANCH  34  35
BRANCH  34  37
HETATM   37  C   UNL     1      42.976 -16.868   3.066  1.00  0.00    -0.029 A 
HETATM   38  C   UNL     1      43.700 -17.213   4.217  1.00  0.00     0.010 A 
HETATM   39  C   UNL     1      44.182 -18.512   4.392  1.00  0.00     0.001 A 
HETATM   40  C   UNL     1      43.949 -19.481   3.419  1.00  0.00     0.000 A 
HETATM   41  C   UNL     1      43.232 -19.154   2.271  1.00  0.00     0.001 A 
HETATM   42  C   UNL     1      42.749 -17.856   2.095  1.00  0.00     0.010 A 
ENDBRANCH  34  37
ENDBRANCH  33  34
ENDBRANCH  31  33
ENDBRANCH   9  31
TORSDOF 11
ENDMDL
MODEL 10
REMARK VINA RESULT:      -9.0      4.196      9.389
REMARK  11 active torsions:
REMARK  status: ('A' for Active; 'I' for Inactive)
REMARK    1  A    between atoms: C_8  and  C_9 
REMARK    2  A    between atoms: C_9  and  C_10 
REMARK    3  A    between atoms: N_14  and  C_15 
REMARK    4  A    between atoms: C_15  and  C_16 
REMARK    5  A    between atoms: C_16  and  C_17 
REMARK    6  A    between atoms: C_20  and  O_21 
REMARK    7  A    between atoms: C_27  and  N_28 
REMARK    8  A    between atoms: N_28  and  C_29 
REMARK    9  A    between atoms: C_29  and  C_30 
REMARK   10  A    between atoms: C_30  and  O_31 
REMARK   11  A    between atoms: C_30  and  C_32 
ROOT
HETATM    1  C   UNL     1      45.164 -11.614   6.311  1.00  0.00     0.052 C 
HETATM    2  C   UNL     1      43.761 -11.117   6.466  1.00  0.00    -0.015 A 
HETATM    3  C   UNL     1      42.696 -11.756   5.615  1.00  0.00     0.144 A 
HETATM    4  N   UNL     1      43.032 -12.669   4.761  1.00  0.00    -0.217 NA
HETATM    5  N   UNL     1      41.395 -11.325   5.804  1.00  0.00    -0.272 N 
HETATM    6  C   UNL     1      40.368 -11.931   5.103  1.00  0.00     0.266 C 
HETATM    7  O   UNL     1      39.170 -11.721   5.316  1.00  0.00    -0.267 OA
HETATM    8  C   UNL     1      40.773 -12.906   4.042  1.00  0.00     0.074 C 
HETATM    9  C   UNL     1      42.081 -13.232   3.954  1.00  0.00     0.121 C 
HETATM   10  C   UNL     1      41.094 -10.319   6.713  1.00  0.00     0.102 A 
HETATM   11  C   UNL     1      42.042  -9.721   7.443  1.00  0.00     0.018 A 
HETATM   12  C   UNL     1      43.411 -10.141   7.318  1.00  0.00     0.012 A 
ENDROOT
BRANCH   8  13
HETATM   13  C   UNL     1      39.744 -13.412   3.143  1.00  0.00     0.045 C 
BRANCH  13  14
HETATM   14  C   UNL     1      39.369 -12.852   1.984  1.00  0.00     0.077 A 
HETATM   15  S   UNL     1      38.340 -11.502   1.757  1.00  0.00    -0.055 SA
HETATM   16  C   UNL     1      38.416 -11.626   0.008  1.00  0.00     0.148 A 
HETATM   17  S   UNL     1      37.537 -10.604  -0.980  1.00  0.00    -0.052 SA
HETATM   18  N   UNL     1      39.281 -12.644  -0.368  1.00  0.00    -0.298 N 
HETATM   19  C   UNL     1      39.829 -13.380   0.670  1.00  0.00     0.266 A 
HETATM   20  O   UNL     1      40.586 -14.337   0.580  1.00  0.00    -0.266 OA
BRANCH  18  21
HETATM   21  C   UNL     1      39.570 -12.907  -1.790  1.00  0.00     0.138 C 
BRANCH  21  22
HETATM   22  C   UNL     1      40.904 -12.430  -2.377  1.00  0.00     0.059 C 
BRANCH  22  23
HETATM   23  C   UNL     1      41.114 -10.928  -2.448  1.00  0.00    -0.057 A 
HETATM   24  C   UNL     1      40.713 -10.130  -3.525  1.00  0.00     0.010 A 
HETATM   25  C   UNL     1      40.898  -8.743  -3.490  1.00  0.00     0.037 A 
HETATM   26  C   UNL     1      41.481  -8.124  -2.385  1.00  0.00     0.068 A 
HETATM   27  C   UNL     1      41.900  -8.909  -1.315  1.00  0.00     0.037 A 
HETATM   28  C   UNL     1      41.715 -10.297  -1.346  1.00  0.00     0.010 A 
BRANCH  26  29
HETATM   29  O   UNL     1      41.584  -6.764  -2.478  1.00  0.00    -0.356 OA
HETATM   30  C   UNL     1      42.685  -6.255  -3.219  1.00  0.00     0.210 C 
ENDBRANCH  26  29
ENDBRANCH  22  23
ENDBRANCH  21  22
ENDBRANCH  18  21
ENDBRANCH  13  14
ENDBRANCH   8  13
BRANCH   9  31
HETATM   31  N   UNL     1      42.585 -14.115   3.001  1.00  0.00    -0.274 NA
HETATM   32  H   UNL     1      43.290 -13.568   2.492  1.00  0.00     0.129 HD
BRANCH  31  33
HETATM   33  C   UNL     1      43.247 -15.376   3.382  1.00  0.00     0.130 C 
BRANCH  33  34
HETATM   34  C   UNL     1      42.741 -16.561   2.523  1.00  0.00     0.164 C 
BRANCH  34  35
HETATM   35  O   UNL     1      41.308 -16.529   2.443  1.00  0.00    -0.390 OA
HETATM   36  H   UNL     1      41.074 -16.623   1.503  1.00  0.00     0.210 HD
ENDBRANCH  34  35
BRANCH  34  37
HETATM   37  C   UNL     1      43.209 -17.925   2.992  1.00  0.00    -0.029 A 
HETATM   38  C   UNL     1      43.111 -19.034   2.138  1.00  0.00     0.010 A 
HETATM   39  C   UNL     1      43.528 -20.298   2.561  1.00  0.00     0.001 A 
HETATM   40  C   UNL     1      44.045 -20.470   3.843  1.00  0.00     0.000 A 
HETATM   41  C   UNL     1      44.149 -19.379   4.703  1.00  0.00     0.001 A 
HETATM   42  C   UNL     1      43.734 -18.115   4.280  1.00  0.00     0.010 A 
ENDBRANCH  34  37
ENDBRANCH  33  34
ENDBRANCH  31  33
ENDBRANCH   9  31
TORSDOF 11
ENDMDL
