MODEL 1
REMARK VINA RESULT:      -7.9      0.000      0.000
REMARK  3 active torsions:
REMARK  status: ('A' for Active; 'I' for Inactive)
REMARK    1  A    between atoms: C_4  and  N_5 
REMARK       I    between atoms: N_5  and  C_6 
REMARK    2  A    between atoms: C_6  and  C_7 
REMARK    3  A    between atoms: C_7  and  C_8 
ROOT
HETATM    1  C   UNL     1      40.072 -13.031   2.011  1.00  0.00     0.286 C 
HETATM    2  N   UNL     1      40.613 -12.380   0.729  1.00  0.00    -0.056 N 
HETATM    3  H   UNL     1      40.656 -11.353   0.854  1.00  0.00     0.278 HD
HETATM    4  H   UNL     1      41.594 -12.663   0.594  1.00  0.00     0.278 HD
HETATM    5  C   UNL     1      39.775 -12.768  -0.451  1.00  0.00     0.209 C 
HETATM    6  C   UNL     1      39.906 -14.297  -0.631  1.00  0.00     0.115 C 
HETATM    7  N   UNL     1      39.547 -15.013   0.591  1.00  0.00    -0.353 N 
HETATM    8  C   UNL     1      39.877 -14.557   1.850  1.00  0.00     0.249 C 
HETATM    9  O   UNL     1      39.921 -15.337   2.795  1.00  0.00    -0.271 OA
HETATM   10  C   UNL     1      40.217 -12.013  -1.697  1.00  0.00     0.035 C 
HETATM   11  C   UNL     1      39.374 -12.464  -2.891  1.00  0.00     0.002 C 
HETATM   12  C   UNL     1      39.449 -13.978  -3.099  1.00  0.00     0.002 C 
HETATM   13  C   UNL     1      39.089 -14.765  -1.837  1.00  0.00     0.027 C 
HETATM   14  H   UNL     1      39.470 -16.028   0.549  1.00  0.00     0.163 HD
ENDROOT
BRANCH   1  15
HETATM   15  C   UNL     1      40.989 -12.706   3.185  1.00  0.00     0.146 C 
BRANCH  15  16
HETATM   16  C   UNL     1      42.381 -12.559   2.645  1.00  0.00     0.224 C 
HETATM   17  N   UNL     1      43.306 -13.547   2.621  1.00  0.00    -0.327 N 
HETATM   18  H   UNL     1      44.226 -13.178   2.390  1.00  0.00     0.169 HD
HETATM   19  O   UNL     1      42.777 -11.402   2.436  1.00  0.00    -0.273 OA
BRANCH  17  20
HETATM   20  C   UNL     1      43.289 -14.922   2.908  1.00  0.00     0.035 A 
HETATM   21  C   UNL     1      43.212 -15.490   4.179  1.00  0.00     0.036 A 
HETATM   22  C   UNL     1      43.214 -16.887   4.345  1.00  0.00    -0.060 A 
HETATM   23  C   UNL     1      43.057 -17.499   5.709  1.00  0.00     0.048 C 
HETATM   24  C   UNL     1      43.268 -17.716   3.220  1.00  0.00     0.007 A 
HETATM   25  C   UNL     1      43.314 -17.160   1.946  1.00  0.00     0.003 A 
HETATM   26  C   UNL     1      43.311 -15.774   1.794  1.00  0.00     0.029 A 
ENDBRANCH  17  20
ENDBRANCH  15  16
ENDBRANCH   1  15
TORSDOF 3
ENDMDL
MODEL 2
REMARK VINA RESULT:      -7.8      3.733      6.267
REMARK  3 active torsions:
REMARK  status: ('A' for Active; 'I' for Inactive)
REMARK    1  A    between atoms: C_4  and  N_5 
REMARK       I    between atoms: N_5  and  C_6 
REMARK    2  A    between atoms: C_6  and  C_7 
REMARK    3  A    between atoms: C_7  and  C_8 
ROOT
HETATM    1  C   UNL     1      41.450 -13.971   5.889  1.00  0.00     0.286 C 
HETATM    2  N   UNL     1      42.907 -13.552   5.640  1.00  0.00    -0.056 N 
HETATM    3  H   UNL     1      43.508 -14.394   5.610  1.00  0.00     0.278 HD
HETATM    4  H   UNL     1      42.986 -13.146   4.696  1.00  0.00     0.278 HD
HETATM    5  C   UNL     1      43.359 -12.576   6.684  1.00  0.00     0.209 C 
HETATM    6  C   UNL     1      42.492 -11.305   6.536  1.00  0.00     0.115 C 
HETATM    7  N   UNL     1      41.066 -11.616   6.617  1.00  0.00    -0.353 N 
HETATM    8  C   UNL     1      40.515 -12.750   6.057  1.00  0.00     0.249 C 
HETATM    9  O   UNL     1      39.318 -12.787   5.796  1.00  0.00    -0.271 OA
HETATM   10  C   UNL     1      44.841 -12.269   6.528  1.00  0.00     0.035 C 
HETATM   11  C   UNL     1      45.260 -11.237   7.577  1.00  0.00     0.002 C 
HETATM   12  C   UNL     1      44.414  -9.964   7.491  1.00  0.00     0.002 C 
HETATM   13  C   UNL     1      42.912 -10.250   7.561  1.00  0.00     0.027 C 
HETATM   14  H   UNL     1      40.407 -10.841   6.664  1.00  0.00     0.163 HD
ENDROOT
BRANCH   1  15
HETATM   15  C   UNL     1      40.975 -14.887   4.767  1.00  0.00     0.146 C 
BRANCH  15  16
HETATM   16  C   UNL     1      41.788 -14.571   3.547  1.00  0.00     0.224 C 
HETATM   17  N   UNL     1      42.746 -15.375   3.031  1.00  0.00    -0.327 N 
HETATM   18  H   UNL     1      43.292 -14.884   2.326  1.00  0.00     0.169 HD
HETATM   19  O   UNL     1      41.744 -13.400   3.138  1.00  0.00    -0.273 OA
BRANCH  17  20
HETATM   20  C   UNL     1      43.189 -16.681   3.299  1.00  0.00     0.035 A 
HETATM   21  C   UNL     1      43.084 -17.773   2.437  1.00  0.00     0.036 A 
HETATM   22  C   UNL     1      43.556 -19.041   2.821  1.00  0.00    -0.060 A 
HETATM   23  C   UNL     1      43.509 -20.199   1.864  1.00  0.00     0.048 C 
HETATM   24  C   UNL     1      44.160 -19.204   4.071  1.00  0.00     0.007 A 
HETATM   25  C   UNL     1      44.298 -18.116   4.926  1.00  0.00     0.003 A 
HETATM   26  C   UNL     1      43.827 -16.863   4.536  1.00  0.00     0.029 A 
ENDBRANCH  17  20
ENDBRANCH  15  16
ENDBRANCH   1  15
TORSDOF 3
ENDMDL
MODEL 3
REMARK VINA RESULT:      -7.7      2.553      6.414
REMARK  3 active torsions:
REMARK  status: ('A' for Active; 'I' for Inactive)
REMARK    1  A    between atoms: C_4  and  N_5 
REMARK       I    between atoms: N_5  and  C_6 
REMARK    2  A    between atoms: C_6  and  C_7 
REMARK    3  A    between atoms: C_7  and  C_8 
ROOT
HETATM    1  C   UNL     1      41.874 -15.619   5.325  1.00  0.00     0.286 C 
HETATM    2  N   UNL     1      42.643 -16.028   4.060  1.00  0.00    -0.056 N 
HETATM    3  H   UNL     1      42.147 -15.674   3.224  1.00  0.00     0.278 HD
HETATM    4  H   UNL     1      43.551 -15.542   4.044  1.00  0.00     0.278 HD
HETATM    5  C   UNL     1      42.829 -17.515   4.016  1.00  0.00     0.209 C 
HETATM    6  C   UNL     1      43.707 -17.908   5.225  1.00  0.00     0.115 C 
HETATM    7  N   UNL     1      43.130 -17.437   6.482  1.00  0.00    -0.353 N 
HETATM    8  C   UNL     1      42.504 -16.214   6.606  1.00  0.00     0.249 C 
HETATM    9  O   UNL     1      42.393 -15.689   7.709  1.00  0.00    -0.271 OA
HETATM   10  C   UNL     1      43.461 -17.940   2.698  1.00  0.00     0.035 C 
HETATM   11  C   UNL     1      43.679 -19.453   2.703  1.00  0.00     0.002 C 
HETATM   12  C   UNL     1      44.524 -19.902   3.897  1.00  0.00     0.002 C 
HETATM   13  C   UNL     1      43.958 -19.417   5.234  1.00  0.00     0.027 C 
HETATM   14  H   UNL     1      43.554 -17.752   7.354  1.00  0.00     0.163 HD
ENDROOT
BRANCH   1  15
HETATM   15  C   UNL     1      41.777 -14.100   5.405  1.00  0.00     0.146 C 
BRANCH  15  16
HETATM   16  C   UNL     1      40.324 -13.733   5.342  1.00  0.00     0.224 C 
HETATM   17  N   UNL     1      39.611 -13.606   4.198  1.00  0.00    -0.327 N 
HETATM   18  H   UNL     1      38.708 -13.172   4.380  1.00  0.00     0.169 HD
HETATM   19  O   UNL     1      39.818 -13.286   6.383  1.00  0.00    -0.273 OA
BRANCH  17  20
HETATM   20  C   UNL     1      39.866 -13.869   2.842  1.00  0.00     0.035 A 
HETATM   21  C   UNL     1      40.252 -12.929   1.887  1.00  0.00     0.036 A 
HETATM   22  C   UNL     1      40.469 -13.308   0.550  1.00  0.00    -0.060 A 
HETATM   23  C   UNL     1      40.956 -12.310  -0.462  1.00  0.00     0.048 C 
HETATM   24  C   UNL     1      40.321 -14.648   0.180  1.00  0.00     0.007 A 
HETATM   25  C   UNL     1      39.966 -15.600   1.130  1.00  0.00     0.003 A 
HETATM   26  C   UNL     1      39.754 -15.212   2.453  1.00  0.00     0.029 A 
ENDBRANCH  17  20
ENDBRANCH  15  16
ENDBRANCH   1  15
TORSDOF 3
ENDMDL
MODEL 4
REMARK VINA RESULT:      -7.6      1.687      2.651
REMARK  3 active torsions:
REMARK  status: ('A' for Active; 'I' for Inactive)
REMARK    1  A    between atoms: C_4  and  N_5 
REMARK       I    between atoms: N_5  and  C_6 
REMARK    2  A    between atoms: C_6  and  C_7 
REMARK    3  A    between atoms: C_7  and  C_8 
ROOT
HETATM    1  C   UNL     1      41.021 -14.165   1.544  1.00  0.00     0.286 C 
HETATM    2  N   UNL     1      40.845 -14.602   0.082  1.00  0.00    -0.056 N 
HETATM    3  H   UNL     1      41.737 -14.988  -0.274  1.00  0.00     0.278 HD
HETATM    4  H   UNL     1      40.188 -15.395   0.042  1.00  0.00     0.278 HD
HETATM    5  C   UNL     1      40.356 -13.457  -0.754  1.00  0.00     0.209 C 
HETATM    6  C   UNL     1      38.957 -13.064  -0.229  1.00  0.00     0.115 C 
HETATM    7  N   UNL     1      38.986 -12.763   1.201  1.00  0.00    -0.353 N 
HETATM    8  C   UNL     1      39.754 -13.474   2.100  1.00  0.00     0.249 C 
HETATM    9  O   UNL     1      39.467 -13.469   3.292  1.00  0.00    -0.271 OA
HETATM   10  C   UNL     1      40.319 -13.843  -2.225  1.00  0.00     0.035 C 
HETATM   11  C   UNL     1      39.774 -12.671  -3.044  1.00  0.00     0.002 C 
HETATM   12  C   UNL     1      38.396 -12.224  -2.549  1.00  0.00     0.002 C 
HETATM   13  C   UNL     1      38.383 -11.909  -1.051  1.00  0.00     0.027 C 
HETATM   14  H   UNL     1      38.150 -12.366   1.626  1.00  0.00     0.163 HD
ENDROOT
BRANCH   1  15
HETATM   15  C   UNL     1      41.424 -15.362   2.398  1.00  0.00     0.146 C 
BRANCH  15  16
HETATM   16  C   UNL     1      42.671 -14.988   3.143  1.00  0.00     0.224 C 
HETATM   17  N   UNL     1      43.512 -15.872   3.728  1.00  0.00    -0.327 N 
HETATM   18  H   UNL     1      44.180 -15.395   4.330  1.00  0.00     0.169 HD
HETATM   19  O   UNL     1      42.802 -13.791   3.442  1.00  0.00    -0.273 OA
BRANCH  17  20
HETATM   20  C   UNL     1      43.617 -17.273   3.745  1.00  0.00     0.035 A 
HETATM   21  C   UNL     1      43.481 -18.115   2.642  1.00  0.00     0.036 A 
HETATM   22  C   UNL     1      43.597 -19.510   2.782  1.00  0.00    -0.060 A 
HETATM   23  C   UNL     1      43.523 -20.411   1.582  1.00  0.00     0.048 C 
HETATM   24  C   UNL     1      43.877 -20.057   4.038  1.00  0.00     0.007 A 
HETATM   25  C   UNL     1      44.045 -19.225   5.139  1.00  0.00     0.003 A 
HETATM   26  C   UNL     1      43.929 -17.843   4.988  1.00  0.00     0.029 A 
ENDBRANCH  17  20
ENDBRANCH  15  16
ENDBRANCH   1  15
TORSDOF 3
ENDMDL
MODEL 5
REMARK VINA RESULT:      -7.5      4.447      6.897
REMARK  3 active torsions:
REMARK  status: ('A' for Active; 'I' for Inactive)
REMARK    1  A    between atoms: C_4  and  N_5 
REMARK       I    between atoms: N_5  and  C_6 
REMARK    2  A    between atoms: C_6  and  C_7 
REMARK    3  A    between atoms: C_7  and  C_8 
ROOT
HETATM    1  C   UNL     1      42.776 -15.166   4.828  1.00  0.00     0.286 C 
HETATM    2  N   UNL     1      43.083 -15.786   3.456  1.00  0.00    -0.056 N 
HETATM    3  H   UNL     1      42.451 -15.380   2.744  1.00  0.00     0.278 HD
HETATM    4  H   UNL     1      44.025 -15.497   3.157  1.00  0.00     0.278 HD
HETATM    5  C   UNL     1      42.973 -17.280   3.519  1.00  0.00     0.209 C 
HETATM    6  C   UNL     1      44.059 -17.784   4.495  1.00  0.00     0.115 C 
HETATM    7  N   UNL     1      43.944 -17.143   5.803  1.00  0.00    -0.353 N 
HETATM    8  C   UNL     1      43.612 -15.813   5.958  1.00  0.00     0.249 C 
HETATM    9  O   UNL     1      43.905 -15.222   6.991  1.00  0.00    -0.271 OA
HETATM   10  C   UNL     1      43.131 -17.890   2.134  1.00  0.00     0.035 C 
HETATM   11  C   UNL     1      43.060 -19.414   2.238  1.00  0.00     0.002 C 
HETATM   12  C   UNL     1      44.102 -19.966   3.214  1.00  0.00     0.002 C 
HETATM   13  C   UNL     1      44.021 -19.310   4.595  1.00  0.00     0.027 C 
HETATM   14  H   UNL     1      44.524 -17.493   6.564  1.00  0.00     0.163 HD
ENDROOT
BRANCH   1  15
HETATM   15  C   UNL     1      42.987 -13.656   4.773  1.00  0.00     0.146 C 
BRANCH  15  16
HETATM   16  C   UNL     1      42.065 -13.033   5.779  1.00  0.00     0.224 C 
HETATM   17  N   UNL     1      42.464 -12.234   6.797  1.00  0.00    -0.327 N 
HETATM   18  H   UNL     1      41.704 -12.081   7.457  1.00  0.00     0.169 HD
HETATM   19  O   UNL     1      40.906 -13.474   5.819  1.00  0.00    -0.273 OA
BRANCH  17  20
HETATM   20  C   UNL     1      43.683 -11.646   7.171  1.00  0.00     0.035 A 
HETATM   21  C   UNL     1      43.929 -10.963   8.362  1.00  0.00     0.036 A 
HETATM   22  C   UNL     1      45.193 -10.405   8.624  1.00  0.00    -0.060 A 
HETATM   23  C   UNL     1      45.479  -9.734   9.938  1.00  0.00     0.048 C 
HETATM   24  C   UNL     1      46.222 -10.556   7.689  1.00  0.00     0.007 A 
HETATM   25  C   UNL     1      45.997 -11.261   6.512  1.00  0.00     0.003 A 
HETATM   26  C   UNL     1      44.740 -11.812   6.263  1.00  0.00     0.029 A 
ENDBRANCH  17  20
ENDBRANCH  15  16
ENDBRANCH   1  15
TORSDOF 3
ENDMDL
MODEL 6
REMARK VINA RESULT:      -7.3      3.596      6.479
REMARK  3 active torsions:
REMARK  status: ('A' for Active; 'I' for Inactive)
REMARK    1  A    between atoms: C_4  and  N_5 
REMARK       I    between atoms: N_5  and  C_6 
REMARK    2  A    between atoms: C_6  and  C_7 
REMARK    3  A    between atoms: C_7  and  C_8 
ROOT
HETATM    1  C   UNL     1      41.623 -11.595   4.775  1.00  0.00     0.286 C 
HETATM    2  N   UNL     1      41.791 -11.454   6.295  1.00  0.00    -0.056 N 
HETATM    3  H   UNL     1      40.989 -10.930   6.685  1.00  0.00     0.278 HD
HETATM    4  H   UNL     1      41.725 -12.386   6.731  1.00  0.00     0.278 HD
HETATM    5  C   UNL     1      43.101 -10.801   6.621  1.00  0.00     0.209 C 
HETATM    6  C   UNL     1      44.223 -11.741   6.128  1.00  0.00     0.115 C 
HETATM    7  N   UNL     1      44.074 -12.056   4.708  1.00  0.00    -0.353 N 
HETATM    8  C   UNL     1      42.847 -12.273   4.115  1.00  0.00     0.249 C 
HETATM    9  O   UNL     1      42.774 -12.905   3.067  1.00  0.00    -0.271 OA
HETATM   10  C   UNL     1      43.209 -10.527   8.114  1.00  0.00     0.035 C 
HETATM   11  C   UNL     1      44.572  -9.904   8.419  1.00  0.00     0.002 C 
HETATM   12  C   UNL     1      45.722 -10.785   7.928  1.00  0.00     0.002 C 
HETATM   13  C   UNL     1      45.596 -11.147   6.446  1.00  0.00     0.027 C 
HETATM   14  H   UNL     1      44.829 -12.560   4.246  1.00  0.00     0.163 HD
ENDROOT
BRANCH   1  15
HETATM   15  C   UNL     1      40.334 -12.347   4.463  1.00  0.00     0.146 C 
BRANCH  15  16
HETATM   16  C   UNL     1      40.111 -13.341   5.564  1.00  0.00     0.224 C 
HETATM   17  N   UNL     1      40.387 -14.663   5.474  1.00  0.00    -0.327 N 
HETATM   18  H   UNL     1      39.986 -15.172   6.260  1.00  0.00     0.169 HD
HETATM   19  O   UNL     1      39.410 -12.967   6.516  1.00  0.00    -0.273 OA
BRANCH  17  20
HETATM   20  C   UNL     1      41.025 -15.477   4.524  1.00  0.00     0.035 A 
HETATM   21  C   UNL     1      42.162 -16.254   4.745  1.00  0.00     0.036 A 
HETATM   22  C   UNL     1      42.721 -17.024   3.710  1.00  0.00    -0.060 A 
HETATM   23  C   UNL     1      43.901 -17.918   3.968  1.00  0.00     0.048 C 
HETATM   24  C   UNL     1      42.115 -17.030   2.449  1.00  0.00     0.007 A 
HETATM   25  C   UNL     1      40.964 -16.283   2.225  1.00  0.00     0.003 A 
HETATM   26  C   UNL     1      40.418 -15.524   3.260  1.00  0.00     0.029 A 
ENDBRANCH  17  20
ENDBRANCH  15  16
ENDBRANCH   1  15
TORSDOF 3
ENDMDL
MODEL 7
REMARK VINA RESULT:      -7.3      1.601      2.499
REMARK  3 active torsions:
REMARK  status: ('A' for Active; 'I' for Inactive)
REMARK    1  A    between atoms: C_4  and  N_5 
REMARK       I    between atoms: N_5  and  C_6 
REMARK    2  A    between atoms: C_6  and  C_7 
REMARK    3  A    between atoms: C_7  and  C_8 
ROOT
HETATM    1  C   UNL     1      40.918 -12.850   0.909  1.00  0.00     0.286 C 
HETATM    2  N   UNL     1      40.179 -14.084   0.369  1.00  0.00    -0.056 N 
HETATM    3  H   UNL     1      40.789 -14.915   0.449  1.00  0.00     0.278 HD
HETATM    4  H   UNL     1      39.377 -14.293   0.981  1.00  0.00     0.278 HD
HETATM    5  C   UNL     1      39.730 -13.850  -1.043  1.00  0.00     0.209 C 
HETATM    6  C   UNL     1      38.712 -12.688  -1.020  1.00  0.00     0.115 C 
HETATM    7  N   UNL     1      39.275 -11.495  -0.390  1.00  0.00    -0.353 N 
HETATM    8  C   UNL     1      40.102 -11.551   0.713  1.00  0.00     0.249 C 
HETATM    9  O   UNL     1      40.227 -10.570   1.438  1.00  0.00    -0.271 OA
HETATM   10  C   UNL     1      39.127 -15.117  -1.632  1.00  0.00     0.035 C 
HETATM   11  C   UNL     1      38.638 -14.834  -3.053  1.00  0.00     0.002 C 
HETATM   12  C   UNL     1      37.643 -13.672  -3.091  1.00  0.00     0.002 C 
HETATM   13  C   UNL     1      38.192 -12.405  -2.430  1.00  0.00     0.027 C 
HETATM   14  H   UNL     1      38.740 -10.629  -0.437  1.00  0.00     0.163 HD
ENDROOT
BRANCH   1  15
HETATM   15  C   UNL     1      41.282 -13.065   2.374  1.00  0.00     0.146 C 
BRANCH  15  16
HETATM   16  C   UNL     1      40.189 -13.879   2.999  1.00  0.00     0.224 C 
HETATM   17  N   UNL     1      40.321 -15.164   3.404  1.00  0.00    -0.327 N 
HETATM   18  H   UNL     1      39.414 -15.572   3.621  1.00  0.00     0.169 HD
HETATM   19  O   UNL     1      39.038 -13.423   2.913  1.00  0.00    -0.273 OA
BRANCH  17  20
HETATM   20  C   UNL     1      41.400 -16.057   3.519  1.00  0.00     0.035 A 
HETATM   21  C   UNL     1      42.109 -16.335   4.687  1.00  0.00     0.036 A 
HETATM   22  C   UNL     1      43.182 -17.244   4.678  1.00  0.00    -0.060 A 
HETATM   23  C   UNL     1      43.899 -17.598   5.951  1.00  0.00     0.048 C 
HETATM   24  C   UNL     1      43.526 -17.895   3.490  1.00  0.00     0.007 A 
HETATM   25  C   UNL     1      42.806 -17.649   2.326  1.00  0.00     0.003 A 
HETATM   26  C   UNL     1      41.743 -16.747   2.346  1.00  0.00     0.029 A 
ENDBRANCH  17  20
ENDBRANCH  15  16
ENDBRANCH   1  15
TORSDOF 3
ENDMDL
MODEL 8
REMARK VINA RESULT:      -7.2      2.205      3.357
REMARK  3 active torsions:
REMARK  status: ('A' for Active; 'I' for Inactive)
REMARK    1  A    between atoms: C_4  and  N_5 
REMARK       I    between atoms: N_5  and  C_6 
REMARK    2  A    between atoms: C_6  and  C_7 
REMARK    3  A    between atoms: C_7  and  C_8 
ROOT
HETATM    1  C   UNL     1      40.324 -15.103   2.210  1.00  0.00     0.286 C 
HETATM    2  N   UNL     1      39.782 -13.745   2.682  1.00  0.00    -0.056 N 
HETATM    3  H   UNL     1      38.952 -13.894   3.281  1.00  0.00     0.278 HD
HETATM    4  H   UNL     1      40.473 -13.303   3.305  1.00  0.00     0.278 HD
HETATM    5  C   UNL     1      39.477 -12.865   1.507  1.00  0.00     0.209 C 
HETATM    6  C   UNL     1      40.810 -12.589   0.777  1.00  0.00     0.115 C 
HETATM    7  N   UNL     1      41.485 -13.831   0.405  1.00  0.00    -0.353 N 
HETATM    8  C   UNL     1      41.501 -14.946   1.217  1.00  0.00     0.249 C 
HETATM    9  O   UNL     1      42.371 -15.797   1.077  1.00  0.00    -0.271 OA
HETATM   10  C   UNL     1      38.805 -11.576   1.961  1.00  0.00     0.035 C 
HETATM   11  C   UNL     1      38.549 -10.682   0.747  1.00  0.00     0.002 C 
HETATM   12  C   UNL     1      39.837 -10.396  -0.030  1.00  0.00     0.002 C 
HETATM   13  C   UNL     1      40.580 -11.674  -0.428  1.00  0.00     0.027 C 
HETATM   14  H   UNL     1      42.306 -13.771  -0.196  1.00  0.00     0.163 HD
ENDROOT
BRANCH   1  15
HETATM   15  C   UNL     1      40.721 -15.950   3.414  1.00  0.00     0.146 C 
BRANCH  15  16
HETATM   16  C   UNL     1      42.036 -15.435   3.918  1.00  0.00     0.224 C 
HETATM   17  N   UNL     1      43.093 -16.215   4.247  1.00  0.00    -0.327 N 
HETATM   18  H   UNL     1      43.803 -15.675   4.737  1.00  0.00     0.169 HD
HETATM   19  O   UNL     1      42.067 -14.249   4.280  1.00  0.00    -0.273 OA
BRANCH  17  20
HETATM   20  C   UNL     1      43.385 -17.584   4.129  1.00  0.00     0.035 A 
HETATM   21  C   UNL     1      43.383 -18.319   2.944  1.00  0.00     0.036 A 
HETATM   22  C   UNL     1      43.683 -19.694   2.950  1.00  0.00    -0.060 A 
HETATM   23  C   UNL     1      43.754 -20.470   1.665  1.00  0.00     0.048 C 
HETATM   24  C   UNL     1      44.010 -20.324   4.154  1.00  0.00     0.007 A 
HETATM   25  C   UNL     1      44.045 -19.594   5.337  1.00  0.00     0.003 A 
HETATM   26  C   UNL     1      43.747 -18.231   5.320  1.00  0.00     0.029 A 
ENDBRANCH  17  20
ENDBRANCH  15  16
ENDBRANCH   1  15
TORSDOF 3
ENDMDL
MODEL 9
REMARK VINA RESULT:      -7.2      4.747      7.713
REMARK  3 active torsions:
REMARK  status: ('A' for Active; 'I' for Inactive)
REMARK    1  A    between atoms: C_4  and  N_5 
REMARK       I    between atoms: N_5  and  C_6 
REMARK    2  A    between atoms: C_6  and  C_7 
REMARK    3  A    between atoms: C_7  and  C_8 
ROOT
HETATM    1  C   UNL     1      42.301 -10.702   5.841  1.00  0.00     0.286 C 
HETATM    2  N   UNL     1      42.013 -10.556   7.343  1.00  0.00    -0.056 N 
HETATM    3  H   UNL     1      41.127 -10.039   7.477  1.00  0.00     0.278 HD
HETATM    4  H   UNL     1      41.830 -11.487   7.745  1.00  0.00     0.278 HD
HETATM    5  C   UNL     1      43.163  -9.889   8.035  1.00  0.00     0.209 C 
HETATM    6  C   UNL     1      44.389 -10.819   7.899  1.00  0.00     0.115 C 
HETATM    7  N   UNL     1      44.666 -11.139   6.500  1.00  0.00    -0.353 N 
HETATM    8  C   UNL     1      43.670 -11.369   5.574  1.00  0.00     0.249 C 
HETATM    9  O   UNL     1      43.914 -12.005   4.554  1.00  0.00    -0.271 OA
HETATM   10  C   UNL     1      42.826  -9.610   9.493  1.00  0.00     0.035 C 
HETATM   11  C   UNL     1      44.033  -8.972  10.181  1.00  0.00     0.002 C 
HETATM   12  C   UNL     1      45.285  -9.843  10.055  1.00  0.00     0.002 C 
HETATM   13  C   UNL     1      45.603 -10.210   8.603  1.00  0.00     0.027 C 
HETATM   14  H   UNL     1      45.528 -11.637   6.282  1.00  0.00     0.163 HD
ENDROOT
BRANCH   1  15
HETATM   15  C   UNL     1      41.167 -11.468   5.168  1.00  0.00     0.146 C 
BRANCH  15  16
HETATM   16  C   UNL     1      40.480 -12.283   6.224  1.00  0.00     0.224 C 
HETATM   17  N   UNL     1      40.746 -13.583   6.488  1.00  0.00    -0.327 N 
HETATM   18  H   UNL     1      40.040 -13.980   7.105  1.00  0.00     0.169 HD
HETATM   19  O   UNL     1      39.445 -11.801   6.712  1.00  0.00    -0.273 OA
BRANCH  17  20
HETATM   20  C   UNL     1      41.716 -14.501   6.051  1.00  0.00     0.035 A 
HETATM   21  C   UNL     1      41.648 -15.270   4.890  1.00  0.00     0.036 A 
HETATM   22  C   UNL     1      42.680 -16.167   4.559  1.00  0.00    -0.060 A 
HETATM   23  C   UNL     1      42.641 -16.940   3.271  1.00  0.00     0.048 C 
HETATM   24  C   UNL     1      43.798 -16.270   5.392  1.00  0.00     0.007 A 
HETATM   25  C   UNL     1      43.891 -15.486   6.536  1.00  0.00     0.003 A 
HETATM   26  C   UNL     1      42.862 -14.599   6.854  1.00  0.00     0.029 A 
ENDBRANCH  17  20
ENDBRANCH  15  16
ENDBRANCH   1  15
TORSDOF 3
ENDMDL
MODEL 10
REMARK VINA RESULT:      -7.2      6.231      8.882
REMARK  3 active torsions:
REMARK  status: ('A' for Active; 'I' for Inactive)
REMARK    1  A    between atoms: C_4  and  N_5 
REMARK       I    between atoms: N_5  and  C_6 
REMARK    2  A    between atoms: C_6  and  C_7 
REMARK    3  A    between atoms: C_7  and  C_8 
ROOT
HETATM    1  C   UNL     1      44.147 -12.095   6.500  1.00  0.00     0.286 C 
HETATM    2  N   UNL     1      43.399 -13.137   7.345  1.00  0.00    -0.056 N 
HETATM    3  H   UNL     1      43.809 -13.171   8.294  1.00  0.00     0.278 HD
HETATM    4  H   UNL     1      42.430 -12.820   7.494  1.00  0.00     0.278 HD
HETATM    5  C   UNL     1      43.427 -14.477   6.672  1.00  0.00     0.209 C 
HETATM    6  C   UNL     1      42.660 -14.342   5.338  1.00  0.00     0.115 C 
HETATM    7  N   UNL     1      43.209 -13.271   4.510  1.00  0.00    -0.353 N 
HETATM    8  C   UNL     1      43.656 -12.075   5.033  1.00  0.00     0.249 C 
HETATM    9  O   UNL     1      43.730 -11.081   4.319  1.00  0.00    -0.271 OA
HETATM   10  C   UNL     1      42.816 -15.543   7.570  1.00  0.00     0.035 C 
HETATM   11  C   UNL     1      42.818 -16.886   6.839  1.00  0.00     0.002 C 
HETATM   12  C   UNL     1      42.090 -16.803   5.496  1.00  0.00     0.002 C 
HETATM   13  C   UNL     1      42.629 -15.683   4.602  1.00  0.00     0.027 C 
HETATM   14  H   UNL     1      42.866 -13.178   3.554  1.00  0.00     0.163 HD
ENDROOT
BRANCH   1  15
HETATM   15  C   UNL     1      44.027 -10.720   7.147  1.00  0.00     0.146 C 
BRANCH  15  16
HETATM   16  C   UNL     1      45.309 -10.447   7.875  1.00  0.00     0.224 C 
HETATM   17  N   UNL     1      45.443  -9.569   8.896  1.00  0.00    -0.327 N 
HETATM   18  H   UNL     1      46.425  -9.408   9.111  1.00  0.00     0.169 HD
HETATM   19  O   UNL     1      46.349 -10.874   7.349  1.00  0.00    -0.273 OA
BRANCH  17  20
HETATM   20  C   UNL     1      44.550  -8.794   9.656  1.00  0.00     0.035 A 
HETATM   21  C   UNL     1      44.179  -9.038  10.978  1.00  0.00     0.036 A 
HETATM   22  C   UNL     1      43.264  -8.196  11.636  1.00  0.00    -0.060 A 
HETATM   23  C   UNL     1      42.921  -8.415  13.082  1.00  0.00     0.048 C 
HETATM   24  C   UNL     1      42.740  -7.087  10.964  1.00  0.00     0.007 A 
HETATM   25  C   UNL     1      43.127  -6.817   9.656  1.00  0.00     0.003 A 
HETATM   26  C   UNL     1      44.035  -7.658   9.014  1.00  0.00     0.029 A 
ENDBRANCH  17  20
ENDBRANCH  15  16
ENDBRANCH   1  15
TORSDOF 3
ENDMDL
