MODEL 1
REMARK VINA RESULT:      -9.3      0.000      0.000
REMARK  7 active torsions:
REMARK  status: ('A' for Active; 'I' for Inactive)
REMARK    1  A    between atoms: O_2  and  C_3 
REMARK    2  A    between atoms: C_6  and  C_7 
REMARK       I    between atoms: C_7  and  N_8 
REMARK    3  A    between atoms: C_14  and  C_15 
REMARK       I    between atoms: C_15  and  N_16 
REMARK    4  A    between atoms: N_16  and  C_17 
REMARK    5  A    between atoms: C_17  and  C_18 
REMARK       I    between atoms: N_25  and  C_26 
REMARK    6  A    between atoms: C_26  and  C_27 
REMARK    7  A    between atoms: C_30  and  O_31 
ROOT
HETATM    1  C   UNL     1      42.226  -8.727   7.377  1.00  0.00     0.253 C 
HETATM    2  N   UNL     1      41.538  -9.498   6.428  1.00  0.00    -0.348 N 
HETATM    3  C   UNL     1      40.866 -10.752   6.753  1.00  0.00     0.131 C 
HETATM    4  C   UNL     1      39.743 -11.085   5.787  1.00  0.00     0.081 C 
HETATM    5  C   UNL     1      40.153 -11.031   4.307  1.00  0.00     0.142 C 
HETATM    6  O   UNL     1      38.903 -10.901   3.575  1.00  0.00    -0.358 OA
HETATM    7  C   UNL     1      38.515 -12.168   3.038  1.00  0.00     0.206 C 
HETATM    8  C   UNL     1      39.639 -13.142   3.328  1.00  0.00     0.206 C 
HETATM    9  N   UNL     1      40.723 -12.283   3.795  1.00  0.00    -0.300 N 
HETATM   10  C   UNL     1      41.975 -12.735   4.184  1.00  0.00     0.257 C 
HETATM   11  O   UNL     1      42.794 -12.059   4.794  1.00  0.00    -0.267 OA
HETATM   12  C   UNL     1      40.916  -9.738   3.997  1.00  0.00     0.081 C 
HETATM   13  C   UNL     1      41.934  -9.292   5.037  1.00  0.00     0.131 C 
HETATM   14  O   UNL     1      42.786  -7.664   7.104  1.00  0.00    -0.267 OA
ENDROOT
BRANCH   8  15
HETATM   15  C   UNL     1      39.831 -14.013   2.084  1.00  0.00     0.243 C 
HETATM   16  N   UNL     1      40.032 -13.358   0.892  1.00  0.00    -0.355 N 
HETATM   17  H   UNL     1      40.283 -12.376   0.913  1.00  0.00     0.162 HD
HETATM   18  O   UNL     1      39.676 -15.233   2.152  1.00  0.00    -0.271 OA
BRANCH  16  19
HETATM   19  C   UNL     1      40.371 -14.126  -0.286  1.00  0.00     0.161 C 
BRANCH  19  20
HETATM   20  C   UNL     1      39.359 -13.975  -1.387  1.00  0.00    -0.041 A 
HETATM   21  C   UNL     1      39.235 -14.956  -2.381  1.00  0.00     0.009 A 
HETATM   22  C   UNL     1      38.245 -14.852  -3.360  1.00  0.00     0.001 A 
HETATM   23  C   UNL     1      37.370 -13.767  -3.355  1.00  0.00     0.000 A 
HETATM   24  C   UNL     1      37.484 -12.785  -2.373  1.00  0.00     0.001 A 
HETATM   25  C   UNL     1      38.472 -12.888  -1.394  1.00  0.00     0.009 A 
ENDBRANCH  19  20
ENDBRANCH  16  19
ENDBRANCH   8  15
BRANCH  10  26
HETATM   26  C   UNL     1      42.442 -14.076   3.785  1.00  0.00     0.032 A 
HETATM   27  C   UNL     1      42.185 -15.137   4.659  1.00  0.00     0.020 A 
HETATM   28  C   UNL     1      42.568 -16.430   4.307  1.00  0.00     0.038 A 
HETATM   29  C   UNL     1      43.193 -16.677   3.082  1.00  0.00     0.068 A 
HETATM   30  C   UNL     1      43.427 -15.615   2.204  1.00  0.00     0.038 A 
HETATM   31  C   UNL     1      43.037 -14.315   2.546  1.00  0.00     0.020 A 
BRANCH  29  32
HETATM   32  O   UNL     1      43.513 -17.987   2.865  1.00  0.00    -0.356 OA
HETATM   33  C   UNL     1      44.181 -18.671   3.918  1.00  0.00     0.210 C 
ENDBRANCH  29  32
ENDBRANCH  10  26
BRANCH   1  34
HETATM   34  C   UNL     1      42.311  -9.178   8.786  1.00  0.00     0.032 A 
HETATM   35  C   UNL     1      43.472  -9.777   9.282  1.00  0.00     0.020 A 
HETATM   36  C   UNL     1      43.546 -10.134  10.631  1.00  0.00     0.038 A 
HETATM   37  C   UNL     1      42.489  -9.854  11.500  1.00  0.00     0.068 A 
HETATM   38  C   UNL     1      41.337  -9.237  11.007  1.00  0.00     0.038 A 
HETATM   39  C   UNL     1      41.251  -8.892   9.653  1.00  0.00     0.020 A 
BRANCH  37  40
HETATM   40  O   UNL     1      42.695 -10.235  12.798  1.00  0.00    -0.356 OA
HETATM   41  C   UNL     1      42.137  -9.388  13.796  1.00  0.00     0.210 C 
ENDBRANCH  37  40
ENDBRANCH   1  34
TORSDOF 7
ENDMDL
MODEL 2
REMARK VINA RESULT:      -8.9      3.573      6.150
REMARK  7 active torsions:
REMARK  status: ('A' for Active; 'I' for Inactive)
REMARK    1  A    between atoms: O_2  and  C_3 
REMARK    2  A    between atoms: C_6  and  C_7 
REMARK       I    between atoms: C_7  and  N_8 
REMARK    3  A    between atoms: C_14  and  C_15 
REMARK       I    between atoms: C_15  and  N_16 
REMARK    4  A    between atoms: N_16  and  C_17 
REMARK    5  A    between atoms: C_17  and  C_18 
REMARK       I    between atoms: N_25  and  C_26 
REMARK    6  A    between atoms: C_26  and  C_27 
REMARK    7  A    between atoms: C_30  and  O_31 
ROOT
HETATM    1  C   UNL     1      43.485 -13.244   5.820  1.00  0.00     0.253 C 
HETATM    2  N   UNL     1      42.442 -12.618   5.119  1.00  0.00    -0.348 N 
HETATM    3  C   UNL     1      41.222 -13.309   4.716  1.00  0.00     0.131 C 
HETATM    4  C   UNL     1      40.046 -12.368   4.530  1.00  0.00     0.081 C 
HETATM    5  C   UNL     1      40.343 -11.168   3.618  1.00  0.00     0.142 C 
HETATM    6  O   UNL     1      39.319 -10.187   3.941  1.00  0.00    -0.358 OA
HETATM    7  C   UNL     1      38.287 -10.211   2.953  1.00  0.00     0.206 C 
HETATM    8  C   UNL     1      38.728 -11.166   1.864  1.00  0.00     0.206 C 
HETATM    9  N   UNL     1      40.127 -11.431   2.190  1.00  0.00    -0.300 N 
HETATM   10  C   UNL     1      40.961 -12.265   1.461  1.00  0.00     0.257 C 
HETATM   11  O   UNL     1      42.046 -12.674   1.856  1.00  0.00    -0.267 OA
HETATM   12  C   UNL     1      41.661 -10.493   4.011  1.00  0.00     0.081 C 
HETATM   13  C   UNL     1      42.814 -11.422   4.367  1.00  0.00     0.131 C 
HETATM   14  O   UNL     1      44.511 -12.658   6.166  1.00  0.00    -0.267 OA
ENDROOT
BRANCH   8  15
HETATM   15  C   UNL     1      38.359 -10.538   0.518  1.00  0.00     0.243 C 
HETATM   16  N   UNL     1      38.888  -9.299   0.245  1.00  0.00    -0.355 N 
HETATM   17  H   UNL     1      39.664  -8.967   0.805  1.00  0.00     0.162 HD
HETATM   18  O   UNL     1      37.523 -11.077  -0.208  1.00  0.00    -0.271 OA
BRANCH  16  19
HETATM   19  C   UNL     1      38.699  -8.726  -1.071  1.00  0.00     0.161 C 
BRANCH  19  20
HETATM   20  C   UNL     1      39.998  -8.387  -1.747  1.00  0.00    -0.041 A 
HETATM   21  C   UNL     1      41.134  -8.070  -0.989  1.00  0.00     0.009 A 
HETATM   22  C   UNL     1      42.358  -7.827  -1.616  1.00  0.00     0.001 A 
HETATM   23  C   UNL     1      42.458  -7.900  -3.005  1.00  0.00     0.000 A 
HETATM   24  C   UNL     1      41.335  -8.212  -3.768  1.00  0.00     0.001 A 
HETATM   25  C   UNL     1      40.111  -8.456  -3.143  1.00  0.00     0.009 A 
ENDBRANCH  19  20
ENDBRANCH  16  19
ENDBRANCH   8  15
BRANCH  10  26
HETATM   26  C   UNL     1      40.617 -12.642   0.076  1.00  0.00     0.032 A 
HETATM   27  C   UNL     1      39.804 -13.764  -0.104  1.00  0.00     0.020 A 
HETATM   28  C   UNL     1      39.415 -14.135  -1.391  1.00  0.00     0.038 A 
HETATM   29  C   UNL     1      39.820 -13.386  -2.499  1.00  0.00     0.068 A 
HETATM   30  C   UNL     1      40.614 -12.252  -2.308  1.00  0.00     0.038 A 
HETATM   31  C   UNL     1      41.001 -11.868  -1.019  1.00  0.00     0.020 A 
BRANCH  29  32
HETATM   32  O   UNL     1      39.367 -13.860  -3.697  1.00  0.00    -0.356 OA
HETATM   33  C   UNL     1      38.221 -14.702  -3.666  1.00  0.00     0.210 C 
ENDBRANCH  29  32
ENDBRANCH  10  26
BRANCH   1  34
HETATM   34  C   UNL     1      43.389 -14.680   6.174  1.00  0.00     0.032 A 
HETATM   35  C   UNL     1      43.610 -15.674   5.217  1.00  0.00     0.020 A 
HETATM   36  C   UNL     1      43.577 -17.019   5.595  1.00  0.00     0.038 A 
HETATM   37  C   UNL     1      43.372 -17.379   6.930  1.00  0.00     0.068 A 
HETATM   38  C   UNL     1      43.171 -16.383   7.888  1.00  0.00     0.038 A 
HETATM   39  C   UNL     1      43.188 -15.034   7.512  1.00  0.00     0.020 A 
BRANCH  37  40
HETATM   40  O   UNL     1      43.383 -18.725   7.171  1.00  0.00    -0.356 OA
HETATM   41  C   UNL     1      43.649 -19.561   6.050  1.00  0.00     0.210 C 
ENDBRANCH  37  40
ENDBRANCH   1  34
TORSDOF 7
ENDMDL
MODEL 3
REMARK VINA RESULT:      -8.6      3.651      7.474
REMARK  7 active torsions:
REMARK  status: ('A' for Active; 'I' for Inactive)
REMARK    1  A    between atoms: O_2  and  C_3 
REMARK    2  A    between atoms: C_6  and  C_7 
REMARK       I    between atoms: C_7  and  N_8 
REMARK    3  A    between atoms: C_14  and  C_15 
REMARK       I    between atoms: C_15  and  N_16 
REMARK    4  A    between atoms: N_16  and  C_17 
REMARK    5  A    between atoms: C_17  and  C_18 
REMARK       I    between atoms: N_25  and  C_26 
REMARK    6  A    between atoms: C_26  and  C_27 
REMARK    7  A    between atoms: C_30  and  O_31 
ROOT
HETATM    1  C   UNL     1      43.983 -16.250   5.773  1.00  0.00     0.253 C 
HETATM    2  N   UNL     1      42.956 -15.298   5.674  1.00  0.00    -0.348 N 
HETATM    3  C   UNL     1      41.748 -15.505   4.882  1.00  0.00     0.131 C 
HETATM    4  C   UNL     1      40.574 -14.676   5.371  1.00  0.00     0.081 C 
HETATM    5  C   UNL     1      40.889 -13.182   5.539  1.00  0.00     0.142 C 
HETATM    6  O   UNL     1      39.855 -12.676   6.428  1.00  0.00    -0.358 OA
HETATM    7  C   UNL     1      38.848 -12.000   5.673  1.00  0.00     0.206 C 
HETATM    8  C   UNL     1      39.319 -11.952   4.234  1.00  0.00     0.206 C 
HETATM    9  N   UNL     1      40.710 -12.388   4.317  1.00  0.00    -0.300 N 
HETATM   10  C   UNL     1      41.564 -12.506   3.231  1.00  0.00     0.257 C 
HETATM   11  O   UNL     1      42.640 -13.091   3.259  1.00  0.00    -0.267 OA
HETATM   12  C   UNL     1      42.195 -12.981   6.315  1.00  0.00     0.081 C 
HETATM   13  C   UNL     1      43.342 -13.918   5.957  1.00  0.00     0.131 C 
HETATM   14  O   UNL     1      44.998 -16.077   6.448  1.00  0.00    -0.267 OA
ENDROOT
BRANCH   8  15
HETATM   15  C   UNL     1      38.981 -10.565   3.681  1.00  0.00     0.243 C 
HETATM   16  N   UNL     1      38.143 -10.518   2.592  1.00  0.00    -0.355 N 
HETATM   17  H   UNL     1      37.604 -11.343   2.357  1.00  0.00     0.162 HD
HETATM   18  O   UNL     1      39.551  -9.567   4.123  1.00  0.00    -0.271 OA
BRANCH  16  19
HETATM   19  C   UNL     1      37.668  -9.234   2.123  1.00  0.00     0.161 C 
BRANCH  19  20
HETATM   20  C   UNL     1      37.548  -9.172   0.627  1.00  0.00    -0.041 A 
HETATM   21  C   UNL     1      37.048 -10.266  -0.094  1.00  0.00     0.009 A 
HETATM   22  C   UNL     1      36.868 -10.181  -1.476  1.00  0.00     0.001 A 
HETATM   23  C   UNL     1      37.184  -9.002  -2.150  1.00  0.00     0.000 A 
HETATM   24  C   UNL     1      37.682  -7.909  -1.445  1.00  0.00     0.001 A 
HETATM   25  C   UNL     1      37.863  -7.992  -0.064  1.00  0.00     0.009 A 
ENDBRANCH  19  20
ENDBRANCH  16  19
ENDBRANCH   8  15
BRANCH  10  26
HETATM   26  C   UNL     1      41.256 -11.823   1.960  1.00  0.00     0.032 A 
HETATM   27  C   UNL     1      41.762 -10.533   1.780  1.00  0.00     0.020 A 
HETATM   28  C   UNL     1      41.535  -9.863   0.578  1.00  0.00     0.038 A 
HETATM   29  C   UNL     1      40.818 -10.478  -0.452  1.00  0.00     0.068 A 
HETATM   30  C   UNL     1      40.335 -11.776  -0.274  1.00  0.00     0.038 A 
HETATM   31  C   UNL     1      40.566 -12.459   0.926  1.00  0.00     0.020 A 
BRANCH  29  32
HETATM   32  O   UNL     1      40.671  -9.710  -1.573  1.00  0.00    -0.356 OA
HETATM   33  C   UNL     1      40.581 -10.395  -2.816  1.00  0.00     0.210 C 
ENDBRANCH  29  32
ENDBRANCH  10  26
BRANCH   1  34
HETATM   34  C   UNL     1      43.882 -17.535   5.042  1.00  0.00     0.032 A 
HETATM   35  C   UNL     1      43.895 -17.571   3.645  1.00  0.00     0.020 A 
HETATM   36  C   UNL     1      43.864 -18.802   2.984  1.00  0.00     0.038 A 
HETATM   37  C   UNL     1      43.870 -19.998   3.706  1.00  0.00     0.068 A 
HETATM   38  C   UNL     1      43.877 -19.960   5.101  1.00  0.00     0.038 A 
HETATM   39  C   UNL     1      43.892 -18.729   5.770  1.00  0.00     0.020 A 
BRANCH  37  40
HETATM   40  O   UNL     1      43.859 -21.132   2.941  1.00  0.00    -0.356 OA
HETATM   41  C   UNL     1      43.822 -20.937   1.531  1.00  0.00     0.210 C 
ENDBRANCH  37  40
ENDBRANCH   1  34
TORSDOF 7
ENDMDL
MODEL 4
REMARK VINA RESULT:      -8.2      2.731      9.551
REMARK  7 active torsions:
REMARK  status: ('A' for Active; 'I' for Inactive)
REMARK    1  A    between atoms: O_2  and  C_3 
REMARK    2  A    between atoms: C_6  and  C_7 
REMARK       I    between atoms: C_7  and  N_8 
REMARK    3  A    between atoms: C_14  and  C_15 
REMARK       I    between atoms: C_15  and  N_16 
REMARK    4  A    between atoms: N_16  and  C_17 
REMARK    5  A    between atoms: C_17  and  C_18 
REMARK       I    between atoms: N_25  and  C_26 
REMARK    6  A    between atoms: C_26  and  C_27 
REMARK    7  A    between atoms: C_30  and  O_31 
ROOT
HETATM    1  C   UNL     1      40.435 -15.227   2.802  1.00  0.00     0.253 C 
HETATM    2  N   UNL     1      40.501 -13.830   2.920  1.00  0.00    -0.348 N 
HETATM    3  C   UNL     1      41.690 -13.123   3.384  1.00  0.00     0.131 C 
HETATM    4  C   UNL     1      41.755 -11.691   2.885  1.00  0.00     0.081 C 
HETATM    5  C   UNL     1      40.477 -10.878   3.144  1.00  0.00     0.142 C 
HETATM    6  O   UNL     1      40.546  -9.762   2.214  1.00  0.00    -0.358 OA
HETATM    7  C   UNL     1      40.989  -8.585   2.894  1.00  0.00     0.206 C 
HETATM    8  C   UNL     1      41.088  -8.925   4.367  1.00  0.00     0.206 C 
HETATM    9  N   UNL     1      40.434 -10.228   4.459  1.00  0.00    -0.300 N 
HETATM   10  C   UNL     1      40.281 -10.951   5.632  1.00  0.00     0.257 C 
HETATM   11  O   UNL     1      39.956 -12.131   5.680  1.00  0.00    -0.267 OA
HETATM   12  C   UNL     1      39.233 -11.661   2.712  1.00  0.00     0.081 C 
HETATM   13  C   UNL     1      39.218 -13.145   3.056  1.00  0.00     0.131 C 
HETATM   14  O   UNL     1      39.434 -15.823   2.402  1.00  0.00    -0.267 OA
ENDROOT
BRANCH   8  15
HETATM   15  C   UNL     1      40.540  -7.734   5.156  1.00  0.00     0.243 C 
HETATM   16  N   UNL     1      41.434  -7.045   5.941  1.00  0.00    -0.355 N 
HETATM   17  H   UNL     1      42.425  -7.186   5.787  1.00  0.00     0.162 HD
HETATM   18  O   UNL     1      39.330  -7.507   5.175  1.00  0.00    -0.271 OA
BRANCH  16  19
HETATM   19  C   UNL     1      41.008  -5.822   6.588  1.00  0.00     0.161 C 
BRANCH  19  20
HETATM   20  C   UNL     1      41.485  -5.723   8.010  1.00  0.00    -0.041 A 
HETATM   21  C   UNL     1      40.676  -5.136   8.993  1.00  0.00     0.009 A 
HETATM   22  C   UNL     1      41.088  -5.111  10.327  1.00  0.00     0.001 A 
HETATM   23  C   UNL     1      42.311  -5.672  10.691  1.00  0.00     0.000 A 
HETATM   24  C   UNL     1      43.124  -6.257   9.722  1.00  0.00     0.001 A 
HETATM   25  C   UNL     1      42.714  -6.284   8.389  1.00  0.00     0.009 A 
ENDBRANCH  19  20
ENDBRANCH  16  19
ENDBRANCH   8  15
BRANCH  10  26
HETATM   26  C   UNL     1      40.415 -10.286   6.943  1.00  0.00     0.032 A 
HETATM   27  C   UNL     1      39.239  -9.942   7.616  1.00  0.00     0.020 A 
HETATM   28  C   UNL     1      39.313  -9.351   8.877  1.00  0.00     0.038 A 
HETATM   29  C   UNL     1      40.552  -9.114   9.479  1.00  0.00     0.068 A 
HETATM   30  C   UNL     1      41.722  -9.482   8.810  1.00  0.00     0.038 A 
HETATM   31  C   UNL     1      41.656 -10.083   7.548  1.00  0.00     0.020 A 
BRANCH  29  32
HETATM   32  O   UNL     1      40.478  -8.533  10.713  1.00  0.00    -0.356 OA
HETATM   33  C   UNL     1      41.194  -9.164  11.767  1.00  0.00     0.210 C 
ENDBRANCH  29  32
ENDBRANCH  10  26
BRANCH   1  34
HETATM   34  C   UNL     1      41.601 -16.063   3.171  1.00  0.00     0.032 A 
HETATM   35  C   UNL     1      41.883 -16.356   4.507  1.00  0.00     0.020 A 
HETATM   36  C   UNL     1      42.952 -17.200   4.822  1.00  0.00     0.038 A 
HETATM   37  C   UNL     1      43.712 -17.793   3.810  1.00  0.00     0.068 A 
HETATM   38  C   UNL     1      43.416 -17.514   2.474  1.00  0.00     0.038 A 
HETATM   39  C   UNL     1      42.356 -16.657   2.154  1.00  0.00     0.020 A 
BRANCH  37  40
HETATM   40  O   UNL     1      44.714 -18.613   4.249  1.00  0.00    -0.356 OA
HETATM   41  C   UNL     1      44.306 -19.843   4.839  1.00  0.00     0.210 C 
ENDBRANCH  37  40
ENDBRANCH   1  34
TORSDOF 7
ENDMDL
MODEL 5
REMARK VINA RESULT:      -8.0      3.110      6.922
REMARK  7 active torsions:
REMARK  status: ('A' for Active; 'I' for Inactive)
REMARK    1  A    between atoms: O_2  and  C_3 
REMARK    2  A    between atoms: C_6  and  C_7 
REMARK       I    between atoms: C_7  and  N_8 
REMARK    3  A    between atoms: C_14  and  C_15 
REMARK       I    between atoms: C_15  and  N_16 
REMARK    4  A    between atoms: N_16  and  C_17 
REMARK    5  A    between atoms: C_17  and  C_18 
REMARK       I    between atoms: N_25  and  C_26 
REMARK    6  A    between atoms: C_26  and  C_27 
REMARK    7  A    between atoms: C_30  and  O_31 
ROOT
HETATM    1  C   UNL     1      42.515  -7.725  11.995  1.00  0.00     0.253 C 
HETATM    2  N   UNL     1      43.043  -8.474  10.932  1.00  0.00    -0.348 N 
HETATM    3  C   UNL     1      43.564  -7.870   9.710  1.00  0.00     0.131 C 
HETATM    4  C   UNL     1      44.579  -8.750   9.004  1.00  0.00     0.081 C 
HETATM    5  C   UNL     1      44.100 -10.190   8.763  1.00  0.00     0.142 C 
HETATM    6  O   UNL     1      45.314 -10.959   8.540  1.00  0.00    -0.358 OA
HETATM    7  C   UNL     1      45.503 -11.181   7.141  1.00  0.00     0.206 C 
HETATM    8  C   UNL     1      44.280 -10.640   6.429  1.00  0.00     0.206 C 
HETATM    9  N   UNL     1      43.344 -10.372   7.518  1.00  0.00    -0.300 N 
HETATM   10  C   UNL     1      42.067  -9.858   7.350  1.00  0.00     0.257 C 
HETATM   11  O   UNL     1      41.377  -9.412   8.259  1.00  0.00    -0.267 OA
HETATM   12  C   UNL     1      43.496 -10.788  10.039  1.00  0.00     0.081 C 
HETATM   13  C   UNL     1      42.602  -9.865  10.857  1.00  0.00     0.131 C 
HETATM   14  O   UNL     1      42.084  -8.235  13.030  1.00  0.00    -0.267 OA
ENDROOT
BRANCH   8  15
HETATM   15  C   UNL     1      43.908 -11.632   5.325  1.00  0.00     0.243 C 
HETATM   16  N   UNL     1      43.437 -12.860   5.725  1.00  0.00    -0.355 N 
HETATM   17  H   UNL     1      43.130 -12.974   6.684  1.00  0.00     0.162 HD
HETATM   18  O   UNL     1      44.155 -11.369   4.147  1.00  0.00    -0.271 OA
BRANCH  16  19
HETATM   19  C   UNL     1      42.927 -13.778   4.730  1.00  0.00     0.161 C 
BRANCH  19  20
HETATM   20  C   UNL     1      43.285 -15.208   5.023  1.00  0.00    -0.041 A 
HETATM   21  C   UNL     1      43.184 -16.187   4.025  1.00  0.00     0.009 A 
HETATM   22  C   UNL     1      43.587 -17.500   4.278  1.00  0.00     0.001 A 
HETATM   23  C   UNL     1      44.096 -17.846   5.529  1.00  0.00     0.000 A 
HETATM   24  C   UNL     1      44.200 -16.881   6.529  1.00  0.00     0.001 A 
HETATM   25  C   UNL     1      43.798 -15.569   6.278  1.00  0.00     0.009 A 
ENDBRANCH  19  20
ENDBRANCH  16  19
ENDBRANCH   8  15
BRANCH  10  26
HETATM   26  C   UNL     1      41.408  -9.910   6.031  1.00  0.00     0.032 A 
HETATM   27  C   UNL     1      40.509 -10.956   5.800  1.00  0.00     0.020 A 
HETATM   28  C   UNL     1      39.827 -11.023   4.585  1.00  0.00     0.038 A 
HETATM   29  C   UNL     1      40.025 -10.047   3.604  1.00  0.00     0.068 A 
HETATM   30  C   UNL     1      40.907  -8.993   3.852  1.00  0.00     0.038 A 
HETATM   31  C   UNL     1      41.589  -8.913   5.072  1.00  0.00     0.020 A 
BRANCH  29  32
HETATM   32  O   UNL     1      39.293 -10.235   2.466  1.00  0.00    -0.356 OA
HETATM   33  C   UNL     1      38.612 -11.476   2.335  1.00  0.00     0.210 C 
ENDBRANCH  29  32
ENDBRANCH  10  26
BRANCH   1  34
HETATM   34  C   UNL     1      42.449  -6.247  11.906  1.00  0.00     0.032 A 
HETATM   35  C   UNL     1      42.500  -5.453  13.055  1.00  0.00     0.020 A 
HETATM   36  C   UNL     1      42.501  -4.061  12.936  1.00  0.00     0.038 A 
HETATM   37  C   UNL     1      42.501  -3.454  11.677  1.00  0.00     0.068 A 
HETATM   38  C   UNL     1      42.470  -4.250  10.530  1.00  0.00     0.038 A 
HETATM   39  C   UNL     1      42.453  -5.646  10.644  1.00  0.00     0.020 A 
BRANCH  37  40
HETATM   40  O   UNL     1      42.524  -2.087  11.698  1.00  0.00    -0.356 OA
HETATM   41  C   UNL     1      42.893  -1.485  12.934  1.00  0.00     0.210 C 
ENDBRANCH  37  40
ENDBRANCH   1  34
TORSDOF 7
ENDMDL
MODEL 6
REMARK VINA RESULT:      -8.0      4.676      8.597
REMARK  7 active torsions:
REMARK  status: ('A' for Active; 'I' for Inactive)
REMARK    1  A    between atoms: O_2  and  C_3 
REMARK    2  A    between atoms: C_6  and  C_7 
REMARK       I    between atoms: C_7  and  N_8 
REMARK    3  A    between atoms: C_14  and  C_15 
REMARK       I    between atoms: C_15  and  N_16 
REMARK    4  A    between atoms: N_16  and  C_17 
REMARK    5  A    between atoms: C_17  and  C_18 
REMARK       I    between atoms: N_25  and  C_26 
REMARK    6  A    between atoms: C_26  and  C_27 
REMARK    7  A    between atoms: C_30  and  O_31 
ROOT
HETATM    1  C   UNL     1      42.716 -13.130   4.150  1.00  0.00     0.253 C 
HETATM    2  N   UNL     1      41.847 -12.134   3.678  1.00  0.00    -0.348 N 
HETATM    3  C   UNL     1      40.836 -12.376   2.654  1.00  0.00     0.131 C 
HETATM    4  C   UNL     1      39.678 -11.397   2.728  1.00  0.00     0.081 C 
HETATM    5  C   UNL     1      40.106  -9.922   2.762  1.00  0.00     0.142 C 
HETATM    6  O   UNL     1      38.957  -9.209   3.298  1.00  0.00    -0.358 OA
HETATM    7  C   UNL     1      38.227  -8.588   2.238  1.00  0.00     0.206 C 
HETATM    8  C   UNL     1      39.016  -8.802   0.962  1.00  0.00     0.206 C 
HETATM    9  N   UNL     1      40.296  -9.320   1.437  1.00  0.00    -0.300 N 
HETATM   10  C   UNL     1      41.357  -9.669   0.616  1.00  0.00     0.257 C 
HETATM   11  O   UNL     1      42.329 -10.318   0.981  1.00  0.00    -0.267 OA
HETATM   12  C   UNL     1      41.215  -9.697   3.796  1.00  0.00     0.081 C 
HETATM   13  C   UNL     1      42.305 -10.759   3.855  1.00  0.00     0.131 C 
HETATM   14  O   UNL     1      43.564 -12.928   5.021  1.00  0.00    -0.267 OA
ENDROOT
BRANCH   8  15
HETATM   15  C   UNL     1      38.964  -7.499   0.161  1.00  0.00     0.243 C 
HETATM   16  N   UNL     1      39.588  -6.405   0.712  1.00  0.00    -0.355 N 
HETATM   17  H   UNL     1      40.242  -6.551   1.473  1.00  0.00     0.162 HD
HETATM   18  O   UNL     1      38.278  -7.427  -0.860  1.00  0.00    -0.271 OA
BRANCH  16  19
HETATM   19  C   UNL     1      39.704  -5.192  -0.068  1.00  0.00     0.161 C 
BRANCH  19  20
HETATM   20  C   UNL     1      41.132  -4.821  -0.353  1.00  0.00    -0.041 A 
HETATM   21  C   UNL     1      42.136  -5.070   0.593  1.00  0.00     0.009 A 
HETATM   22  C   UNL     1      43.472  -4.792   0.297  1.00  0.00     0.001 A 
HETATM   23  C   UNL     1      43.818  -4.266  -0.946  1.00  0.00     0.000 A 
HETATM   24  C   UNL     1      42.828  -4.014  -1.895  1.00  0.00     0.001 A 
HETATM   25  C   UNL     1      41.493  -4.290  -1.601  1.00  0.00     0.009 A 
ENDBRANCH  19  20
ENDBRANCH  16  19
ENDBRANCH   8  15
BRANCH  10  26
HETATM   26  C   UNL     1      41.421  -9.174  -0.773  1.00  0.00     0.032 A 
HETATM   27  C   UNL     1      42.357  -8.176  -1.061  1.00  0.00     0.020 A 
HETATM   28  C   UNL     1      42.486  -7.707  -2.368  1.00  0.00     0.038 A 
HETATM   29  C   UNL     1      41.699  -8.238  -3.394  1.00  0.00     0.068 A 
HETATM   30  C   UNL     1      40.783  -9.251  -3.103  1.00  0.00     0.038 A 
HETATM   31  C   UNL     1      40.653  -9.734  -1.795  1.00  0.00     0.020 A 
BRANCH  29  32
HETATM   32  O   UNL     1      41.930  -7.689  -4.624  1.00  0.00    -0.356 OA
HETATM   33  C   UNL     1      42.870  -6.625  -4.688  1.00  0.00     0.210 C 
ENDBRANCH  29  32
ENDBRANCH  10  26
BRANCH   1  34
HETATM   34  C   UNL     1      42.647 -14.504   3.598  1.00  0.00     0.032 A 
HETATM   35  C   UNL     1      43.265 -14.825   2.387  1.00  0.00     0.020 A 
HETATM   36  C   UNL     1      43.238 -16.143   1.923  1.00  0.00     0.038 A 
HETATM   37  C   UNL     1      42.641 -17.153   2.683  1.00  0.00     0.068 A 
HETATM   38  C   UNL     1      42.041 -16.833   3.902  1.00  0.00     0.038 A 
HETATM   39  C   UNL     1      42.052 -15.511   4.364  1.00  0.00     0.020 A 
BRANCH  37  40
HETATM   40  O   UNL     1      42.701 -18.401   2.127  1.00  0.00    -0.356 OA
HETATM   41  C   UNL     1      43.687 -19.278   2.660  1.00  0.00     0.210 C 
ENDBRANCH  37  40
ENDBRANCH   1  34
TORSDOF 7
ENDMDL
MODEL 7
REMARK VINA RESULT:      -8.0      3.122      6.204
REMARK  7 active torsions:
REMARK  status: ('A' for Active; 'I' for Inactive)
REMARK    1  A    between atoms: O_2  and  C_3 
REMARK    2  A    between atoms: C_6  and  C_7 
REMARK       I    between atoms: C_7  and  N_8 
REMARK    3  A    between atoms: C_14  and  C_15 
REMARK       I    between atoms: C_15  and  N_16 
REMARK    4  A    between atoms: N_16  and  C_17 
REMARK    5  A    between atoms: C_17  and  C_18 
REMARK       I    between atoms: N_25  and  C_26 
REMARK    6  A    between atoms: C_26  and  C_27 
REMARK    7  A    between atoms: C_30  and  O_31 
ROOT
HETATM    1  C   UNL     1      39.331  -7.620   6.841  1.00  0.00     0.253 C 
HETATM    2  N   UNL     1      40.064  -8.749   6.442  1.00  0.00    -0.348 N 
HETATM    3  C   UNL     1      41.239  -8.674   5.579  1.00  0.00     0.131 C 
HETATM    4  C   UNL     1      42.178  -9.853   5.761  1.00  0.00     0.081 C 
HETATM    5  C   UNL     1      41.490 -11.223   5.661  1.00  0.00     0.142 C 
HETATM    6  O   UNL     1      42.402 -12.150   6.312  1.00  0.00    -0.358 OA
HETATM    7  C   UNL     1      43.153 -12.869   5.332  1.00  0.00     0.206 C 
HETATM    8  C   UNL     1      42.608 -12.481   3.973  1.00  0.00     0.206 C 
HETATM    9  N   UNL     1      41.387 -11.746   4.293  1.00  0.00    -0.300 N 
HETATM   10  C   UNL     1      40.536 -11.186   3.353  1.00  0.00     0.257 C 
HETATM   11  O   UNL     1      39.655 -10.376   3.615  1.00  0.00    -0.267 OA
HETATM   12  C   UNL     1      40.222 -11.263   6.520  1.00  0.00     0.081 C 
HETATM   13  C   UNL     1      39.344 -10.019   6.484  1.00  0.00     0.131 C 
HETATM   14  O   UNL     1      38.344  -7.683   7.575  1.00  0.00    -0.267 OA
ENDROOT
BRANCH   8  15
HETATM   15  C   UNL     1      42.538 -13.750   3.120  1.00  0.00     0.243 C 
HETATM   16  N   UNL     1      41.812 -14.801   3.630  1.00  0.00    -0.355 N 
HETATM   17  H   UNL     1      41.174 -14.625   4.396  1.00  0.00     0.162 HD
HETATM   18  O   UNL     1      43.216 -13.847   2.097  1.00  0.00    -0.271 OA
BRANCH  16  19
HETATM   19  C   UNL     1      41.584 -15.967   2.802  1.00  0.00     0.161 C 
BRANCH  19  20
HETATM   20  C   UNL     1      42.463 -17.126   3.181  1.00  0.00    -0.041 A 
HETATM   21  C   UNL     1      42.753 -18.133   2.250  1.00  0.00     0.009 A 
HETATM   22  C   UNL     1      43.628 -19.171   2.579  1.00  0.00     0.001 A 
HETATM   23  C   UNL     1      44.222 -19.210   3.840  1.00  0.00     0.000 A 
HETATM   24  C   UNL     1      43.940 -18.215   4.773  1.00  0.00     0.001 A 
HETATM   25  C   UNL     1      43.066 -17.178   4.446  1.00  0.00     0.009 A 
ENDBRANCH  19  20
ENDBRANCH  16  19
ENDBRANCH   8  15
BRANCH  10  26
HETATM   26  C   UNL     1      40.584 -11.625   1.945  1.00  0.00     0.032 A 
HETATM   27  C   UNL     1      39.752 -12.684   1.570  1.00  0.00     0.020 A 
HETATM   28  C   UNL     1      39.729 -13.106   0.241  1.00  0.00     0.038 A 
HETATM   29  C   UNL     1      40.519 -12.470  -0.720  1.00  0.00     0.068 A 
HETATM   30  C   UNL     1      41.330 -11.397  -0.342  1.00  0.00     0.038 A 
HETATM   31  C   UNL     1      41.353 -10.961   0.988  1.00  0.00     0.020 A 
BRANCH  29  32
HETATM   32  O   UNL     1      40.398 -12.984  -1.980  1.00  0.00    -0.356 OA
HETATM   33  C   UNL     1      41.069 -12.292  -3.025  1.00  0.00     0.210 C 
ENDBRANCH  29  32
ENDBRANCH  10  26
BRANCH   1  34
HETATM   34  C   UNL     1      39.725  -6.270   6.374  1.00  0.00     0.032 A 
HETATM   35  C   UNL     1      40.667  -5.513   7.075  1.00  0.00     0.020 A 
HETATM   36  C   UNL     1      41.068  -4.271   6.576  1.00  0.00     0.038 A 
HETATM   37  C   UNL     1      40.572  -3.800   5.357  1.00  0.00     0.068 A 
HETATM   38  C   UNL     1      39.645  -4.567   4.648  1.00  0.00     0.038 A 
HETATM   39  C   UNL     1      39.229  -5.806   5.152  1.00  0.00     0.020 A 
BRANCH  37  40
HETATM   40  O   UNL     1      41.058  -2.581   4.970  1.00  0.00    -0.356 OA
HETATM   41  C   UNL     1      42.427  -2.547   4.580  1.00  0.00     0.210 C 
ENDBRANCH  37  40
ENDBRANCH   1  34
TORSDOF 7
ENDMDL
MODEL 8
REMARK VINA RESULT:      -8.0     18.414     21.318
REMARK  7 active torsions:
REMARK  status: ('A' for Active; 'I' for Inactive)
REMARK    1  A    between atoms: O_2  and  C_3 
REMARK    2  A    between atoms: C_6  and  C_7 
REMARK       I    between atoms: C_7  and  N_8 
REMARK    3  A    between atoms: C_14  and  C_15 
REMARK       I    between atoms: C_15  and  N_16 
REMARK    4  A    between atoms: N_16  and  C_17 
REMARK    5  A    between atoms: C_17  and  C_18 
REMARK       I    between atoms: N_25  and  C_26 
REMARK    6  A    between atoms: C_26  and  C_27 
REMARK    7  A    between atoms: C_30  and  O_31 
ROOT
HETATM    1  C   UNL     1      42.229 -30.040   1.583  1.00  0.00     0.253 C 
HETATM    2  N   UNL     1      43.441 -30.591   1.139  1.00  0.00    -0.348 N 
HETATM    3  C   UNL     1      44.003 -31.825   1.680  1.00  0.00     0.131 C 
HETATM    4  C   UNL     1      44.934 -32.523   0.706  1.00  0.00     0.081 C 
HETATM    5  C   UNL     1      46.026 -31.614   0.121  1.00  0.00     0.142 C 
HETATM    6  O   UNL     1      46.477 -32.293  -1.084  1.00  0.00    -0.358 OA
HETATM    7  C   UNL     1      47.704 -32.980  -0.829  1.00  0.00     0.206 C 
HETATM    8  C   UNL     1      48.138 -32.620   0.577  1.00  0.00     0.206 C 
HETATM    9  N   UNL     1      47.240 -31.528   0.941  1.00  0.00    -0.300 N 
HETATM   10  C   UNL     1      47.260 -30.865   2.159  1.00  0.00     0.257 C 
HETATM   11  O   UNL     1      46.369 -30.124   2.557  1.00  0.00    -0.267 OA
HETATM   12  C   UNL     1      45.429 -30.295  -0.382  1.00  0.00     0.081 C 
HETATM   13  C   UNL     1      44.366 -29.657   0.502  1.00  0.00     0.131 C 
HETATM   14  O   UNL     1      41.751 -29.003   1.120  1.00  0.00    -0.267 OA
ENDROOT
BRANCH   8  15
HETATM   15  C   UNL     1      49.651 -32.394   0.553  1.00  0.00     0.243 C 
HETATM   16  N   UNL     1      50.132 -31.510  -0.384  1.00  0.00    -0.355 N 
HETATM   17  H   UNL     1      49.481 -30.880  -0.837  1.00  0.00     0.162 HD
HETATM   18  O   UNL     1      50.392 -33.082   1.257  1.00  0.00    -0.271 OA
BRANCH  16  19
HETATM   19  C   UNL     1      51.531 -31.142  -0.353  1.00  0.00     0.161 C 
BRANCH  19  20
HETATM   20  C   UNL     1      52.330 -31.809  -1.436  1.00  0.00    -0.041 A 
HETATM   21  C   UNL     1      52.051 -31.555  -2.787  1.00  0.00     0.009 A 
HETATM   22  C   UNL     1      52.842 -32.118  -3.791  1.00  0.00     0.001 A 
HETATM   23  C   UNL     1      53.918 -32.939  -3.456  1.00  0.00     0.000 A 
HETATM   24  C   UNL     1      54.203 -33.199  -2.117  1.00  0.00     0.001 A 
HETATM   25  C   UNL     1      53.415 -32.637  -1.112  1.00  0.00     0.009 A 
ENDBRANCH  19  20
ENDBRANCH  16  19
ENDBRANCH   8  15
BRANCH  10  26
HETATM   26  C   UNL     1      48.445 -30.946   3.035  1.00  0.00     0.032 A 
HETATM   27  C   UNL     1      49.448 -29.989   2.853  1.00  0.00     0.020 A 
HETATM   28  C   UNL     1      50.567 -29.996   3.685  1.00  0.00     0.038 A 
HETATM   29  C   UNL     1      50.686 -30.942   4.707  1.00  0.00     0.068 A 
HETATM   30  C   UNL     1      49.669 -31.880   4.897  1.00  0.00     0.038 A 
HETATM   31  C   UNL     1      48.538 -31.874   4.072  1.00  0.00     0.020 A 
BRANCH  29  32
HETATM   32  O   UNL     1      51.831 -30.833   5.446  1.00  0.00    -0.356 OA
HETATM   33  C   UNL     1      52.169 -31.937   6.276  1.00  0.00     0.210 C 
ENDBRANCH  29  32
ENDBRANCH  10  26
BRANCH   1  34
HETATM   34  C   UNL     1      41.458 -30.703   2.661  1.00  0.00     0.032 A 
HETATM   35  C   UNL     1      41.548 -30.264   3.985  1.00  0.00     0.020 A 
HETATM   36  C   UNL     1      40.760 -30.866   4.969  1.00  0.00     0.038 A 
HETATM   37  C   UNL     1      39.847 -31.870   4.635  1.00  0.00     0.068 A 
HETATM   38  C   UNL     1      39.745 -32.293   3.309  1.00  0.00     0.038 A 
HETATM   39  C   UNL     1      40.543 -31.704   2.320  1.00  0.00     0.020 A 
BRANCH  37  40
HETATM   40  O   UNL     1      39.123 -32.362   5.686  1.00  0.00    -0.356 OA
HETATM   41  C   UNL     1      38.123 -33.322   5.365  1.00  0.00     0.210 C 
ENDBRANCH  37  40
ENDBRANCH   1  34
TORSDOF 7
ENDMDL
MODEL 9
REMARK VINA RESULT:      -7.7      2.991      8.815
REMARK  7 active torsions:
REMARK  status: ('A' for Active; 'I' for Inactive)
REMARK    1  A    between atoms: O_2  and  C_3 
REMARK    2  A    between atoms: C_6  and  C_7 
REMARK       I    between atoms: C_7  and  N_8 
REMARK    3  A    between atoms: C_14  and  C_15 
REMARK       I    between atoms: C_15  and  N_16 
REMARK    4  A    between atoms: N_16  and  C_17 
REMARK    5  A    between atoms: C_17  and  C_18 
REMARK       I    between atoms: N_25  and  C_26 
REMARK    6  A    between atoms: C_26  and  C_27 
REMARK    7  A    between atoms: C_30  and  O_31 
ROOT
HETATM    1  C   UNL     1      40.371 -15.192   2.892  1.00  0.00     0.253 C 
HETATM    2  N   UNL     1      40.457 -13.793   2.961  1.00  0.00    -0.348 N 
HETATM    3  C   UNL     1      41.677 -13.085   3.334  1.00  0.00     0.131 C 
HETATM    4  C   UNL     1      41.727 -11.671   2.786  1.00  0.00     0.081 C 
HETATM    5  C   UNL     1      40.475 -10.835   3.092  1.00  0.00     0.142 C 
HETATM    6  O   UNL     1      40.501  -9.749   2.125  1.00  0.00    -0.358 OA
HETATM    7  C   UNL     1      40.993  -8.557   2.740  1.00  0.00     0.206 C 
HETATM    8  C   UNL     1      41.173  -8.852   4.215  1.00  0.00     0.206 C 
HETATM    9  N   UNL     1      40.514 -10.144   4.386  1.00  0.00    -0.300 N 
HETATM   10  C   UNL     1      40.422 -10.828   5.589  1.00  0.00     0.257 C 
HETATM   11  O   UNL     1      40.088 -12.002   5.692  1.00  0.00    -0.267 OA
HETATM   12  C   UNL     1      39.200 -11.617   2.757  1.00  0.00     0.081 C 
HETATM   13  C   UNL     1      39.191 -13.089   3.149  1.00  0.00     0.131 C 
HETATM   14  O   UNL     1      39.343 -15.789   2.569  1.00  0.00    -0.267 OA
ENDROOT
BRANCH   8  15
HETATM   15  C   UNL     1      40.684  -7.631   4.996  1.00  0.00     0.243 C 
HETATM   16  N   UNL     1      39.341  -7.342   4.921  1.00  0.00    -0.355 N 
HETATM   17  H   UNL     1      38.710  -8.054   4.572  1.00  0.00     0.162 HD
HETATM   18  O   UNL     1      41.492  -6.884   5.548  1.00  0.00    -0.271 OA
BRANCH  16  19
HETATM   19  C   UNL     1      38.797  -6.295   5.759  1.00  0.00     0.161 C 
BRANCH  19  20
HETATM   20  C   UNL     1      37.297  -6.227   5.700  1.00  0.00    -0.041 A 
HETATM   21  C   UNL     1      36.566  -7.201   5.005  1.00  0.00     0.009 A 
HETATM   22  C   UNL     1      35.170  -7.178   5.013  1.00  0.00     0.001 A 
HETATM   23  C   UNL     1      34.492  -6.183   5.716  1.00  0.00     0.000 A 
HETATM   24  C   UNL     1      35.208  -5.210   6.410  1.00  0.00     0.001 A 
HETATM   25  C   UNL     1      36.603  -5.231   6.403  1.00  0.00     0.009 A 
ENDBRANCH  19  20
ENDBRANCH  16  19
ENDBRANCH   8  15
BRANCH  10  26
HETATM   26  C   UNL     1      40.637 -10.124   6.868  1.00  0.00     0.032 A 
HETATM   27  C   UNL     1      39.505  -9.735   7.590  1.00  0.00     0.020 A 
HETATM   28  C   UNL     1      39.656  -9.106   8.825  1.00  0.00     0.038 A 
HETATM   29  C   UNL     1      40.930  -8.874   9.353  1.00  0.00     0.068 A 
HETATM   30  C   UNL     1      42.056  -9.286   8.636  1.00  0.00     0.038 A 
HETATM   31  C   UNL     1      41.912  -9.926   7.399  1.00  0.00     0.020 A 
BRANCH  29  32
HETATM   32  O   UNL     1      40.932  -8.252  10.569  1.00  0.00    -0.356 OA
HETATM   33  C   UNL     1      40.113  -7.097  10.704  1.00  0.00     0.210 C 
ENDBRANCH  29  32
ENDBRANCH  10  26
BRANCH   1  34
HETATM   34  C   UNL     1      41.548 -16.030   3.220  1.00  0.00     0.032 A 
HETATM   35  C   UNL     1      41.860 -16.347   4.545  1.00  0.00     0.020 A 
HETATM   36  C   UNL     1      42.938 -17.192   4.820  1.00  0.00     0.038 A 
HETATM   37  C   UNL     1      43.679 -17.761   3.781  1.00  0.00     0.068 A 
HETATM   38  C   UNL     1      43.354 -17.459   2.457  1.00  0.00     0.038 A 
HETATM   39  C   UNL     1      42.284 -16.600   2.176  1.00  0.00     0.020 A 
BRANCH  37  40
HETATM   40  O   UNL     1      44.694 -18.585   4.183  1.00  0.00    -0.356 OA
HETATM   41  C   UNL     1      44.305 -19.841   4.728  1.00  0.00     0.210 C 
ENDBRANCH  37  40
ENDBRANCH   1  34
TORSDOF 7
ENDMDL
MODEL 10
REMARK VINA RESULT:      -7.7      3.696      6.301
REMARK  7 active torsions:
REMARK  status: ('A' for Active; 'I' for Inactive)
REMARK    1  A    between atoms: O_2  and  C_3 
REMARK    2  A    between atoms: C_6  and  C_7 
REMARK       I    between atoms: C_7  and  N_8 
REMARK    3  A    between atoms: C_14  and  C_15 
REMARK       I    between atoms: C_15  and  N_16 
REMARK    4  A    between atoms: N_16  and  C_17 
REMARK    5  A    between atoms: C_17  and  C_18 
REMARK       I    between atoms: N_25  and  C_26 
REMARK    6  A    between atoms: C_26  and  C_27 
REMARK    7  A    between atoms: C_30  and  O_31 
ROOT
HETATM    1  C   UNL     1      40.958 -12.322   5.621  1.00  0.00     0.253 C 
HETATM    2  N   UNL     1      40.751 -12.541   4.250  1.00  0.00    -0.348 N 
HETATM    3  C   UNL     1      41.821 -12.472   3.259  1.00  0.00     0.131 C 
HETATM    4  C   UNL     1      41.525 -13.289   2.016  1.00  0.00     0.081 C 
HETATM    5  C   UNL     1      40.154 -13.001   1.387  1.00  0.00     0.142 C 
HETATM    6  O   UNL     1      39.870 -14.159   0.554  1.00  0.00    -0.358 OA
HETATM    7  C   UNL     1      40.148 -13.858  -0.815  1.00  0.00     0.206 C 
HETATM    8  C   UNL     1      40.507 -12.388  -0.889  1.00  0.00     0.206 C 
HETATM    9  N   UNL     1      40.152 -11.884   0.434  1.00  0.00    -0.300 N 
HETATM   10  C   UNL     1      40.306 -10.568   0.843  1.00  0.00     0.257 C 
HETATM   11  O   UNL     1      40.238 -10.194   2.008  1.00  0.00    -0.267 OA
HETATM   12  C   UNL     1      39.050 -13.012   2.450  1.00  0.00     0.081 C 
HETATM   13  C   UNL     1      39.385 -12.339   3.775  1.00  0.00     0.131 C 
HETATM   14  O   UNL     1      40.056 -12.389   6.457  1.00  0.00    -0.267 OA
ENDROOT
BRANCH   8  15
HETATM   15  C   UNL     1      39.836 -11.808  -2.137  1.00  0.00     0.243 C 
HETATM   16  N   UNL     1      38.461 -11.789  -2.151  1.00  0.00    -0.355 N 
HETATM   17  H   UNL     1      37.965 -11.922  -1.278  1.00  0.00     0.162 HD
HETATM   18  O   UNL     1      40.513 -11.504  -3.120  1.00  0.00    -0.271 OA
BRANCH  16  19
HETATM   19  C   UNL     1      37.777 -11.115  -3.233  1.00  0.00     0.161 C 
BRANCH  19  20
HETATM   20  C   UNL     1      36.390 -10.675  -2.856  1.00  0.00    -0.041 A 
HETATM   21  C   UNL     1      36.178  -9.888  -1.715  1.00  0.00     0.009 A 
HETATM   22  C   UNL     1      34.900  -9.418  -1.406  1.00  0.00     0.001 A 
HETATM   23  C   UNL     1      33.822  -9.728  -2.235  1.00  0.00     0.000 A 
HETATM   24  C   UNL     1      34.021 -10.510  -3.372  1.00  0.00     0.001 A 
HETATM   25  C   UNL     1      35.298 -10.980  -3.681  1.00  0.00     0.009 A 
ENDBRANCH  19  20
ENDBRANCH  16  19
ENDBRANCH   8  15
BRANCH  10  26
HETATM   26  C   UNL     1      40.473  -9.491  -0.152  1.00  0.00     0.032 A 
HETATM   27  C   UNL     1      41.759  -9.265  -0.651  1.00  0.00     0.020 A 
HETATM   28  C   UNL     1      41.960  -8.289  -1.625  1.00  0.00     0.038 A 
HETATM   29  C   UNL     1      40.884  -7.543  -2.116  1.00  0.00     0.068 A 
HETATM   30  C   UNL     1      39.598  -7.790  -1.629  1.00  0.00     0.038 A 
HETATM   31  C   UNL     1      39.387  -8.775  -0.657  1.00  0.00     0.020 A 
BRANCH  29  32
HETATM   32  O   UNL     1      41.222  -6.622  -3.067  1.00  0.00    -0.356 OA
HETATM   33  C   UNL     1      42.469  -6.805  -3.727  1.00  0.00     0.210 C 
ENDBRANCH  29  32
ENDBRANCH  10  26
BRANCH   1  34
HETATM   34  C   UNL     1      42.309 -11.984   6.127  1.00  0.00     0.032 A 
HETATM   35  C   UNL     1      42.606 -10.699   6.587  1.00  0.00     0.020 A 
HETATM   36  C   UNL     1      43.869 -10.427   7.119  1.00  0.00     0.038 A 
HETATM   37  C   UNL     1      44.823 -11.441   7.241  1.00  0.00     0.068 A 
HETATM   38  C   UNL     1      44.518 -12.730   6.799  1.00  0.00     0.038 A 
HETATM   39  C   UNL     1      43.258 -13.004   6.250  1.00  0.00     0.020 A 
BRANCH  37  40
HETATM   40  O   UNL     1      46.010 -11.050   7.796  1.00  0.00    -0.356 OA
HETATM   41  C   UNL     1      46.189  -9.649   7.972  1.00  0.00     0.210 C 
ENDBRANCH  37  40
ENDBRANCH   1  34
TORSDOF 7
ENDMDL
