MODEL 1
REMARK VINA RESULT:      -8.9      0.000      0.000
REMARK  8 active torsions:
REMARK  status: ('A' for Active; 'I' for Inactive)
REMARK    1  A    between atoms: C_4  and  N_5 
REMARK       I    between atoms: N_5  and  C_6 
REMARK    2  A    between atoms: C_6  and  C_7 
REMARK    3  A    between atoms: C_7  and  N_8 
REMARK    4  A    between atoms: C_7  and  C_24 
REMARK    5  A    between atoms: N_8  and  C_11 
REMARK    6  A    between atoms: C_11  and  C_12 
REMARK    7  A    between atoms: C_15  and  N_16 
REMARK    8  A    between atoms: C_31  and  O_32 
ROOT
HETATM    1  C   UNL     1      41.880 -13.468   2.835  1.00  0.00     0.310 C 
ENDROOT
BRANCH   1   2
HETATM    2  C   UNL     1      41.073 -13.895   4.086  1.00  0.00     0.257 C 
HETATM    3  N   UNL     1      41.288 -15.074   4.732  1.00  0.00    -0.323 N 
HETATM    4  H   UNL     1      40.505 -15.379   5.309  1.00  0.00     0.169 HD
HETATM    5  O   UNL     1      40.174 -13.138   4.481  1.00  0.00    -0.270 OA
BRANCH   3   6
HETATM    6  C   UNL     1      42.286 -16.058   4.562  1.00  0.00     0.069 A 
HETATM    7  C   UNL     1      42.286 -16.973   3.505  1.00  0.00     0.039 A 
HETATM    8  C   UNL     1      43.301 -17.932   3.392  1.00  0.00    -0.060 A 
HETATM    9  C   UNL     1      43.280 -18.936   2.276  1.00  0.00     0.048 C 
HETATM   10  C   UNL     1      44.315 -17.967   4.353  1.00  0.00     0.009 A 
HETATM   11  C   UNL     1      44.349 -17.027   5.386  1.00  0.00     0.039 A 
HETATM   12  C   UNL     1      43.346 -16.062   5.490  1.00  0.00     0.095 A 
BRANCH  12  13
HETATM   13  O   UNL     1      43.273 -15.101   6.470  1.00  0.00    -0.354 OA
HETATM   14  C   UNL     1      42.984 -15.549   7.792  1.00  0.00     0.210 C 
ENDBRANCH  12  13
ENDBRANCH   3   6
ENDBRANCH   1   2
BRANCH   1  15
HETATM   15  N   UNL     1      42.431 -12.059   3.040  1.00  0.00    -0.054 N 
HETATM   16  H   UNL     1      42.438 -11.615   2.109  1.00  0.00     0.278 HD
HETATM   17  H   UNL     1      41.792 -11.517   3.627  1.00  0.00     0.278 HD
BRANCH  15  18
HETATM   18  C   UNL     1      43.819 -11.929   3.566  1.00  0.00     0.272 C 
BRANCH  18  19
HETATM   19  C   UNL     1      43.802 -11.392   4.970  1.00  0.00    -0.033 A 
HETATM   20  C   UNL     1      42.651 -10.777   5.474  1.00  0.00     0.011 A 
HETATM   21  C   UNL     1      42.633 -10.245   6.768  1.00  0.00     0.030 A 
HETATM   22  C   UNL     1      43.752 -10.326   7.604  1.00  0.00     0.037 A 
HETATM   23  C   UNL     1      44.894 -10.963   7.100  1.00  0.00     0.030 A 
HETATM   24  C   UNL     1      44.927 -11.480   5.796  1.00  0.00     0.011 A 
BRANCH  22  25
HETATM   25  N   UNL     1      43.728  -9.799   8.921  1.00  0.00    -0.318 N 
HETATM   26  C   UNL     1      43.871  -8.445   9.271  1.00  0.00     0.224 C 
HETATM   27  O   UNL     1      44.050  -7.480   8.545  1.00  0.00    -0.273 OA
HETATM   28  C   UNL     1      43.862  -8.357  10.780  1.00  0.00     0.105 C 
HETATM   29  C   UNL     1      43.240  -9.675  11.197  1.00  0.00     0.029 C 
HETATM   30  C   UNL     1      43.673 -10.627  10.103  1.00  0.00     0.133 C 
ENDBRANCH  22  25
ENDBRANCH  18  19
ENDBRANCH  15  18
ENDBRANCH   1  15
BRANCH   1  31
HETATM   31  C   UNL     1      41.155 -13.600   1.509  1.00  0.00    -0.019 A 
HETATM   32  C   UNL     1      40.521 -14.812   1.183  1.00  0.00     0.010 A 
HETATM   33  C   UNL     1      39.882 -14.968  -0.049  1.00  0.00     0.001 A 
HETATM   34  C   UNL     1      39.873 -13.925  -0.972  1.00  0.00     0.000 A 
HETATM   35  C   UNL     1      40.504 -12.722  -0.668  1.00  0.00     0.001 A 
HETATM   36  C   UNL     1      41.146 -12.560   0.560  1.00  0.00     0.010 A 
ENDBRANCH   1  31
TORSDOF 8
ENDMDL
MODEL 2
REMARK VINA RESULT:      -8.7      3.915      7.528
REMARK  8 active torsions:
REMARK  status: ('A' for Active; 'I' for Inactive)
REMARK    1  A    between atoms: C_4  and  N_5 
REMARK       I    between atoms: N_5  and  C_6 
REMARK    2  A    between atoms: C_6  and  C_7 
REMARK    3  A    between atoms: C_7  and  N_8 
REMARK    4  A    between atoms: C_7  and  C_24 
REMARK    5  A    between atoms: N_8  and  C_11 
REMARK    6  A    between atoms: C_11  and  C_12 
REMARK    7  A    between atoms: C_15  and  N_16 
REMARK    8  A    between atoms: C_31  and  O_32 
ROOT
HETATM    1  C   UNL     1      40.781 -14.140   1.184  1.00  0.00     0.310 C 
ENDROOT
BRANCH   1   2
HETATM    2  C   UNL     1      39.632 -14.602   2.113  1.00  0.00     0.257 C 
HETATM    3  N   UNL     1      38.767 -13.730   2.700  1.00  0.00    -0.323 N 
HETATM    4  H   UNL     1      38.288 -14.108   3.517  1.00  0.00     0.169 HD
HETATM    5  O   UNL     1      39.533 -15.814   2.352  1.00  0.00    -0.270 OA
BRANCH   3   6
HETATM    6  C   UNL     1      38.592 -12.340   2.533  1.00  0.00     0.069 A 
HETATM    7  C   UNL     1      37.827 -11.783   1.503  1.00  0.00     0.039 A 
HETATM    8  C   UNL     1      37.695 -10.393   1.384  1.00  0.00    -0.060 A 
HETATM    9  C   UNL     1      36.902  -9.797   0.257  1.00  0.00     0.048 C 
HETATM   10  C   UNL     1      38.343  -9.567   2.305  1.00  0.00     0.009 A 
HETATM   11  C   UNL     1      39.071 -10.114   3.364  1.00  0.00     0.039 A 
HETATM   12  C   UNL     1      39.190 -11.499   3.492  1.00  0.00     0.095 A 
BRANCH  12  13
HETATM   13  O   UNL     1      39.891 -12.143   4.483  1.00  0.00    -0.354 OA
HETATM   14  C   UNL     1      39.414 -11.987   5.816  1.00  0.00     0.210 C 
ENDBRANCH  12  13
ENDBRANCH   3   6
ENDBRANCH   1   2
BRANCH   1  15
HETATM   15  N   UNL     1      41.626 -13.088   1.900  1.00  0.00    -0.054 N 
HETATM   16  H   UNL     1      41.616 -12.251   1.298  1.00  0.00     0.278 HD
HETATM   17  H   UNL     1      41.182 -12.828   2.785  1.00  0.00     0.278 HD
BRANCH  15  18
HETATM   18  C   UNL     1      43.062 -13.402   2.141  1.00  0.00     0.272 C 
BRANCH  18  19
HETATM   19  C   UNL     1      43.224 -14.834   2.569  1.00  0.00    -0.033 A 
HETATM   20  C   UNL     1      43.146 -15.177   3.923  1.00  0.00     0.011 A 
HETATM   21  C   UNL     1      43.326 -16.501   4.337  1.00  0.00     0.030 A 
HETATM   22  C   UNL     1      43.571 -17.525   3.415  1.00  0.00     0.037 A 
HETATM   23  C   UNL     1      43.627 -17.177   2.058  1.00  0.00     0.030 A 
HETATM   24  C   UNL     1      43.468 -15.849   1.638  1.00  0.00     0.011 A 
BRANCH  22  25
HETATM   25  N   UNL     1      43.740 -18.870   3.834  1.00  0.00    -0.318 N 
HETATM   26  C   UNL     1      43.662 -20.008   3.012  1.00  0.00     0.224 C 
HETATM   27  O   UNL     1      43.429 -20.073   1.816  1.00  0.00    -0.273 OA
HETATM   28  C   UNL     1      43.827 -21.224   3.894  1.00  0.00     0.105 C 
HETATM   29  C   UNL     1      44.462 -20.655   5.149  1.00  0.00     0.029 C 
HETATM   30  C   UNL     1      43.899 -19.251   5.219  1.00  0.00     0.133 C 
ENDBRANCH  22  25
ENDBRANCH  18  19
ENDBRANCH  15  18
ENDBRANCH   1  15
BRANCH   1  31
HETATM   31  C   UNL     1      40.363 -13.676  -0.199  1.00  0.00    -0.019 A 
HETATM   32  C   UNL     1      39.601 -14.530  -1.016  1.00  0.00     0.010 A 
HETATM   33  C   UNL     1      39.238 -14.138  -2.306  1.00  0.00     0.001 A 
HETATM   34  C   UNL     1      39.635 -12.898  -2.801  1.00  0.00     0.000 A 
HETATM   35  C   UNL     1      40.398 -12.045  -2.008  1.00  0.00     0.001 A 
HETATM   36  C   UNL     1      40.765 -12.431  -0.718  1.00  0.00     0.010 A 
ENDBRANCH   1  31
TORSDOF 8
ENDMDL
MODEL 3
REMARK VINA RESULT:      -8.7      2.126      7.470
REMARK  8 active torsions:
REMARK  status: ('A' for Active; 'I' for Inactive)
REMARK    1  A    between atoms: C_4  and  N_5 
REMARK       I    between atoms: N_5  and  C_6 
REMARK    2  A    between atoms: C_6  and  C_7 
REMARK    3  A    between atoms: C_7  and  N_8 
REMARK    4  A    between atoms: C_7  and  C_24 
REMARK    5  A    between atoms: N_8  and  C_11 
REMARK    6  A    between atoms: C_11  and  C_12 
REMARK    7  A    between atoms: C_15  and  N_16 
REMARK    8  A    between atoms: C_31  and  O_32 
ROOT
HETATM    1  C   UNL     1      42.463 -11.591   5.558  1.00  0.00     0.310 C 
ENDROOT
BRANCH   1   2
HETATM    2  C   UNL     1      42.006 -10.500   4.559  1.00  0.00     0.257 C 
HETATM    3  N   UNL     1      41.690 -10.777   3.264  1.00  0.00    -0.323 N 
HETATM    4  H   UNL     1      41.728  -9.966   2.646  1.00  0.00     0.169 HD
HETATM    5  O   UNL     1      41.967  -9.328   4.960  1.00  0.00    -0.270 OA
BRANCH   3   6
HETATM    6  C   UNL     1      41.557 -12.005   2.582  1.00  0.00     0.069 A 
HETATM    7  C   UNL     1      42.592 -12.941   2.482  1.00  0.00     0.039 A 
HETATM    8  C   UNL     1      42.401 -14.142   1.785  1.00  0.00    -0.060 A 
HETATM    9  C   UNL     1      43.524 -15.129   1.649  1.00  0.00     0.048 C 
HETATM   10  C   UNL     1      41.164 -14.393   1.186  1.00  0.00     0.009 A 
HETATM   11  C   UNL     1      40.111 -13.486   1.320  1.00  0.00     0.039 A 
HETATM   12  C   UNL     1      40.295 -12.296   2.027  1.00  0.00     0.095 A 
BRANCH  12  13
HETATM   13  O   UNL     1      39.336 -11.329   2.209  1.00  0.00    -0.354 OA
HETATM   14  C   UNL     1      38.064 -11.561   1.610  1.00  0.00     0.210 C 
ENDBRANCH  12  13
ENDBRANCH   3   6
ENDBRANCH   1   2
BRANCH   1  15
HETATM   15  N   UNL     1      41.284 -12.005   6.437  1.00  0.00    -0.054 N 
HETATM   16  H   UNL     1      41.692 -12.395   7.300  1.00  0.00     0.278 HD
HETATM   17  H   UNL     1      40.743 -11.179   6.705  1.00  0.00     0.278 HD
BRANCH  15  18
HETATM   18  C   UNL     1      40.363 -13.051   5.910  1.00  0.00     0.272 C 
BRANCH  18  19
HETATM   19  C   UNL     1      41.120 -14.311   5.595  1.00  0.00    -0.033 A 
HETATM   20  C   UNL     1      40.597 -15.239   4.689  1.00  0.00     0.011 A 
HETATM   21  C   UNL     1      41.277 -16.430   4.412  1.00  0.00     0.030 A 
HETATM   22  C   UNL     1      42.505 -16.723   5.013  1.00  0.00     0.037 A 
HETATM   23  C   UNL     1      43.034 -15.779   5.904  1.00  0.00     0.030 A 
HETATM   24  C   UNL     1      42.348 -14.592   6.203  1.00  0.00     0.011 A 
BRANCH  22  25
HETATM   25  N   UNL     1      43.201 -17.925   4.721  1.00  0.00    -0.318 N 
HETATM   26  C   UNL     1      43.565 -18.915   5.650  1.00  0.00     0.224 C 
HETATM   27  O   UNL     1      43.376 -18.941   6.856  1.00  0.00    -0.273 OA
HETATM   28  C   UNL     1      44.355 -19.971   4.911  1.00  0.00     0.105 C 
HETATM   29  C   UNL     1      43.990 -19.720   3.461  1.00  0.00     0.029 C 
HETATM   30  C   UNL     1      43.741 -18.228   3.416  1.00  0.00     0.133 C 
ENDBRANCH  22  25
ENDBRANCH  18  19
ENDBRANCH  15  18
ENDBRANCH   1  15
BRANCH   1  31
HETATM   31  C   UNL     1      43.688 -11.253   6.386  1.00  0.00    -0.019 A 
HETATM   32  C   UNL     1      43.531 -10.609   7.627  1.00  0.00     0.010 A 
HETATM   33  C   UNL     1      44.647 -10.253   8.387  1.00  0.00     0.001 A 
HETATM   34  C   UNL     1      45.930 -10.527   7.920  1.00  0.00     0.000 A 
HETATM   35  C   UNL     1      46.103 -11.154   6.690  1.00  0.00     0.001 A 
HETATM   36  C   UNL     1      44.992 -11.511   5.924  1.00  0.00     0.010 A 
ENDBRANCH   1  31
TORSDOF 8
ENDMDL
MODEL 4
REMARK VINA RESULT:      -8.6      1.941      4.350
REMARK  8 active torsions:
REMARK  status: ('A' for Active; 'I' for Inactive)
REMARK    1  A    between atoms: C_4  and  N_5 
REMARK       I    between atoms: N_5  and  C_6 
REMARK    2  A    between atoms: C_6  and  C_7 
REMARK    3  A    between atoms: C_7  and  N_8 
REMARK    4  A    between atoms: C_7  and  C_24 
REMARK    5  A    between atoms: N_8  and  C_11 
REMARK    6  A    between atoms: C_11  and  C_12 
REMARK    7  A    between atoms: C_15  and  N_16 
REMARK    8  A    between atoms: C_31  and  O_32 
ROOT
HETATM    1  C   UNL     1      41.671 -13.283   6.147  1.00  0.00     0.310 C 
ENDROOT
BRANCH   1   2
HETATM    2  C   UNL     1      40.332 -13.514   5.404  1.00  0.00     0.257 C 
HETATM    3  N   UNL     1      40.264 -14.093   4.174  1.00  0.00    -0.323 N 
HETATM    4  H   UNL     1      39.402 -13.892   3.669  1.00  0.00     0.169 HD
HETATM    5  O   UNL     1      39.292 -13.116   5.950  1.00  0.00    -0.270 OA
BRANCH   3   6
HETATM    6  C   UNL     1      41.256 -14.711   3.383  1.00  0.00     0.069 A 
HETATM    7  C   UNL     1      41.534 -16.081   3.438  1.00  0.00     0.039 A 
HETATM    8  C   UNL     1      42.536 -16.638   2.632  1.00  0.00    -0.060 A 
HETATM    9  C   UNL     1      42.857 -18.102   2.718  1.00  0.00     0.048 C 
HETATM   10  C   UNL     1      43.260 -15.806   1.774  1.00  0.00     0.009 A 
HETATM   11  C   UNL     1      42.957 -14.445   1.678  1.00  0.00     0.039 A 
HETATM   12  C   UNL     1      41.949 -13.893   2.469  1.00  0.00     0.095 A 
BRANCH  12  13
HETATM   13  O   UNL     1      41.579 -12.570   2.467  1.00  0.00    -0.354 OA
HETATM   14  C   UNL     1      41.304 -11.979   1.200  1.00  0.00     0.210 C 
ENDBRANCH  12  13
ENDBRANCH   3   6
ENDBRANCH   1   2
BRANCH   1  15
HETATM   15  N   UNL     1      42.491 -12.229   5.405  1.00  0.00    -0.054 N 
HETATM   16  H   UNL     1      43.443 -12.277   5.799  1.00  0.00     0.278 HD
HETATM   17  H   UNL     1      42.561 -12.477   4.415  1.00  0.00     0.278 HD
BRANCH  15  18
HETATM   18  C   UNL     1      42.065 -10.807   5.532  1.00  0.00     0.272 C 
BRANCH  18  19
HETATM   19  C   UNL     1      42.218 -10.335   6.951  1.00  0.00    -0.033 A 
HETATM   20  C   UNL     1      43.426 -10.527   7.630  1.00  0.00     0.011 A 
HETATM   21  C   UNL     1      43.569 -10.122   8.961  1.00  0.00     0.030 A 
HETATM   22  C   UNL     1      42.524  -9.496   9.649  1.00  0.00     0.037 A 
HETATM   23  C   UNL     1      41.324  -9.288   8.955  1.00  0.00     0.030 A 
HETATM   24  C   UNL     1      41.165  -9.711   7.627  1.00  0.00     0.011 A 
BRANCH  22  25
HETATM   25  N   UNL     1      42.675  -9.072  10.994  1.00  0.00    -0.318 N 
HETATM   26  C   UNL     1      42.839  -7.745  11.429  1.00  0.00     0.224 C 
HETATM   27  O   UNL     1      42.895  -6.723  10.764  1.00  0.00    -0.273 OA
HETATM   28  C   UNL     1      43.040  -7.774  12.927  1.00  0.00     0.105 C 
HETATM   29  C   UNL     1      42.508  -9.139  13.318  1.00  0.00     0.029 C 
HETATM   30  C   UNL     1      42.802  -9.990  12.102  1.00  0.00     0.133 C 
ENDBRANCH  22  25
ENDBRANCH  18  19
ENDBRANCH  15  18
ENDBRANCH   1  15
BRANCH   1  31
HETATM   31  C   UNL     1      42.487 -14.529   6.434  1.00  0.00    -0.019 A 
HETATM   32  C   UNL     1      43.849 -14.561   6.088  1.00  0.00     0.010 A 
HETATM   33  C   UNL     1      44.609 -15.712   6.307  1.00  0.00     0.001 A 
HETATM   34  C   UNL     1      44.022 -16.845   6.865  1.00  0.00     0.000 A 
HETATM   35  C   UNL     1      42.672 -16.833   7.205  1.00  0.00     0.001 A 
HETATM   36  C   UNL     1      41.906 -15.687   6.987  1.00  0.00     0.010 A 
ENDBRANCH   1  31
TORSDOF 8
ENDMDL
MODEL 5
REMARK VINA RESULT:      -8.5      1.795      4.220
REMARK  8 active torsions:
REMARK  status: ('A' for Active; 'I' for Inactive)
REMARK    1  A    between atoms: C_4  and  N_5 
REMARK       I    between atoms: N_5  and  C_6 
REMARK    2  A    between atoms: C_6  and  C_7 
REMARK    3  A    between atoms: C_7  and  N_8 
REMARK    4  A    between atoms: C_7  and  C_24 
REMARK    5  A    between atoms: N_8  and  C_11 
REMARK    6  A    between atoms: C_11  and  C_12 
REMARK    7  A    between atoms: C_15  and  N_16 
REMARK    8  A    between atoms: C_31  and  O_32 
ROOT
HETATM    1  C   UNL     1      42.314 -13.756   4.722  1.00  0.00     0.310 C 
ENDROOT
BRANCH   1   2
HETATM    2  C   UNL     1      40.857 -13.751   5.247  1.00  0.00     0.257 C 
HETATM    3  N   UNL     1      39.797 -13.405   4.467  1.00  0.00    -0.323 N 
HETATM    4  H   UNL     1      38.969 -13.128   4.994  1.00  0.00     0.169 HD
HETATM    5  O   UNL     1      40.671 -14.042   6.438  1.00  0.00    -0.270 OA
BRANCH   3   6
HETATM    6  C   UNL     1      39.710 -13.130   3.086  1.00  0.00     0.069 A 
HETATM    7  C   UNL     1      39.803 -14.120   2.102  1.00  0.00     0.039 A 
HETATM    8  C   UNL     1      39.716 -13.785   0.744  1.00  0.00    -0.060 A 
HETATM    9  C   UNL     1      39.851 -14.844  -0.312  1.00  0.00     0.048 C 
HETATM   10  C   UNL     1      39.539 -12.447   0.383  1.00  0.00     0.009 A 
HETATM   11  C   UNL     1      39.397 -11.458   1.360  1.00  0.00     0.039 A 
HETATM   12  C   UNL     1      39.469 -11.793   2.712  1.00  0.00     0.095 A 
BRANCH  12  13
HETATM   13  O   UNL     1      39.358 -10.903   3.754  1.00  0.00    -0.354 OA
HETATM   14  C   UNL     1      40.134  -9.711   3.668  1.00  0.00     0.210 C 
ENDBRANCH  12  13
ENDBRANCH   3   6
ENDBRANCH   1   2
BRANCH   1  15
HETATM   15  N   UNL     1      42.683 -12.358   4.228  1.00  0.00    -0.054 N 
HETATM   16  H   UNL     1      42.772 -12.430   3.203  1.00  0.00     0.278 HD
HETATM   17  H   UNL     1      41.917 -11.708   4.419  1.00  0.00     0.278 HD
BRANCH  15  18
HETATM   18  C   UNL     1      43.964 -11.770   4.711  1.00  0.00     0.272 C 
BRANCH  18  19
HETATM   19  C   UNL     1      43.789 -11.177   6.081  1.00  0.00    -0.033 A 
HETATM   20  C   UNL     1      44.823 -11.258   7.020  1.00  0.00     0.011 A 
HETATM   21  C   UNL     1      44.660 -10.738   8.308  1.00  0.00     0.030 A 
HETATM   22  C   UNL     1      43.473 -10.105   8.694  1.00  0.00     0.037 A 
HETATM   23  C   UNL     1      42.450 -10.009   7.740  1.00  0.00     0.030 A 
HETATM   24  C   UNL     1      42.598 -10.547   6.453  1.00  0.00     0.011 A 
BRANCH  22  25
HETATM   25  N   UNL     1      43.314  -9.566   9.996  1.00  0.00    -0.318 N 
HETATM   26  C   UNL     1      43.539 -10.246  11.206  1.00  0.00     0.224 C 
HETATM   27  O   UNL     1      43.892 -11.401  11.380  1.00  0.00    -0.273 OA
HETATM   28  C   UNL     1      43.169  -9.311  12.334  1.00  0.00     0.105 C 
HETATM   29  C   UNL     1      43.182  -7.948  11.670  1.00  0.00     0.029 C 
HETATM   30  C   UNL     1      42.770  -8.251  10.245  1.00  0.00     0.133 C 
ENDBRANCH  22  25
ENDBRANCH  18  19
ENDBRANCH  15  18
ENDBRANCH   1  15
BRANCH   1  31
HETATM   31  C   UNL     1      42.638 -14.819   3.690  1.00  0.00    -0.019 A 
HETATM   32  C   UNL     1      42.413 -16.173   3.995  1.00  0.00     0.010 A 
HETATM   33  C   UNL     1      42.741 -17.171   3.075  1.00  0.00     0.001 A 
HETATM   34  C   UNL     1      43.302 -16.834   1.845  1.00  0.00     0.000 A 
HETATM   35  C   UNL     1      43.540 -15.500   1.531  1.00  0.00     0.001 A 
HETATM   36  C   UNL     1      43.216 -14.498   2.447  1.00  0.00     0.010 A 
ENDBRANCH   1  31
TORSDOF 8
ENDMDL
MODEL 6
REMARK VINA RESULT:      -8.3      2.329      9.541
REMARK  8 active torsions:
REMARK  status: ('A' for Active; 'I' for Inactive)
REMARK    1  A    between atoms: C_4  and  N_5 
REMARK       I    between atoms: N_5  and  C_6 
REMARK    2  A    between atoms: C_6  and  C_7 
REMARK    3  A    between atoms: C_7  and  N_8 
REMARK    4  A    between atoms: C_7  and  C_24 
REMARK    5  A    between atoms: N_8  and  C_11 
REMARK    6  A    between atoms: C_11  and  C_12 
REMARK    7  A    between atoms: C_15  and  N_16 
REMARK    8  A    between atoms: C_31  and  O_32 
ROOT
HETATM    1  C   UNL     1      44.267  -9.391   9.726  1.00  0.00     0.310 C 
ENDROOT
BRANCH   1   2
HETATM    2  C   UNL     1      44.109  -8.175   8.780  1.00  0.00     0.257 C 
HETATM    3  N   UNL     1      42.894  -7.666   8.434  1.00  0.00    -0.323 N 
HETATM    4  H   UNL     1      42.907  -7.107   7.582  1.00  0.00     0.169 HD
HETATM    5  O   UNL     1      45.138  -7.679   8.298  1.00  0.00    -0.270 OA
BRANCH   3   6
HETATM    6  C   UNL     1      41.596  -7.965   8.898  1.00  0.00     0.069 A 
HETATM    7  C   UNL     1      40.985  -7.284   9.956  1.00  0.00     0.039 A 
HETATM    8  C   UNL     1      39.694  -7.631  10.377  1.00  0.00    -0.060 A 
HETATM    9  C   UNL     1      39.054  -6.921  11.535  1.00  0.00     0.048 C 
HETATM   10  C   UNL     1      39.024  -8.672   9.729  1.00  0.00     0.009 A 
HETATM   11  C   UNL     1      39.607  -9.327   8.642  1.00  0.00     0.039 A 
HETATM   12  C   UNL     1      40.886  -8.971   8.212  1.00  0.00     0.095 A 
BRANCH  12  13
HETATM   13  O   UNL     1      41.560  -9.556   7.167  1.00  0.00    -0.354 OA
HETATM   14  C   UNL     1      40.816 -10.443   6.337  1.00  0.00     0.210 C 
ENDBRANCH  12  13
ENDBRANCH   3   6
ENDBRANCH   1   2
BRANCH   1  15
HETATM   15  N   UNL     1      43.928 -10.673   8.968  1.00  0.00    -0.054 N 
HETATM   16  H   UNL     1      43.937 -11.431   9.668  1.00  0.00     0.278 HD
HETATM   17  H   UNL     1      42.977 -10.617   8.597  1.00  0.00     0.278 HD
BRANCH  15  18
HETATM   18  C   UNL     1      44.859 -11.103   7.887  1.00  0.00     0.272 C 
BRANCH  18  19
HETATM   19  C   UNL     1      44.156 -12.013   6.918  1.00  0.00    -0.033 A 
HETATM   20  C   UNL     1      44.110 -11.691   5.557  1.00  0.00     0.011 A 
HETATM   21  C   UNL     1      43.432 -12.513   4.651  1.00  0.00     0.030 A 
HETATM   22  C   UNL     1      42.798 -13.688   5.067  1.00  0.00     0.037 A 
HETATM   23  C   UNL     1      42.866 -14.016   6.428  1.00  0.00     0.030 A 
HETATM   24  C   UNL     1      43.526 -13.186   7.347  1.00  0.00     0.011 A 
BRANCH  22  25
HETATM   25  N   UNL     1      42.122 -14.528   4.145  1.00  0.00    -0.318 N 
HETATM   26  C   UNL     1      42.581 -15.768   3.667  1.00  0.00     0.224 C 
HETATM   27  O   UNL     1      43.622 -16.352   3.927  1.00  0.00    -0.273 OA
HETATM   28  C   UNL     1      41.581 -16.268   2.650  1.00  0.00     0.105 C 
HETATM   29  C   UNL     1      40.341 -15.453   2.959  1.00  0.00     0.029 C 
HETATM   30  C   UNL     1      40.902 -14.144   3.474  1.00  0.00     0.133 C 
ENDBRANCH  22  25
ENDBRANCH  18  19
ENDBRANCH  15  18
ENDBRANCH   1  15
BRANCH   1  31
HETATM   31  C   UNL     1      43.518  -9.302  11.042  1.00  0.00    -0.019 A 
HETATM   32  C   UNL     1      43.756  -8.218  11.904  1.00  0.00     0.010 A 
HETATM   33  C   UNL     1      43.107  -8.137  13.138  1.00  0.00     0.001 A 
HETATM   34  C   UNL     1      42.220  -9.137  13.530  1.00  0.00     0.000 A 
HETATM   35  C   UNL     1      41.980 -10.222  12.693  1.00  0.00     0.001 A 
HETATM   36  C   UNL     1      42.627 -10.309  11.459  1.00  0.00     0.010 A 
ENDBRANCH   1  31
TORSDOF 8
ENDMDL
MODEL 7
REMARK VINA RESULT:      -8.2      1.379      1.784
REMARK  8 active torsions:
REMARK  status: ('A' for Active; 'I' for Inactive)
REMARK    1  A    between atoms: C_4  and  N_5 
REMARK       I    between atoms: N_5  and  C_6 
REMARK    2  A    between atoms: C_6  and  C_7 
REMARK    3  A    between atoms: C_7  and  N_8 
REMARK    4  A    between atoms: C_7  and  C_24 
REMARK    5  A    between atoms: N_8  and  C_11 
REMARK    6  A    between atoms: C_11  and  C_12 
REMARK    7  A    between atoms: C_15  and  N_16 
REMARK    8  A    between atoms: C_31  and  O_32 
ROOT
HETATM    1  C   UNL     1      41.357 -13.523   1.904  1.00  0.00     0.310 C 
ENDROOT
BRANCH   1   2
HETATM    2  C   UNL     1      40.395 -13.876   3.065  1.00  0.00     0.257 C 
HETATM    3  N   UNL     1      40.579 -14.960   3.867  1.00  0.00    -0.323 N 
HETATM    4  H   UNL     1      39.737 -15.262   4.355  1.00  0.00     0.169 HD
HETATM    5  O   UNL     1      39.402 -13.153   3.234  1.00  0.00    -0.270 OA
BRANCH   3   6
HETATM    6  C   UNL     1      41.649 -15.877   3.959  1.00  0.00     0.069 A 
HETATM    7  C   UNL     1      41.881 -16.880   3.013  1.00  0.00     0.039 A 
HETATM    8  C   UNL     1      42.957 -17.765   3.162  1.00  0.00    -0.060 A 
HETATM    9  C   UNL     1      43.183 -18.864   2.164  1.00  0.00     0.048 C 
HETATM   10  C   UNL     1      43.795 -17.637   4.272  1.00  0.00     0.009 A 
HETATM   11  C   UNL     1      43.599 -16.609   5.198  1.00  0.00     0.039 A 
HETATM   12  C   UNL     1      42.537 -15.717   5.042  1.00  0.00     0.095 A 
BRANCH  12  13
HETATM   13  O   UNL     1      42.243 -14.682   5.896  1.00  0.00    -0.354 OA
HETATM   14  C   UNL     1      42.854 -14.714   7.182  1.00  0.00     0.210 C 
ENDBRANCH  12  13
ENDBRANCH   3   6
ENDBRANCH   1   2
BRANCH   1  15
HETATM   15  N   UNL     1      42.060 -12.201   2.208  1.00  0.00    -0.054 N 
HETATM   16  H   UNL     1      42.383 -11.832   1.300  1.00  0.00     0.278 HD
HETATM   17  H   UNL     1      41.388 -11.528   2.585  1.00  0.00     0.278 HD
BRANCH  15  18
HETATM   18  C   UNL     1      43.264 -12.244   3.084  1.00  0.00     0.272 C 
BRANCH  18  19
HETATM   19  C   UNL     1      43.053 -11.402   4.312  1.00  0.00    -0.033 A 
HETATM   20  C   UNL     1      43.860 -11.588   5.440  1.00  0.00     0.011 A 
HETATM   21  C   UNL     1      43.652 -10.833   6.598  1.00  0.00     0.030 A 
HETATM   22  C   UNL     1      42.651  -9.858   6.663  1.00  0.00     0.037 A 
HETATM   23  C   UNL     1      41.861  -9.663   5.522  1.00  0.00     0.030 A 
HETATM   24  C   UNL     1      42.049 -10.431   4.363  1.00  0.00     0.011 A 
BRANCH  22  25
HETATM   25  N   UNL     1      42.451  -9.082   7.834  1.00  0.00    -0.318 N 
HETATM   26  C   UNL     1      41.280  -9.047   8.612  1.00  0.00     0.224 C 
HETATM   27  O   UNL     1      40.228  -9.644   8.440  1.00  0.00    -0.273 OA
HETATM   28  C   UNL     1      41.488  -8.030   9.710  1.00  0.00     0.105 C 
HETATM   29  C   UNL     1      42.995  -7.872   9.751  1.00  0.00     0.029 C 
HETATM   30  C   UNL     1      43.411  -8.117   8.316  1.00  0.00     0.133 C 
ENDBRANCH  22  25
ENDBRANCH  18  19
ENDBRANCH  15  18
ENDBRANCH   1  15
BRANCH   1  31
HETATM   31  C   UNL     1      40.743 -13.525   0.517  1.00  0.00    -0.019 A 
HETATM   32  C   UNL     1      40.035 -14.656   0.074  1.00  0.00     0.010 A 
HETATM   33  C   UNL     1      39.495 -14.695  -1.214  1.00  0.00     0.001 A 
HETATM   34  C   UNL     1      39.659 -13.614  -2.076  1.00  0.00     0.000 A 
HETATM   35  C   UNL     1      40.366 -12.490  -1.657  1.00  0.00     0.001 A 
HETATM   36  C   UNL     1      40.909 -12.446  -0.372  1.00  0.00     0.010 A 
ENDBRANCH   1  31
TORSDOF 8
ENDMDL
MODEL 8
REMARK VINA RESULT:      -8.1      1.603      2.691
REMARK  8 active torsions:
REMARK  status: ('A' for Active; 'I' for Inactive)
REMARK    1  A    between atoms: C_4  and  N_5 
REMARK       I    between atoms: N_5  and  C_6 
REMARK    2  A    between atoms: C_6  and  C_7 
REMARK    3  A    between atoms: C_7  and  N_8 
REMARK    4  A    between atoms: C_7  and  C_24 
REMARK    5  A    between atoms: N_8  and  C_11 
REMARK    6  A    between atoms: C_11  and  C_12 
REMARK    7  A    between atoms: C_15  and  N_16 
REMARK    8  A    between atoms: C_31  and  O_32 
ROOT
HETATM    1  C   UNL     1      40.989 -12.726   2.128  1.00  0.00     0.310 C 
ENDROOT
BRANCH   1   2
HETATM    2  C   UNL     1      39.730 -12.994   2.988  1.00  0.00     0.257 C 
HETATM    3  N   UNL     1      39.734 -13.845   4.051  1.00  0.00    -0.323 N 
HETATM    4  H   UNL     1      38.809 -14.180   4.317  1.00  0.00     0.169 HD
HETATM    5  O   UNL     1      38.675 -12.432   2.660  1.00  0.00    -0.270 OA
BRANCH   3   6
HETATM    6  C   UNL     1      40.791 -14.527   4.691  1.00  0.00     0.069 A 
HETATM    7  C   UNL     1      41.454 -14.028   5.817  1.00  0.00     0.039 A 
HETATM    8  C   UNL     1      42.501 -14.749   6.405  1.00  0.00    -0.060 A 
HETATM    9  C   UNL     1      43.234 -14.196   7.593  1.00  0.00     0.048 C 
HETATM   10  C   UNL     1      42.882 -15.973   5.849  1.00  0.00     0.009 A 
HETATM   11  C   UNL     1      42.196 -16.501   4.753  1.00  0.00     0.039 A 
HETATM   12  C   UNL     1      41.142 -15.791   4.176  1.00  0.00     0.095 A 
BRANCH  12  13
HETATM   13  O   UNL     1      40.409 -16.207   3.091  1.00  0.00    -0.354 OA
HETATM   14  C   UNL     1      41.140 -16.587   1.928  1.00  0.00     0.210 C 
ENDBRANCH  12  13
ENDBRANCH   3   6
ENDBRANCH   1   2
BRANCH   1  15
HETATM   15  N   UNL     1      41.749 -11.528   2.693  1.00  0.00    -0.054 N 
HETATM   16  H   UNL     1      41.726 -10.802   1.961  1.00  0.00     0.278 HD
HETATM   17  H   UNL     1      41.252 -11.153   3.505  1.00  0.00     0.278 HD
BRANCH  15  18
HETATM   18  C   UNL     1      43.186 -11.720   3.036  1.00  0.00     0.272 C 
BRANCH  18  19
HETATM   19  C   UNL     1      43.452 -11.289   4.451  1.00  0.00    -0.033 A 
HETATM   20  C   UNL     1      44.688 -11.562   5.049  1.00  0.00     0.011 A 
HETATM   21  C   UNL     1      44.936 -11.195   6.376  1.00  0.00     0.030 A 
HETATM   22  C   UNL     1      43.972 -10.529   7.140  1.00  0.00     0.037 A 
HETATM   23  C   UNL     1      42.744 -10.241   6.528  1.00  0.00     0.030 A 
HETATM   24  C   UNL     1      42.480 -10.624   5.205  1.00  0.00     0.011 A 
BRANCH  22  25
HETATM   25  N   UNL     1      44.230 -10.145   8.481  1.00  0.00    -0.318 N 
HETATM   26  C   UNL     1      45.075  -9.100   8.893  1.00  0.00     0.224 C 
HETATM   27  O   UNL     1      45.746  -8.343   8.210  1.00  0.00    -0.273 OA
HETATM   28  C   UNL     1      45.109  -9.105  10.404  1.00  0.00     0.105 C 
HETATM   29  C   UNL     1      43.875  -9.906  10.773  1.00  0.00     0.029 C 
HETATM   30  C   UNL     1      43.735 -10.880   9.622  1.00  0.00     0.133 C 
ENDBRANCH  22  25
ENDBRANCH  18  19
ENDBRANCH  15  18
ENDBRANCH   1  15
BRANCH   1  31
HETATM   31  C   UNL     1      40.749 -12.585   0.637  1.00  0.00    -0.019 A 
HETATM   32  C   UNL     1      40.268 -13.685  -0.096  1.00  0.00     0.010 A 
HETATM   33  C   UNL     1      40.077 -13.589  -1.476  1.00  0.00     0.001 A 
HETATM   34  C   UNL     1      40.369 -12.402  -2.143  1.00  0.00     0.000 A 
HETATM   35  C   UNL     1      40.855 -11.306  -1.435  1.00  0.00     0.001 A 
HETATM   36  C   UNL     1      41.049 -11.396  -0.056  1.00  0.00     0.010 A 
ENDBRANCH   1  31
TORSDOF 8
ENDMDL
MODEL 9
REMARK VINA RESULT:      -8.0      4.071      8.290
REMARK  8 active torsions:
REMARK  status: ('A' for Active; 'I' for Inactive)
REMARK    1  A    between atoms: C_4  and  N_5 
REMARK       I    between atoms: N_5  and  C_6 
REMARK    2  A    between atoms: C_6  and  C_7 
REMARK    3  A    between atoms: C_7  and  N_8 
REMARK    4  A    between atoms: C_7  and  C_24 
REMARK    5  A    between atoms: N_8  and  C_11 
REMARK    6  A    between atoms: C_11  and  C_12 
REMARK    7  A    between atoms: C_15  and  N_16 
REMARK    8  A    between atoms: C_31  and  O_32 
ROOT
HETATM    1  C   UNL     1      40.586 -12.237   2.491  1.00  0.00     0.310 C 
ENDROOT
BRANCH   1   2
HETATM    2  C   UNL     1      39.803 -13.406   1.844  1.00  0.00     0.257 C 
HETATM    3  N   UNL     1      39.471 -13.425   0.523  1.00  0.00    -0.323 N 
HETATM    4  H   UNL     1      38.702 -14.055   0.299  1.00  0.00     0.169 HD
HETATM    5  O   UNL     1      39.440 -14.336   2.579  1.00  0.00    -0.270 OA
BRANCH   3   6
HETATM    6  C   UNL     1      39.831 -12.567  -0.537  1.00  0.00     0.069 A 
HETATM    7  C   UNL     1      40.731 -11.507  -0.393  1.00  0.00     0.039 A 
HETATM    8  C   UNL     1      41.045 -10.684  -1.483  1.00  0.00    -0.060 A 
HETATM    9  C   UNL     1      41.985  -9.525  -1.317  1.00  0.00     0.048 C 
HETATM   10  C   UNL     1      40.442 -10.931  -2.718  1.00  0.00     0.009 A 
HETATM   11  C   UNL     1      39.576 -12.016  -2.884  1.00  0.00     0.039 A 
HETATM   12  C   UNL     1      39.276 -12.845  -1.803  1.00  0.00     0.095 A 
BRANCH  12  13
HETATM   13  O   UNL     1      38.430 -13.928  -1.848  1.00  0.00    -0.354 OA
HETATM   14  C   UNL     1      38.749 -14.956  -2.781  1.00  0.00     0.210 C 
ENDBRANCH  12  13
ENDBRANCH   3   6
ENDBRANCH   1   2
BRANCH   1  15
HETATM   15  N   UNL     1      41.878 -12.768   3.110  1.00  0.00    -0.054 N 
HETATM   16  H   UNL     1      42.370 -11.948   3.496  1.00  0.00     0.278 HD
HETATM   17  H   UNL     1      41.658 -13.386   3.895  1.00  0.00     0.278 HD
BRANCH  15  18
HETATM   18  C   UNL     1      42.851 -13.442   2.205  1.00  0.00     0.272 C 
BRANCH  18  19
HETATM   19  C   UNL     1      43.093 -14.857   2.651  1.00  0.00    -0.033 A 
HETATM   20  C   UNL     1      43.330 -15.862   1.707  1.00  0.00     0.011 A 
HETATM   21  C   UNL     1      43.525 -17.187   2.107  1.00  0.00     0.030 A 
HETATM   22  C   UNL     1      43.509 -17.550   3.458  1.00  0.00     0.037 A 
HETATM   23  C   UNL     1      43.292 -16.534   4.400  1.00  0.00     0.030 A 
HETATM   24  C   UNL     1      43.075 -15.206   4.005  1.00  0.00     0.011 A 
BRANCH  22  25
HETATM   25  N   UNL     1      43.720 -18.893   3.864  1.00  0.00    -0.318 N 
HETATM   26  C   UNL     1      43.651 -20.027   3.037  1.00  0.00     0.224 C 
HETATM   27  O   UNL     1      43.393 -20.091   1.845  1.00  0.00    -0.273 OA
HETATM   28  C   UNL     1      43.867 -21.244   3.907  1.00  0.00     0.105 C 
HETATM   29  C   UNL     1      44.515 -20.668   5.150  1.00  0.00     0.029 C 
HETATM   30  C   UNL     1      43.920 -19.279   5.242  1.00  0.00     0.133 C 
ENDBRANCH  22  25
ENDBRANCH  18  19
ENDBRANCH  15  18
ENDBRANCH   1  15
BRANCH   1  31
HETATM   31  C   UNL     1      39.803 -11.385   3.472  1.00  0.00    -0.019 A 
HETATM   32  C   UNL     1      39.777 -11.739   4.832  1.00  0.00     0.010 A 
HETATM   33  C   UNL     1      39.031 -10.992   5.746  1.00  0.00     0.001 A 
HETATM   34  C   UNL     1      38.298  -9.889   5.316  1.00  0.00     0.000 A 
HETATM   35  C   UNL     1      38.305  -9.529   3.971  1.00  0.00     0.001 A 
HETATM   36  C   UNL     1      39.047 -10.273   3.053  1.00  0.00     0.010 A 
ENDBRANCH   1  31
TORSDOF 8
ENDMDL
MODEL 10
REMARK VINA RESULT:      -7.9      2.629      7.657
REMARK  8 active torsions:
REMARK  status: ('A' for Active; 'I' for Inactive)
REMARK    1  A    between atoms: C_4  and  N_5 
REMARK       I    between atoms: N_5  and  C_6 
REMARK    2  A    between atoms: C_6  and  C_7 
REMARK    3  A    between atoms: C_7  and  N_8 
REMARK    4  A    between atoms: C_7  and  C_24 
REMARK    5  A    between atoms: N_8  and  C_11 
REMARK    6  A    between atoms: C_11  and  C_12 
REMARK    7  A    between atoms: C_15  and  N_16 
REMARK    8  A    between atoms: C_31  and  O_32 
ROOT
HETATM    1  C   UNL     1      42.047 -12.232   4.181  1.00  0.00     0.310 C 
ENDROOT
BRANCH   1   2
HETATM    2  C   UNL     1      42.185 -10.805   3.598  1.00  0.00     0.257 C 
HETATM    3  N   UNL     1      41.790  -9.693   4.277  1.00  0.00    -0.323 N 
HETATM    4  H   UNL     1      41.628  -8.881   3.682  1.00  0.00     0.169 HD
HETATM    5  O   UNL     1      42.641 -10.690   2.451  1.00  0.00    -0.270 OA
BRANCH   3   6
HETATM    6  C   UNL     1      41.338  -9.526   5.603  1.00  0.00     0.069 A 
HETATM    7  C   UNL     1      42.201  -9.339   6.688  1.00  0.00     0.039 A 
HETATM    8  C   UNL     1      41.693  -9.184   7.984  1.00  0.00    -0.060 A 
HETATM    9  C   UNL     1      42.622  -9.019   9.152  1.00  0.00     0.048 C 
HETATM   10  C   UNL     1      40.310  -9.225   8.183  1.00  0.00     0.009 A 
HETATM   11  C   UNL     1      39.439  -9.364   7.100  1.00  0.00     0.039 A 
HETATM   12  C   UNL     1      39.944  -9.502   5.806  1.00  0.00     0.095 A 
BRANCH  12  13
HETATM   13  O   UNL     1      39.182  -9.659   4.673  1.00  0.00    -0.354 OA
HETATM   14  C   UNL     1      38.127  -8.724   4.472  1.00  0.00     0.210 C 
ENDBRANCH  12  13
ENDBRANCH   3   6
ENDBRANCH   1   2
BRANCH   1  15
HETATM   15  N   UNL     1      43.062 -12.424   5.307  1.00  0.00    -0.054 N 
HETATM   16  H   UNL     1      43.895 -12.850   4.873  1.00  0.00     0.278 HD
HETATM   17  H   UNL     1      43.347 -11.514   5.677  1.00  0.00     0.278 HD
BRANCH  15  18
HETATM   18  C   UNL     1      42.683 -13.322   6.434  1.00  0.00     0.272 C 
BRANCH  18  19
HETATM   19  C   UNL     1      42.951 -14.757   6.079  1.00  0.00    -0.033 A 
HETATM   20  C   UNL     1      41.894 -15.606   5.733  1.00  0.00     0.011 A 
HETATM   21  C   UNL     1      42.128 -16.952   5.431  1.00  0.00     0.030 A 
HETATM   22  C   UNL     1      43.420 -17.488   5.445  1.00  0.00     0.037 A 
HETATM   23  C   UNL     1      44.476 -16.626   5.772  1.00  0.00     0.030 A 
HETATM   24  C   UNL     1      44.248 -15.281   6.096  1.00  0.00     0.011 A 
BRANCH  22  25
HETATM   25  N   UNL     1      43.657 -18.849   5.125  1.00  0.00    -0.318 N 
HETATM   26  C   UNL     1      43.919 -19.364   3.843  1.00  0.00     0.224 C 
HETATM   27  O   UNL     1      43.982 -18.770   2.778  1.00  0.00    -0.273 OA
HETATM   28  C   UNL     1      44.029 -20.866   3.964  1.00  0.00     0.105 C 
HETATM   29  C   UNL     1      44.275 -21.074   5.446  1.00  0.00     0.029 C 
HETATM   30  C   UNL     1      43.537 -19.919   6.088  1.00  0.00     0.133 C 
ENDBRANCH  22  25
ENDBRANCH  18  19
ENDBRANCH  15  18
ENDBRANCH   1  15
BRANCH   1  31
HETATM   31  C   UNL     1      42.108 -13.364   3.173  1.00  0.00    -0.019 A 
HETATM   32  C   UNL     1      40.914 -13.940   2.704  1.00  0.00     0.010 A 
HETATM   33  C   UNL     1      40.948 -15.009   1.806  1.00  0.00     0.001 A 
HETATM   34  C   UNL     1      42.168 -15.520   1.370  1.00  0.00     0.000 A 
HETATM   35  C   UNL     1      43.359 -14.967   1.831  1.00  0.00     0.001 A 
HETATM   36  C   UNL     1      43.332 -13.900   2.730  1.00  0.00     0.010 A 
ENDBRANCH   1  31
TORSDOF 8
ENDMDL
