MODEL 1
REMARK VINA RESULT:      -8.6      0.000      0.000
REMARK  8 active torsions:
REMARK  status: ('A' for Active; 'I' for Inactive)
REMARK    1  A    between atoms: C_2  and  C_3 
REMARK    2  A    between atoms: C_3  and  C_4 
REMARK    3  A    between atoms: C_4  and  N_5 
REMARK       I    between atoms: N_5  and  C_6 
REMARK    4  A    between atoms: C_6  and  C_7 
REMARK    5  A    between atoms: C_14  and  S_15 
REMARK    6  A    between atoms: S_15  and  N_16 
REMARK    7  A    between atoms: N_16  and  C_17 
REMARK    8  A    between atoms: C_19  and  O_20 
ROOT
HETATM    1  C   UNL     1      43.369 -10.934   7.324  1.00  0.00     0.098 C 
HETATM    2  C   UNL     1      43.335 -12.184   6.513  1.00  0.00     0.201 C 
HETATM    3  O   UNL     1      43.783 -13.245   6.943  1.00  0.00    -0.286 OA
HETATM    4  C   UNL     1      42.754 -12.110   5.144  1.00  0.00     0.043 A 
HETATM    5  C   UNL     1      42.165 -10.901   4.725  1.00  0.00     0.046 A 
HETATM    6  N   UNL     1      42.084  -9.818   5.610  1.00  0.00    -0.364 N 
HETATM    7  C   UNL     1      42.816 -13.215   4.286  1.00  0.00     0.043 A 
HETATM    8  C   UNL     1      42.259 -13.109   3.009  1.00  0.00     0.081 A 
HETATM    9  C   UNL     1      41.659 -11.917   2.585  1.00  0.00     0.027 A 
HETATM   10  C   UNL     1      41.599 -10.822   3.450  1.00  0.00     0.032 A 
HETATM   11  C   UNL     1      42.750  -9.858   6.810  1.00  0.00     0.109 C 
HETATM   12  H   UNL     1      41.869  -8.901   5.230  1.00  0.00     0.165 HD
ENDROOT
BRANCH   8  13
HETATM   13  S   UNL     1      42.355 -14.479   1.873  1.00  0.00     0.263 S 
HETATM   14  O   UNL     1      41.486 -14.163   0.759  1.00  0.00    -0.200 OA
HETATM   15  O   UNL     1      43.750 -14.799   1.672  1.00  0.00    -0.200 OA
BRANCH  13  16
HETATM   16  N   UNL     1      41.597 -15.724   2.724  1.00  0.00    -0.281 N 
HETATM   17  H   UNL     1      40.824 -15.393   3.298  1.00  0.00     0.179 HD
BRANCH  16  18
HETATM   18  C   UNL     1      42.391 -16.790   3.226  1.00  0.00     0.045 A 
HETATM   19  C   UNL     1      42.717 -16.834   4.583  1.00  0.00     0.066 A 
HETATM   20  C   UNL     1      43.551 -17.848   5.058  1.00  0.00     0.070 A 
HETATM   21  C   UNL     1      44.011 -18.834   4.183  1.00  0.00     0.037 A 
HETATM   22  C   UNL     1      43.687 -18.783   2.827  1.00  0.00     0.005 A 
HETATM   23  C   UNL     1      42.888 -17.749   2.345  1.00  0.00     0.030 A 
BRANCH  20  24
HETATM   24  O   UNL     1      43.954 -17.988   6.358  1.00  0.00    -0.356 OA
HETATM   25  C   UNL     1      43.771 -16.841   7.183  1.00  0.00     0.210 C 
ENDBRANCH  20  24
ENDBRANCH  16  18
ENDBRANCH  13  16
ENDBRANCH   8  13
BRANCH   1  26
HETATM   26  C   UNL     1      44.071 -10.783   8.630  1.00  0.00     0.257 C 
HETATM   27  N   UNL     1      43.272 -10.442   9.692  1.00  0.00    -0.357 N 
HETATM   28  H   UNL     1      42.266 -10.381   9.532  1.00  0.00     0.162 HD
HETATM   29  O   UNL     1      45.280 -10.975   8.730  1.00  0.00    -0.267 OA
BRANCH  27  30
HETATM   30  C   UNL     1      43.752 -10.431  11.059  1.00  0.00     0.123 C 
BRANCH  30  31
HETATM   31  C   UNL     1      43.962  -9.018  11.606  1.00  0.00     0.023 C 
BRANCH  31  32
HETATM   32  C   UNL     1      42.796  -8.544  12.494  1.00  0.00    -0.021 C 
HETATM   33  C   UNL     1      43.254  -7.552  13.564  1.00  0.00     0.009 C 
HETATM   34  C   UNL     1      42.118  -9.744  13.159  1.00  0.00     0.009 C 
ENDBRANCH  31  32
ENDBRANCH  30  31
ENDBRANCH  27  30
ENDBRANCH   1  26
TORSDOF 8
ENDMDL
MODEL 2
REMARK VINA RESULT:      -8.6      2.541      9.391
REMARK  8 active torsions:
REMARK  status: ('A' for Active; 'I' for Inactive)
REMARK    1  A    between atoms: C_2  and  C_3 
REMARK    2  A    between atoms: C_3  and  C_4 
REMARK    3  A    between atoms: C_4  and  N_5 
REMARK       I    between atoms: N_5  and  C_6 
REMARK    4  A    between atoms: C_6  and  C_7 
REMARK    5  A    between atoms: C_14  and  S_15 
REMARK    6  A    between atoms: S_15  and  N_16 
REMARK    7  A    between atoms: N_16  and  C_17 
REMARK    8  A    between atoms: C_19  and  O_20 
ROOT
HETATM    1  C   UNL     1      42.145 -14.202   5.113  1.00  0.00     0.098 C 
HETATM    2  C   UNL     1      43.179 -13.709   6.066  1.00  0.00     0.201 C 
HETATM    3  O   UNL     1      44.055 -14.449   6.508  1.00  0.00    -0.286 OA
HETATM    4  C   UNL     1      43.111 -12.284   6.490  1.00  0.00     0.043 A 
HETATM    5  C   UNL     1      42.153 -11.445   5.889  1.00  0.00     0.046 A 
HETATM    6  N   UNL     1      41.326 -11.943   4.874  1.00  0.00    -0.364 N 
HETATM    7  C   UNL     1      43.970 -11.797   7.484  1.00  0.00     0.043 A 
HETATM    8  C   UNL     1      43.879 -10.454   7.856  1.00  0.00     0.081 A 
HETATM    9  C   UNL     1      42.939  -9.606   7.257  1.00  0.00     0.027 A 
HETATM   10  C   UNL     1      42.090 -10.100   6.264  1.00  0.00     0.032 A 
HETATM   11  C   UNL     1      41.305 -13.288   4.600  1.00  0.00     0.109 C 
HETATM   12  H   UNL     1      40.504 -11.404   4.615  1.00  0.00     0.165 HD
ENDROOT
BRANCH   8  13
HETATM   13  S   UNL     1      44.924  -9.808   9.147  1.00  0.00     0.263 S 
HETATM   14  O   UNL     1      44.988 -10.820  10.181  1.00  0.00    -0.200 OA
HETATM   15  O   UNL     1      46.123  -9.283   8.533  1.00  0.00    -0.200 OA
BRANCH  13  16
HETATM   16  N   UNL     1      44.001  -8.544   9.779  1.00  0.00    -0.281 N 
HETATM   17  H   UNL     1      44.479  -7.647   9.731  1.00  0.00     0.179 HD
BRANCH  16  18
HETATM   18  C   UNL     1      43.174  -8.801  10.906  1.00  0.00     0.045 A 
HETATM   19  C   UNL     1      41.924  -9.398  10.729  1.00  0.00     0.066 A 
HETATM   20  C   UNL     1      41.090  -9.589  11.833  1.00  0.00     0.070 A 
HETATM   21  C   UNL     1      41.533  -9.226  13.106  1.00  0.00     0.037 A 
HETATM   22  C   UNL     1      42.780  -8.626  13.278  1.00  0.00     0.005 A 
HETATM   23  C   UNL     1      43.596  -8.398  12.172  1.00  0.00     0.030 A 
BRANCH  20  24
HETATM   24  O   UNL     1      39.842 -10.145  11.785  1.00  0.00    -0.356 OA
HETATM   25  C   UNL     1      39.439 -10.849  12.955  1.00  0.00     0.210 C 
ENDBRANCH  20  24
ENDBRANCH  16  18
ENDBRANCH  13  16
ENDBRANCH   8  13
BRANCH   1  26
HETATM   26  C   UNL     1      41.953 -15.628   4.725  1.00  0.00     0.257 C 
HETATM   27  N   UNL     1      42.103 -15.901   3.389  1.00  0.00    -0.357 N 
HETATM   28  H   UNL     1      42.395 -15.139   2.776  1.00  0.00     0.162 HD
HETATM   29  O   UNL     1      41.695 -16.488   5.564  1.00  0.00    -0.267 OA
BRANCH  27  30
HETATM   30  C   UNL     1      42.130 -17.251   2.865  1.00  0.00     0.123 C 
BRANCH  30  31
HETATM   31  C   UNL     1      43.461 -17.607   2.197  1.00  0.00     0.023 C 
BRANCH  31  32
HETATM   32  C   UNL     1      44.053 -18.930   2.719  1.00  0.00    -0.021 C 
HETATM   33  C   UNL     1      43.316 -20.148   2.161  1.00  0.00     0.009 C 
HETATM   34  C   UNL     1      44.012 -18.959   4.248  1.00  0.00     0.009 C 
ENDBRANCH  31  32
ENDBRANCH  30  31
ENDBRANCH  27  30
ENDBRANCH   1  26
TORSDOF 8
ENDMDL
MODEL 3
REMARK VINA RESULT:      -8.2      2.070      2.602
REMARK  8 active torsions:
REMARK  status: ('A' for Active; 'I' for Inactive)
REMARK    1  A    between atoms: C_2  and  C_3 
REMARK    2  A    between atoms: C_3  and  C_4 
REMARK    3  A    between atoms: C_4  and  N_5 
REMARK       I    between atoms: N_5  and  C_6 
REMARK    4  A    between atoms: C_6  and  C_7 
REMARK    5  A    between atoms: C_14  and  S_15 
REMARK    6  A    between atoms: S_15  and  N_16 
REMARK    7  A    between atoms: N_16  and  C_17 
REMARK    8  A    between atoms: C_19  and  O_20 
ROOT
HETATM    1  C   UNL     1      44.189 -10.575   7.797  1.00  0.00     0.098 C 
HETATM    2  C   UNL     1      42.866 -10.564   7.111  1.00  0.00     0.201 C 
HETATM    3  O   UNL     1      41.853 -10.149   7.669  1.00  0.00    -0.286 OA
HETATM    4  C   UNL     1      42.798 -11.094   5.721  1.00  0.00     0.043 A 
HETATM    5  C   UNL     1      43.996 -11.471   5.084  1.00  0.00     0.046 A 
HETATM    6  N   UNL     1      45.223 -11.291   5.736  1.00  0.00    -0.364 N 
HETATM    7  C   UNL     1      41.565 -11.235   5.075  1.00  0.00     0.043 A 
HETATM    8  C   UNL     1      41.540 -11.735   3.770  1.00  0.00     0.081 A 
HETATM    9  C   UNL     1      42.724 -12.102   3.120  1.00  0.00     0.027 A 
HETATM   10  C   UNL     1      43.950 -11.953   3.773  1.00  0.00     0.032 A 
HETATM   11  C   UNL     1      45.253 -10.939   7.062  1.00  0.00     0.109 C 
HETATM   12  H   UNL     1      46.040 -11.768   5.364  1.00  0.00     0.165 HD
ENDROOT
BRANCH   8  13
HETATM   13  S   UNL     1      39.986 -11.969   2.930  1.00  0.00     0.263 S 
HETATM   14  O   UNL     1      39.075 -10.967   3.442  1.00  0.00    -0.200 OA
HETATM   15  O   UNL     1      40.254 -12.089   1.514  1.00  0.00    -0.200 OA
BRANCH  13  16
HETATM   16  N   UNL     1      39.450 -13.449   3.540  1.00  0.00    -0.281 N 
HETATM   17  H   UNL     1      38.949 -13.352   4.421  1.00  0.00     0.179 HD
BRANCH  16  18
HETATM   18  C   UNL     1      40.268 -14.597   3.362  1.00  0.00     0.045 A 
HETATM   19  C   UNL     1      40.937 -15.150   4.456  1.00  0.00     0.066 A 
HETATM   20  C   UNL     1      41.790 -16.239   4.263  1.00  0.00     0.070 A 
HETATM   21  C   UNL     1      41.928 -16.793   2.988  1.00  0.00     0.037 A 
HETATM   22  C   UNL     1      41.262 -16.234   1.898  1.00  0.00     0.005 A 
HETATM   23  C   UNL     1      40.443 -15.123   2.082  1.00  0.00     0.030 A 
BRANCH  20  24
HETATM   24  O   UNL     1      42.510 -16.855   5.249  1.00  0.00    -0.356 OA
HETATM   25  C   UNL     1      43.926 -16.755   5.128  1.00  0.00     0.210 C 
ENDBRANCH  20  24
ENDBRANCH  16  18
ENDBRANCH  13  16
ENDBRANCH   8  13
BRANCH   1  26
HETATM   26  C   UNL     1      44.406 -10.255   9.236  1.00  0.00     0.257 C 
HETATM   27  N   UNL     1      43.498 -10.805  10.106  1.00  0.00    -0.357 N 
HETATM   28  H   UNL     1      42.791 -11.434   9.723  1.00  0.00     0.162 HD
HETATM   29  O   UNL     1      45.351  -9.560   9.600  1.00  0.00    -0.267 OA
BRANCH  27  30
HETATM   30  C   UNL     1      43.660 -10.748  11.544  1.00  0.00     0.123 C 
BRANCH  30  31
HETATM   31  C   UNL     1      42.739  -9.722  12.209  1.00  0.00     0.023 C 
BRANCH  31  32
HETATM   32  C   UNL     1      43.361  -8.314  12.264  1.00  0.00    -0.021 C 
HETATM   33  C   UNL     1      43.167  -7.653  13.630  1.00  0.00     0.009 C 
HETATM   34  C   UNL     1      42.757  -7.428  11.172  1.00  0.00     0.009 C 
ENDBRANCH  31  32
ENDBRANCH  30  31
ENDBRANCH  27  30
ENDBRANCH   1  26
TORSDOF 8
ENDMDL
MODEL 4
REMARK VINA RESULT:      -8.2      2.605      9.848
REMARK  8 active torsions:
REMARK  status: ('A' for Active; 'I' for Inactive)
REMARK    1  A    between atoms: C_2  and  C_3 
REMARK    2  A    between atoms: C_3  and  C_4 
REMARK    3  A    between atoms: C_4  and  N_5 
REMARK       I    between atoms: N_5  and  C_6 
REMARK    4  A    between atoms: C_6  and  C_7 
REMARK    5  A    between atoms: C_14  and  S_15 
REMARK    6  A    between atoms: S_15  and  N_16 
REMARK    7  A    between atoms: N_16  and  C_17 
REMARK    8  A    between atoms: C_19  and  O_20 
ROOT
HETATM    1  C   UNL     1      42.690 -14.632   4.791  1.00  0.00     0.098 C 
HETATM    2  C   UNL     1      43.450 -14.076   5.945  1.00  0.00     0.201 C 
HETATM    3  O   UNL     1      44.236 -14.765   6.593  1.00  0.00    -0.286 OA
HETATM    4  C   UNL     1      43.217 -12.652   6.312  1.00  0.00     0.043 A 
HETATM    5  C   UNL     1      42.384 -11.871   5.489  1.00  0.00     0.046 A 
HETATM    6  N   UNL     1      41.839 -12.421   4.321  1.00  0.00    -0.364 N 
HETATM    7  C   UNL     1      43.799 -12.112   7.466  1.00  0.00     0.043 A 
HETATM    8  C   UNL     1      43.559 -10.771   7.777  1.00  0.00     0.081 A 
HETATM    9  C   UNL     1      42.743  -9.980   6.960  1.00  0.00     0.027 A 
HETATM   10  C   UNL     1      42.171 -10.527   5.810  1.00  0.00     0.032 A 
HETATM   11  C   UNL     1      41.947 -13.768   4.079  1.00  0.00     0.109 C 
HETATM   12  H   UNL     1      41.073 -11.928   3.869  1.00  0.00     0.165 HD
ENDROOT
BRANCH   8  13
HETATM   13  S   UNL     1      44.246 -10.059   9.260  1.00  0.00     0.263 S 
HETATM   14  O   UNL     1      45.509 -10.725   9.499  1.00  0.00    -0.200 OA
HETATM   15  O   UNL     1      44.163  -8.621   9.148  1.00  0.00    -0.200 OA
BRANCH  13  16
HETATM   16  N   UNL     1      43.191 -10.604  10.460  1.00  0.00    -0.281 N 
HETATM   17  H   UNL     1      42.655 -11.420  10.170  1.00  0.00     0.179 HD
BRANCH  16  18
HETATM   18  C   UNL     1      42.550  -9.646  11.291  1.00  0.00     0.045 A 
HETATM   19  C   UNL     1      43.275  -9.003  12.297  1.00  0.00     0.066 A 
HETATM   20  C   UNL     1      42.625  -8.111  13.152  1.00  0.00     0.070 A 
HETATM   21  C   UNL     1      41.270  -7.833  12.962  1.00  0.00     0.037 A 
HETATM   22  C   UNL     1      40.548  -8.481  11.960  1.00  0.00     0.005 A 
HETATM   23  C   UNL     1      41.186  -9.402  11.133  1.00  0.00     0.030 A 
BRANCH  20  24
HETATM   24  O   UNL     1      43.222  -7.435  14.180  1.00  0.00    -0.356 OA
HETATM   25  C   UNL     1      42.333  -6.867  15.137  1.00  0.00     0.210 C 
ENDBRANCH  20  24
ENDBRANCH  16  18
ENDBRANCH  13  16
ENDBRANCH   8  13
BRANCH   1  26
HETATM   26  C   UNL     1      42.661 -16.070   4.400  1.00  0.00     0.257 C 
HETATM   27  N   UNL     1      43.839 -16.751   4.577  1.00  0.00    -0.357 N 
HETATM   28  H   UNL     1      44.616 -16.256   5.014  1.00  0.00     0.162 HD
HETATM   29  O   UNL     1      41.637 -16.593   3.970  1.00  0.00    -0.267 OA
BRANCH  27  30
HETATM   30  C   UNL     1      43.941 -18.188   4.421  1.00  0.00     0.123 C 
BRANCH  30  31
HETATM   31  C   UNL     1      43.951 -18.631   2.956  1.00  0.00     0.023 C 
BRANCH  31  32
HETATM   32  C   UNL     1      43.367 -20.043   2.758  1.00  0.00    -0.021 C 
HETATM   33  C   UNL     1      43.851 -21.020   3.830  1.00  0.00     0.009 C 
HETATM   34  C   UNL     1      43.733 -20.575   1.371  1.00  0.00     0.009 C 
ENDBRANCH  31  32
ENDBRANCH  30  31
ENDBRANCH  27  30
ENDBRANCH   1  26
TORSDOF 8
ENDMDL
MODEL 5
REMARK VINA RESULT:      -8.2      2.136      2.521
REMARK  8 active torsions:
REMARK  status: ('A' for Active; 'I' for Inactive)
REMARK    1  A    between atoms: C_2  and  C_3 
REMARK    2  A    between atoms: C_3  and  C_4 
REMARK    3  A    between atoms: C_4  and  N_5 
REMARK       I    between atoms: N_5  and  C_6 
REMARK    4  A    between atoms: C_6  and  C_7 
REMARK    5  A    between atoms: C_14  and  S_15 
REMARK    6  A    between atoms: S_15  and  N_16 
REMARK    7  A    between atoms: N_16  and  C_17 
REMARK    8  A    between atoms: C_19  and  O_20 
ROOT
HETATM    1  C   UNL     1      40.594 -10.263   6.459  1.00  0.00     0.098 C 
HETATM    2  C   UNL     1      40.101 -11.520   5.828  1.00  0.00     0.201 C 
HETATM    3  O   UNL     1      39.173 -12.164   6.311  1.00  0.00    -0.286 OA
HETATM    4  C   UNL     1      40.784 -11.992   4.591  1.00  0.00     0.043 A 
HETATM    5  C   UNL     1      41.778 -11.177   4.016  1.00  0.00     0.046 A 
HETATM    6  N   UNL     1      42.067  -9.925   4.575  1.00  0.00    -0.364 N 
HETATM    7  C   UNL     1      40.457 -13.232   4.029  1.00  0.00     0.043 A 
HETATM    8  C   UNL     1      41.118 -13.641   2.868  1.00  0.00     0.081 A 
HETATM    9  C   UNL     1      42.099 -12.835   2.279  1.00  0.00     0.027 A 
HETATM   10  C   UNL     1      42.415 -11.598   2.846  1.00  0.00     0.032 A 
HETATM   11  C   UNL     1      41.532  -9.573   5.790  1.00  0.00     0.109 C 
HETATM   12  H   UNL     1      42.924  -9.458   4.293  1.00  0.00     0.165 HD
ENDROOT
BRANCH   8  13
HETATM   13  S   UNL     1      40.760 -15.231   2.147  1.00  0.00     0.263 S 
HETATM   14  O   UNL     1      40.240 -16.067   3.210  1.00  0.00    -0.200 OA
HETATM   15  O   UNL     1      40.016 -15.015   0.928  1.00  0.00    -0.200 OA
BRANCH  13  16
HETATM   16  N   UNL     1      42.296 -15.831   1.785  1.00  0.00    -0.281 N 
HETATM   17  H   UNL     1      42.414 -16.033   0.794  1.00  0.00     0.179 HD
BRANCH  16  18
HETATM   18  C   UNL     1      42.931 -16.690   2.721  1.00  0.00     0.045 A 
HETATM   19  C   UNL     1      43.372 -16.180   3.945  1.00  0.00     0.066 A 
HETATM   20  C   UNL     1      44.053 -17.014   4.834  1.00  0.00     0.070 A 
HETATM   21  C   UNL     1      44.243 -18.360   4.513  1.00  0.00     0.037 A 
HETATM   22  C   UNL     1      43.807 -18.864   3.288  1.00  0.00     0.005 A 
HETATM   23  C   UNL     1      43.163 -18.023   2.383  1.00  0.00     0.030 A 
BRANCH  20  24
HETATM   24  O   UNL     1      44.545 -16.628   6.050  1.00  0.00    -0.356 OA
HETATM   25  C   UNL     1      43.777 -17.031   7.179  1.00  0.00     0.210 C 
ENDBRANCH  20  24
ENDBRANCH  16  18
ENDBRANCH  13  16
ENDBRANCH   8  13
BRANCH   1  26
HETATM   26  C   UNL     1      40.153  -9.745   7.785  1.00  0.00     0.257 C 
HETATM   27  N   UNL     1      41.115  -9.739   8.764  1.00  0.00    -0.357 N 
HETATM   28  H   UNL     1      42.061 -10.022   8.505  1.00  0.00     0.162 HD
HETATM   29  O   UNL     1      39.008  -9.338   7.963  1.00  0.00    -0.267 OA
BRANCH  27  30
HETATM   30  C   UNL     1      40.915  -9.107  10.052  1.00  0.00     0.123 C 
BRANCH  30  31
HETATM   31  C   UNL     1      41.890  -9.607  11.121  1.00  0.00     0.023 C 
BRANCH  31  32
HETATM   32  C   UNL     1      43.125  -8.699  11.271  1.00  0.00    -0.021 C 
HETATM   33  C   UNL     1      44.409  -9.396  10.821  1.00  0.00     0.009 C 
HETATM   34  C   UNL     1      43.269  -8.241  12.724  1.00  0.00     0.009 C 
ENDBRANCH  31  32
ENDBRANCH  30  31
ENDBRANCH  27  30
ENDBRANCH   1  26
TORSDOF 8
ENDMDL
MODEL 6
REMARK VINA RESULT:      -8.1      2.161      2.800
REMARK  8 active torsions:
REMARK  status: ('A' for Active; 'I' for Inactive)
REMARK    1  A    between atoms: C_2  and  C_3 
REMARK    2  A    between atoms: C_3  and  C_4 
REMARK    3  A    between atoms: C_4  and  N_5 
REMARK       I    between atoms: N_5  and  C_6 
REMARK    4  A    between atoms: C_6  and  C_7 
REMARK    5  A    between atoms: C_14  and  S_15 
REMARK    6  A    between atoms: S_15  and  N_16 
REMARK    7  A    between atoms: N_16  and  C_17 
REMARK    8  A    between atoms: C_19  and  O_20 
ROOT
HETATM    1  C   UNL     1      41.141 -10.011   6.194  1.00  0.00     0.098 C 
HETATM    2  C   UNL     1      41.360 -11.427   5.785  1.00  0.00     0.201 C 
HETATM    3  O   UNL     1      42.139 -12.161   6.390  1.00  0.00    -0.286 OA
HETATM    4  C   UNL     1      40.617 -11.931   4.597  1.00  0.00     0.043 A 
HETATM    5  C   UNL     1      39.664 -11.090   3.990  1.00  0.00     0.046 A 
HETATM    6  N   UNL     1      39.391  -9.830   4.539  1.00  0.00    -0.364 N 
HETATM    7  C   UNL     1      40.881 -13.206   4.084  1.00  0.00     0.043 A 
HETATM    8  C   UNL     1      40.163 -13.647   2.969  1.00  0.00     0.081 A 
HETATM    9  C   UNL     1      39.204 -12.826   2.364  1.00  0.00     0.027 A 
HETATM   10  C   UNL     1      38.946 -11.556   2.886  1.00  0.00     0.032 A 
HETATM   11  C   UNL     1      40.185  -9.329   5.541  1.00  0.00     0.109 C 
HETATM   12  H   UNL     1      38.881  -9.158   3.972  1.00  0.00     0.165 HD
ENDROOT
BRANCH   8  13
HETATM   13  S   UNL     1      40.500 -15.247   2.261  1.00  0.00     0.263 S 
HETATM   14  O   UNL     1      40.091 -16.234   3.239  1.00  0.00    -0.200 OA
HETATM   15  O   UNL     1      39.977 -15.262   0.914  1.00  0.00    -0.200 OA
BRANCH  13  16
HETATM   16  N   UNL     1      42.188 -15.291   2.224  1.00  0.00    -0.281 N 
HETATM   17  H   UNL     1      42.568 -15.008   1.323  1.00  0.00     0.179 HD
BRANCH  16  18
HETATM   18  C   UNL     1      42.859 -16.321   2.936  1.00  0.00     0.045 A 
HETATM   19  C   UNL     1      43.303 -16.088   4.240  1.00  0.00     0.066 A 
HETATM   20  C   UNL     1      44.018 -17.082   4.911  1.00  0.00     0.070 A 
HETATM   21  C   UNL     1      44.240 -18.314   4.292  1.00  0.00     0.037 A 
HETATM   22  C   UNL     1      43.800 -18.540   2.989  1.00  0.00     0.005 A 
HETATM   23  C   UNL     1      43.121 -17.535   2.303  1.00  0.00     0.030 A 
BRANCH  20  24
HETATM   24  O   UNL     1      44.518 -16.967   6.179  1.00  0.00    -0.356 OA
HETATM   25  C   UNL     1      43.559 -16.675   7.191  1.00  0.00     0.210 C 
ENDBRANCH  20  24
ENDBRANCH  16  18
ENDBRANCH  13  16
ENDBRANCH   8  13
BRANCH   1  26
HETATM   26  C   UNL     1      41.928  -9.292   7.236  1.00  0.00     0.257 C 
HETATM   27  N   UNL     1      42.122  -9.981   8.406  1.00  0.00    -0.357 N 
HETATM   28  H   UNL     1      41.779 -10.940   8.458  1.00  0.00     0.162 HD
HETATM   29  O   UNL     1      42.379  -8.168   7.032  1.00  0.00    -0.267 OA
BRANCH  27  30
HETATM   30  C   UNL     1      43.010  -9.512   9.451  1.00  0.00     0.123 C 
BRANCH  30  31
HETATM   31  C   UNL     1      44.163 -10.478   9.734  1.00  0.00     0.023 C 
BRANCH  31  32
HETATM   32  C   UNL     1      45.423 -10.157   8.907  1.00  0.00    -0.021 C 
HETATM   33  C   UNL     1      45.497  -8.680   8.522  1.00  0.00     0.009 C 
HETATM   34  C   UNL     1      45.460 -11.022   7.645  1.00  0.00     0.009 C 
ENDBRANCH  31  32
ENDBRANCH  30  31
ENDBRANCH  27  30
ENDBRANCH   1  26
TORSDOF 8
ENDMDL
MODEL 7
REMARK VINA RESULT:      -8.0      5.556      8.014
REMARK  8 active torsions:
REMARK  status: ('A' for Active; 'I' for Inactive)
REMARK    1  A    between atoms: C_2  and  C_3 
REMARK    2  A    between atoms: C_3  and  C_4 
REMARK    3  A    between atoms: C_4  and  N_5 
REMARK       I    between atoms: N_5  and  C_6 
REMARK    4  A    between atoms: C_6  and  C_7 
REMARK    5  A    between atoms: C_14  and  S_15 
REMARK    6  A    between atoms: S_15  and  N_16 
REMARK    7  A    between atoms: N_16  and  C_17 
REMARK    8  A    between atoms: C_19  and  O_20 
ROOT
HETATM    1  C   UNL     1      40.568 -12.330  -1.049  1.00  0.00     0.098 C 
HETATM    2  C   UNL     1      40.897 -12.258   0.403  1.00  0.00     0.201 C 
HETATM    3  O   UNL     1      41.378 -11.246   0.907  1.00  0.00    -0.286 OA
HETATM    4  C   UNL     1      40.642 -13.467   1.235  1.00  0.00     0.043 A 
HETATM    5  C   UNL     1      40.002 -14.572   0.642  1.00  0.00     0.046 A 
HETATM    6  N   UNL     1      39.568 -14.499  -0.688  1.00  0.00    -0.364 N 
HETATM    7  C   UNL     1      41.054 -13.507   2.573  1.00  0.00     0.043 A 
HETATM    8  C   UNL     1      40.796 -14.657   3.324  1.00  0.00     0.081 A 
HETATM    9  C   UNL     1      40.149 -15.758   2.750  1.00  0.00     0.027 A 
HETATM   10  C   UNL     1      39.739 -15.706   1.416  1.00  0.00     0.032 A 
HETATM   11  C   UNL     1      39.939 -13.438  -1.476  1.00  0.00     0.109 C 
HETATM   12  H   UNL     1      39.320 -15.363  -1.161  1.00  0.00     0.165 HD
ENDROOT
BRANCH   8  13
HETATM   13  S   UNL     1      41.343 -14.762   5.017  1.00  0.00     0.263 S 
HETATM   14  O   UNL     1      41.347 -13.413   5.542  1.00  0.00    -0.200 OA
HETATM   15  O   UNL     1      40.599 -15.819   5.664  1.00  0.00    -0.200 OA
BRANCH  13  16
HETATM   16  N   UNL     1      42.963 -15.212   4.859  1.00  0.00    -0.281 N 
HETATM   17  H   UNL     1      43.546 -14.457   4.504  1.00  0.00     0.179 HD
BRANCH  16  18
HETATM   18  C   UNL     1      43.266 -16.538   4.451  1.00  0.00     0.045 A 
HETATM   19  C   UNL     1      43.405 -17.546   5.408  1.00  0.00     0.066 A 
HETATM   20  C   UNL     1      43.766 -18.833   5.006  1.00  0.00     0.070 A 
HETATM   21  C   UNL     1      43.937 -19.111   3.648  1.00  0.00     0.037 A 
HETATM   22  C   UNL     1      43.803 -18.101   2.696  1.00  0.00     0.005 A 
HETATM   23  C   UNL     1      43.482 -16.808   3.100  1.00  0.00     0.030 A 
BRANCH  20  24
HETATM   24  O   UNL     1      43.948 -19.895   5.847  1.00  0.00    -0.356 OA
HETATM   25  C   UNL     1      44.396 -21.097   5.229  1.00  0.00     0.210 C 
ENDBRANCH  20  24
ENDBRANCH  16  18
ENDBRANCH  13  16
ENDBRANCH   8  13
BRANCH   1  26
HETATM   26  C   UNL     1      40.922 -11.291  -2.056  1.00  0.00     0.257 C 
HETATM   27  N   UNL     1      41.003 -10.008  -1.576  1.00  0.00    -0.357 N 
HETATM   28  H   UNL     1      40.882  -9.866  -0.573  1.00  0.00     0.162 HD
HETATM   29  O   UNL     1      41.142 -11.587  -3.228  1.00  0.00    -0.267 OA
BRANCH  27  30
HETATM   30  C   UNL     1      41.508  -8.907  -2.370  1.00  0.00     0.123 C 
BRANCH  30  31
HETATM   31  C   UNL     1      42.827  -8.342  -1.837  1.00  0.00     0.023 C 
BRANCH  31  32
HETATM   32  C   UNL     1      42.663  -6.951  -1.197  1.00  0.00    -0.021 C 
HETATM   33  C   UNL     1      41.327  -6.303  -1.565  1.00  0.00     0.009 C 
HETATM   34  C   UNL     1      43.814  -6.036  -1.623  1.00  0.00     0.009 C 
ENDBRANCH  31  32
ENDBRANCH  30  31
ENDBRANCH  27  30
ENDBRANCH   1  26
TORSDOF 8
ENDMDL
MODEL 8
REMARK VINA RESULT:      -8.0      2.698      3.382
REMARK  8 active torsions:
REMARK  status: ('A' for Active; 'I' for Inactive)
REMARK    1  A    between atoms: C_2  and  C_3 
REMARK    2  A    between atoms: C_3  and  C_4 
REMARK    3  A    between atoms: C_4  and  N_5 
REMARK       I    between atoms: N_5  and  C_6 
REMARK    4  A    between atoms: C_6  and  C_7 
REMARK    5  A    between atoms: C_14  and  S_15 
REMARK    6  A    between atoms: S_15  and  N_16 
REMARK    7  A    between atoms: N_16  and  C_17 
REMARK    8  A    between atoms: C_19  and  O_20 
ROOT
HETATM    1  C   UNL     1      39.091 -10.883   6.453  1.00  0.00     0.098 C 
HETATM    2  C   UNL     1      39.494 -12.182   5.845  1.00  0.00     0.201 C 
HETATM    3  O   UNL     1      39.791 -13.154   6.536  1.00  0.00    -0.286 OA
HETATM    4  C   UNL     1      39.546 -12.270   4.359  1.00  0.00     0.043 A 
HETATM    5  C   UNL     1      39.106 -11.166   3.602  1.00  0.00     0.046 A 
HETATM    6  N   UNL     1      38.579 -10.040   4.248  1.00  0.00    -0.364 N 
HETATM    7  C   UNL     1      40.045 -13.418   3.733  1.00  0.00     0.043 A 
HETATM    8  C   UNL     1      40.077 -13.465   2.337  1.00  0.00     0.081 A 
HETATM    9  C   UNL     1      39.631 -12.380   1.572  1.00  0.00     0.027 A 
HETATM   10  C   UNL     1      39.132 -11.241   2.207  1.00  0.00     0.032 A 
HETATM   11  C   UNL     1      38.673  -9.921   5.612  1.00  0.00     0.109 C 
HETATM   12  H   UNL     1      38.481  -9.181   3.714  1.00  0.00     0.165 HD
ENDROOT
BRANCH   8  13
HETATM   13  S   UNL     1      40.745 -14.892   1.503  1.00  0.00     0.263 S 
HETATM   14  O   UNL     1      39.820 -15.229   0.441  1.00  0.00    -0.200 OA
HETATM   15  O   UNL     1      42.142 -14.642   1.233  1.00  0.00    -0.200 OA
BRANCH  13  16
HETATM   16  N   UNL     1      40.592 -16.108   2.664  1.00  0.00    -0.281 N 
HETATM   17  H   UNL     1      39.800 -15.960   3.286  1.00  0.00     0.179 HD
BRANCH  16  18
HETATM   18  C   UNL     1      41.772 -16.680   3.212  1.00  0.00     0.045 A 
HETATM   19  C   UNL     1      42.413 -17.725   2.542  1.00  0.00     0.066 A 
HETATM   20  C   UNL     1      43.535 -18.326   3.116  1.00  0.00     0.070 A 
HETATM   21  C   UNL     1      44.032 -17.846   4.330  1.00  0.00     0.037 A 
HETATM   22  C   UNL     1      43.385 -16.807   4.998  1.00  0.00     0.005 A 
HETATM   23  C   UNL     1      42.243 -16.234   4.446  1.00  0.00     0.030 A 
BRANCH  20  24
HETATM   24  O   UNL     1      44.236 -19.363   2.566  1.00  0.00    -0.356 OA
HETATM   25  C   UNL     1      43.471 -20.275   1.785  1.00  0.00     0.210 C 
ENDBRANCH  20  24
ENDBRANCH  16  18
ENDBRANCH  13  16
ENDBRANCH   8  13
BRANCH   1  26
HETATM   26  C   UNL     1      39.159 -10.563   7.907  1.00  0.00     0.257 C 
HETATM   27  N   UNL     1      40.152  -9.690   8.273  1.00  0.00    -0.357 N 
HETATM   28  H   UNL     1      40.721  -9.278   7.533  1.00  0.00     0.162 HD
HETATM   29  O   UNL     1      38.358 -11.046   8.703  1.00  0.00    -0.267 OA
BRANCH  27  30
HETATM   30  C   UNL     1      40.250  -9.133   9.606  1.00  0.00     0.123 C 
BRANCH  30  31
HETATM   31  C   UNL     1      41.666  -9.204  10.181  1.00  0.00     0.023 C 
BRANCH  31  32
HETATM   32  C   UNL     1      41.701  -9.788  11.606  1.00  0.00    -0.021 C 
HETATM   33  C   UNL     1      40.302  -9.906  12.212  1.00  0.00     0.009 C 
HETATM   34  C   UNL     1      42.582  -8.922  12.509  1.00  0.00     0.009 C 
ENDBRANCH  31  32
ENDBRANCH  30  31
ENDBRANCH  27  30
ENDBRANCH   1  26
TORSDOF 8
ENDMDL
MODEL 9
REMARK VINA RESULT:      -7.9      2.311      3.523
REMARK  8 active torsions:
REMARK  status: ('A' for Active; 'I' for Inactive)
REMARK    1  A    between atoms: C_2  and  C_3 
REMARK    2  A    between atoms: C_3  and  C_4 
REMARK    3  A    between atoms: C_4  and  N_5 
REMARK       I    between atoms: N_5  and  C_6 
REMARK    4  A    between atoms: C_6  and  C_7 
REMARK    5  A    between atoms: C_14  and  S_15 
REMARK    6  A    between atoms: S_15  and  N_16 
REMARK    7  A    between atoms: N_16  and  C_17 
REMARK    8  A    between atoms: C_19  and  O_20 
ROOT
HETATM    1  C   UNL     1      43.625  -9.762  10.222  1.00  0.00     0.098 C 
HETATM    2  C   UNL     1      42.910  -9.833   8.916  1.00  0.00     0.201 C 
HETATM    3  O   UNL     1      41.746  -9.458   8.796  1.00  0.00    -0.286 OA
HETATM    4  C   UNL     1      43.646 -10.395   7.750  1.00  0.00     0.043 A 
HETATM    5  C   UNL     1      45.007 -10.725   7.906  1.00  0.00     0.046 A 
HETATM    6  N   UNL     1      45.655 -10.468   9.121  1.00  0.00    -0.364 N 
HETATM    7  C   UNL     1      42.988 -10.613   6.534  1.00  0.00     0.043 A 
HETATM    8  C   UNL     1      43.711 -11.141   5.461  1.00  0.00     0.081 A 
HETATM    9  C   UNL     1      45.067 -11.461   5.598  1.00  0.00     0.027 A 
HETATM   10  C   UNL     1      45.715 -11.236   6.815  1.00  0.00     0.032 A 
HETATM   11  C   UNL     1      44.928 -10.086  10.221  1.00  0.00     0.109 C 
HETATM   12  H   UNL     1      46.554 -10.911   9.290  1.00  0.00     0.165 HD
ENDROOT
BRANCH   8  13
HETATM   13  S   UNL     1      42.899 -11.472   3.910  1.00  0.00     0.263 S 
HETATM   14  O   UNL     1      42.106 -10.303   3.593  1.00  0.00    -0.200 OA
HETATM   15  O   UNL     1      43.885 -11.985   2.986  1.00  0.00    -0.200 OA
BRANCH  13  16
HETATM   16  N   UNL     1      41.802 -12.690   4.314  1.00  0.00    -0.281 N 
HETATM   17  H   UNL     1      41.316 -12.505   5.189  1.00  0.00     0.179 HD
BRANCH  16  18
HETATM   18  C   UNL     1      42.135 -14.037   4.008  1.00  0.00     0.045 A 
HETATM   19  C   UNL     1      43.037 -14.731   4.818  1.00  0.00     0.066 A 
HETATM   20  C   UNL     1      43.410 -16.032   4.475  1.00  0.00     0.070 A 
HETATM   21  C   UNL     1      42.841 -16.643   3.356  1.00  0.00     0.037 A 
HETATM   22  C   UNL     1      41.945 -15.945   2.547  1.00  0.00     0.005 A 
HETATM   23  C   UNL     1      41.604 -14.633   2.865  1.00  0.00     0.030 A 
BRANCH  20  24
HETATM   24  O   UNL     1      44.294 -16.805   5.177  1.00  0.00    -0.356 OA
HETATM   25  C   UNL     1      44.426 -16.485   6.558  1.00  0.00     0.210 C 
ENDBRANCH  20  24
ENDBRANCH  16  18
ENDBRANCH  13  16
ENDBRANCH   8  13
BRANCH   1  26
HETATM   26  C   UNL     1      42.992  -9.400  11.522  1.00  0.00     0.257 C 
HETATM   27  N   UNL     1      41.796 -10.020  11.788  1.00  0.00    -0.357 N 
HETATM   28  H   UNL     1      41.463 -10.718  11.123  1.00  0.00     0.162 HD
HETATM   29  O   UNL     1      43.530  -8.614  12.297  1.00  0.00    -0.267 OA
BRANCH  27  30
HETATM   30  C   UNL     1      41.136  -9.926  13.074  1.00  0.00     0.123 C 
BRANCH  30  31
HETATM   31  C   UNL     1      40.125  -8.779  13.144  1.00  0.00     0.023 C 
BRANCH  31  32
HETATM   32  C   UNL     1      40.494  -7.725  14.206  1.00  0.00    -0.021 C 
HETATM   33  C   UNL     1      41.059  -6.451  13.578  1.00  0.00     0.009 C 
HETATM   34  C   UNL     1      41.508  -8.306  15.195  1.00  0.00     0.009 C 
ENDBRANCH  31  32
ENDBRANCH  30  31
ENDBRANCH  27  30
ENDBRANCH   1  26
TORSDOF 8
ENDMDL
MODEL 10
REMARK VINA RESULT:      -7.6      3.128      5.657
REMARK  8 active torsions:
REMARK  status: ('A' for Active; 'I' for Inactive)
REMARK    1  A    between atoms: C_2  and  C_3 
REMARK    2  A    between atoms: C_3  and  C_4 
REMARK    3  A    between atoms: C_4  and  N_5 
REMARK       I    between atoms: N_5  and  C_6 
REMARK    4  A    between atoms: C_6  and  C_7 
REMARK    5  A    between atoms: C_14  and  S_15 
REMARK    6  A    between atoms: S_15  and  N_16 
REMARK    7  A    between atoms: N_16  and  C_17 
REMARK    8  A    between atoms: C_19  and  O_20 
ROOT
HETATM    1  C   UNL     1      44.218 -12.197   6.211  1.00  0.00     0.098 C 
HETATM    2  C   UNL     1      43.614 -12.083   4.854  1.00  0.00     0.201 C 
HETATM    3  O   UNL     1      43.851 -11.126   4.119  1.00  0.00    -0.286 OA
HETATM    4  C   UNL     1      42.687 -13.161   4.412  1.00  0.00     0.043 A 
HETATM    5  C   UNL     1      42.516 -14.286   5.241  1.00  0.00     0.046 A 
HETATM    6  N   UNL     1      43.253 -14.400   6.427  1.00  0.00    -0.364 N 
HETATM    7  C   UNL     1      41.985 -13.044   3.206  1.00  0.00     0.043 A 
HETATM    8  C   UNL     1      41.125 -14.076   2.823  1.00  0.00     0.081 A 
HETATM    9  C   UNL     1      40.956 -15.206   3.632  1.00  0.00     0.027 A 
HETATM   10  C   UNL     1      41.664 -15.315   4.831  1.00  0.00     0.032 A 
HETATM   11  C   UNL     1      43.988 -13.335   6.886  1.00  0.00     0.109 C 
HETATM   12  H   UNL     1      42.958 -15.089   7.114  1.00  0.00     0.165 HD
ENDROOT
BRANCH   8  13
HETATM   13  S   UNL     1      40.182 -13.944   1.316  1.00  0.00     0.263 S 
HETATM   14  O   UNL     1      39.814 -15.291   0.931  1.00  0.00    -0.200 OA
HETATM   15  O   UNL     1      39.183 -12.916   1.500  1.00  0.00    -0.200 OA
BRANCH  13  16
HETATM   16  N   UNL     1      41.336 -13.432   0.196  1.00  0.00    -0.281 N 
HETATM   17  H   UNL     1      42.235 -13.225   0.626  1.00  0.00     0.179 HD
BRANCH  16  18
HETATM   18  C   UNL     1      40.916 -12.623  -0.894  1.00  0.00     0.045 A 
HETATM   19  C   UNL     1      41.217 -11.259  -0.904  1.00  0.00     0.066 A 
HETATM   20  C   UNL     1      40.747 -10.458  -1.946  1.00  0.00     0.070 A 
HETATM   21  C   UNL     1      40.023 -11.035  -2.991  1.00  0.00     0.037 A 
HETATM   22  C   UNL     1      39.720 -12.396  -2.975  1.00  0.00     0.005 A 
HETATM   23  C   UNL     1      40.154 -13.189  -1.915  1.00  0.00     0.030 A 
BRANCH  20  24
HETATM   24  O   UNL     1      40.961  -9.112  -2.057  1.00  0.00    -0.356 OA
HETATM   25  C   UNL     1      42.186  -8.638  -1.506  1.00  0.00     0.210 C 
ENDBRANCH  20  24
ENDBRANCH  16  18
ENDBRANCH  13  16
ENDBRANCH   8  13
BRANCH   1  26
HETATM   26  C   UNL     1      45.016 -11.132   6.882  1.00  0.00     0.257 C 
HETATM   27  N   UNL     1      44.292 -10.236   7.629  1.00  0.00    -0.357 N 
HETATM   28  H   UNL     1      43.289 -10.395   7.725  1.00  0.00     0.162 HD
HETATM   29  O   UNL     1      46.239 -11.088   6.775  1.00  0.00    -0.267 OA
BRANCH  27  30
HETATM   30  C   UNL     1      44.917  -9.252   8.489  1.00  0.00     0.123 C 
BRANCH  30  31
HETATM   31  C   UNL     1      45.297  -9.813   9.861  1.00  0.00     0.023 C 
BRANCH  31  32
HETATM   32  C   UNL     1      44.338  -9.356  10.977  1.00  0.00    -0.021 C 
HETATM   33  C   UNL     1      43.491 -10.511  11.514  1.00  0.00     0.009 C 
HETATM   34  C   UNL     1      43.423  -8.242  10.462  1.00  0.00     0.009 C 
ENDBRANCH  31  32
ENDBRANCH  30  31
ENDBRANCH  27  30
ENDBRANCH   1  26
TORSDOF 8
ENDMDL
