MODEL 1
REMARK VINA RESULT:      -8.6      0.000      0.000
REMARK  5 active torsions:
REMARK  status: ('A' for Active; 'I' for Inactive)
REMARK    1  A    between atoms: C_2  and  C_3 
REMARK       I    between atoms: C_3  and  N_4 
REMARK    2  A    between atoms: N_4  and  C_5 
REMARK    3  A    between atoms: C_8  and  C_9 
REMARK       I    between atoms: C_9  and  N_10 
REMARK    4  A    between atoms: N_10  and  N_11 
REMARK    5  A    between atoms: C_12  and  C_13 
ROOT
HETATM    1  C   UNL     1      44.052 -11.625   6.078  1.00  0.00     0.271 C 
HETATM    2  N   UNL     1      43.246 -12.755   6.024  1.00  0.00    -0.243 N 
HETATM    3  O   UNL     1      44.748 -11.194   5.165  1.00  0.00    -0.266 OA
HETATM    4  H   UNL     1      42.494 -12.848   6.699  1.00  0.00     0.192 HD
ENDROOT
BRANCH   2   5
HETATM    5  N   UNL     1      43.107 -13.598   4.947  1.00  0.00    -0.183 NA
HETATM    6  C   UNL     1      42.406 -14.678   5.091  1.00  0.00     0.153 C 
BRANCH   6   7
HETATM    7  C   UNL     1      42.247 -15.605   3.981  1.00  0.00     0.018 A 
HETATM    8  C   UNL     1      42.958 -16.842   3.823  1.00  0.00     0.004 A 
HETATM    9  C   UNL     1      42.506 -17.439   2.647  1.00  0.00     0.043 A 
HETATM   10  C   UNL     1      43.949 -17.510   4.574  1.00  0.00     0.014 A 
HETATM   11  C   UNL     1      42.990 -18.671   2.186  1.00  0.00     0.030 A 
HETATM   12  N   UNL     1      41.565 -16.599   2.106  1.00  0.00    -0.358 N 
HETATM   13  C   UNL     1      43.967 -19.312   2.951  1.00  0.00     0.002 A 
HETATM   14  C   UNL     1      44.444 -18.742   4.127  1.00  0.00     0.001 A 
HETATM   15  H   UNL     1      41.070 -16.782   1.244  1.00  0.00     0.166 HD
HETATM   16  C   UNL     1      41.391 -15.488   2.893  1.00  0.00     0.018 A 
HETATM   17  C   UNL     1      40.415 -14.430   2.522  1.00  0.00     0.069 C 
ENDBRANCH   6   7
ENDBRANCH   2   5
BRANCH   1  18
HETATM   18  C   UNL     1      44.019 -10.876   7.368  1.00  0.00     0.033 A 
HETATM   19  C   UNL     1      45.120 -10.824   8.229  1.00  0.00     0.019 A 
HETATM   20  C   UNL     1      45.061 -10.064   9.406  1.00  0.00     0.030 A 
HETATM   21  C   UNL     1      43.909  -9.346   9.735  1.00  0.00     0.034 A 
HETATM   22  C   UNL     1      42.808  -9.404   8.870  1.00  0.00     0.030 A 
HETATM   23  C   UNL     1      42.865 -10.156   7.692  1.00  0.00     0.019 A 
BRANCH  21  24
HETATM   24  N   UNL     1      43.781  -8.539  10.883  1.00  0.00    -0.327 N 
HETATM   25  C   UNL     1      43.308  -8.913  12.127  1.00  0.00     0.221 C 
HETATM   26  O   UNL     1      42.866 -10.015  12.436  1.00  0.00    -0.273 OA
HETATM   27  H   UNL     1      44.102  -7.585  10.786  1.00  0.00     0.169 HD
BRANCH  25  28
HETATM   28  C   UNL     1      43.335  -7.784  13.147  1.00  0.00     0.098 C 
HETATM   29  C   UNL     1      42.425  -8.029  14.339  1.00  0.00     0.014 C 
ENDBRANCH  25  28
ENDBRANCH  21  24
ENDBRANCH   1  18
TORSDOF 5
ENDMDL
MODEL 2
REMARK VINA RESULT:      -8.5      1.558      2.636
REMARK  5 active torsions:
REMARK  status: ('A' for Active; 'I' for Inactive)
REMARK    1  A    between atoms: C_2  and  C_3 
REMARK       I    between atoms: C_3  and  N_4 
REMARK    2  A    between atoms: N_4  and  C_5 
REMARK    3  A    between atoms: C_8  and  C_9 
REMARK       I    between atoms: C_9  and  N_10 
REMARK    4  A    between atoms: N_10  and  N_11 
REMARK    5  A    between atoms: C_12  and  C_13 
ROOT
HETATM    1  C   UNL     1      44.633 -11.441   7.567  1.00  0.00     0.271 C 
HETATM    2  N   UNL     1      43.756 -12.506   7.400  1.00  0.00    -0.243 N 
HETATM    3  O   UNL     1      45.674 -11.262   6.943  1.00  0.00    -0.266 OA
HETATM    4  H   UNL     1      42.801 -12.404   7.728  1.00  0.00     0.192 HD
ENDROOT
BRANCH   2   5
HETATM    5  N   UNL     1      43.915 -13.553   6.525  1.00  0.00    -0.183 NA
HETATM    6  C   UNL     1      42.982 -14.450   6.455  1.00  0.00     0.153 C 
BRANCH   6   7
HETATM    7  C   UNL     1      43.117 -15.583   5.554  1.00  0.00     0.018 A 
HETATM    8  C   UNL     1      43.101 -15.513   4.120  1.00  0.00     0.004 A 
HETATM    9  C   UNL     1      43.278 -16.806   3.633  1.00  0.00     0.043 A 
HETATM   10  C   UNL     1      42.950 -14.463   3.188  1.00  0.00     0.014 A 
HETATM   11  C   UNL     1      43.317 -17.105   2.264  1.00  0.00     0.030 A 
HETATM   12  N   UNL     1      43.390 -17.634   4.722  1.00  0.00    -0.358 N 
HETATM   13  C   UNL     1      43.169 -16.046   1.365  1.00  0.00     0.002 A 
HETATM   14  C   UNL     1      42.986 -14.743   1.816  1.00  0.00     0.001 A 
HETATM   15  H   UNL     1      43.524 -18.634   4.664  1.00  0.00     0.166 HD
HETATM   16  C   UNL     1      43.298 -16.920   5.891  1.00  0.00     0.018 A 
HETATM   17  C   UNL     1      43.398 -17.593   7.212  1.00  0.00     0.069 C 
ENDBRANCH   6   7
ENDBRANCH   2   5
BRANCH   1  18
HETATM   18  C   UNL     1      44.224 -10.428   8.583  1.00  0.00     0.033 A 
HETATM   19  C   UNL     1      42.982  -9.787   8.542  1.00  0.00     0.019 A 
HETATM   20  C   UNL     1      42.621  -8.880   9.549  1.00  0.00     0.030 A 
HETATM   21  C   UNL     1      43.488  -8.608  10.609  1.00  0.00     0.034 A 
HETATM   22  C   UNL     1      44.733  -9.251  10.644  1.00  0.00     0.030 A 
HETATM   23  C   UNL     1      45.095 -10.159   9.644  1.00  0.00     0.019 A 
BRANCH  21  24
HETATM   24  N   UNL     1      43.189  -7.733  11.672  1.00  0.00    -0.327 N 
HETATM   25  C   UNL     1      42.761  -8.067  12.944  1.00  0.00     0.221 C 
HETATM   26  O   UNL     1      42.517  -9.197  13.356  1.00  0.00    -0.273 OA
HETATM   27  H   UNL     1      43.336  -6.750  11.484  1.00  0.00     0.169 HD
BRANCH  25  28
HETATM   28  C   UNL     1      42.560  -6.860  13.848  1.00  0.00     0.098 C 
HETATM   29  C   UNL     1      42.417  -7.226  15.316  1.00  0.00     0.014 C 
ENDBRANCH  25  28
ENDBRANCH  21  24
ENDBRANCH   1  18
TORSDOF 5
ENDMDL
MODEL 3
REMARK VINA RESULT:      -7.9      2.118      2.943
REMARK  5 active torsions:
REMARK  status: ('A' for Active; 'I' for Inactive)
REMARK    1  A    between atoms: C_2  and  C_3 
REMARK       I    between atoms: C_3  and  N_4 
REMARK    2  A    between atoms: N_4  and  C_5 
REMARK    3  A    between atoms: C_8  and  C_9 
REMARK       I    between atoms: C_9  and  N_10 
REMARK    4  A    between atoms: N_10  and  N_11 
REMARK    5  A    between atoms: C_12  and  C_13 
ROOT
HETATM    1  C   UNL     1      44.519 -11.487   7.765  1.00  0.00     0.271 C 
HETATM    2  N   UNL     1      43.649 -12.548   7.540  1.00  0.00    -0.243 N 
HETATM    3  O   UNL     1      45.599 -11.313   7.210  1.00  0.00    -0.266 OA
HETATM    4  H   UNL     1      42.675 -12.441   7.806  1.00  0.00     0.192 HD
ENDROOT
BRANCH   2   5
HETATM    5  N   UNL     1      43.858 -13.594   6.675  1.00  0.00    -0.183 NA
HETATM    6  C   UNL     1      42.878 -14.406   6.434  1.00  0.00     0.153 C 
BRANCH   6   7
HETATM    7  C   UNL     1      43.061 -15.536   5.537  1.00  0.00     0.018 A 
HETATM    8  C   UNL     1      43.056 -15.469   4.103  1.00  0.00     0.004 A 
HETATM    9  C   UNL     1      43.283 -16.757   3.620  1.00  0.00     0.043 A 
HETATM   10  C   UNL     1      42.879 -14.426   3.167  1.00  0.00     0.014 A 
HETATM   11  C   UNL     1      43.345 -17.056   2.253  1.00  0.00     0.030 A 
HETATM   12  N   UNL     1      43.412 -17.578   4.713  1.00  0.00    -0.358 N 
HETATM   13  C   UNL     1      43.170 -16.005   1.349  1.00  0.00     0.002 A 
HETATM   14  C   UNL     1      42.937 -14.708   1.797  1.00  0.00     0.001 A 
HETATM   15  H   UNL     1      43.581 -18.572   4.658  1.00  0.00     0.166 HD
HETATM   16  C   UNL     1      43.284 -16.864   5.879  1.00  0.00     0.018 A 
HETATM   17  C   UNL     1      43.394 -17.531   7.203  1.00  0.00     0.069 C 
ENDBRANCH   6   7
ENDBRANCH   2   5
BRANCH   1  18
HETATM   18  C   UNL     1      44.051 -10.475   8.755  1.00  0.00     0.033 A 
HETATM   19  C   UNL     1      44.789 -10.151   9.899  1.00  0.00     0.019 A 
HETATM   20  C   UNL     1      44.334  -9.155  10.774  1.00  0.00     0.030 A 
HETATM   21  C   UNL     1      43.146  -8.467  10.518  1.00  0.00     0.034 A 
HETATM   22  C   UNL     1      42.409  -8.796   9.373  1.00  0.00     0.030 A 
HETATM   23  C   UNL     1      42.861  -9.787   8.494  1.00  0.00     0.019 A 
BRANCH  21  24
HETATM   24  N   UNL     1      42.637  -7.436  11.333  1.00  0.00    -0.327 N 
HETATM   25  C   UNL     1      42.573  -6.086  11.042  1.00  0.00     0.221 C 
HETATM   26  O   UNL     1      43.001  -5.539  10.030  1.00  0.00    -0.273 OA
HETATM   27  H   UNL     1      42.247  -7.730  12.218  1.00  0.00     0.169 HD
BRANCH  25  28
HETATM   28  C   UNL     1      41.932  -5.261  12.147  1.00  0.00     0.098 C 
HETATM   29  C   UNL     1      42.359  -3.802  12.134  1.00  0.00     0.014 C 
ENDBRANCH  25  28
ENDBRANCH  21  24
ENDBRANCH   1  18
TORSDOF 5
ENDMDL
MODEL 4
REMARK VINA RESULT:      -7.8      1.963      3.024
REMARK  5 active torsions:
REMARK  status: ('A' for Active; 'I' for Inactive)
REMARK    1  A    between atoms: C_2  and  C_3 
REMARK       I    between atoms: C_3  and  N_4 
REMARK    2  A    between atoms: N_4  and  C_5 
REMARK    3  A    between atoms: C_8  and  C_9 
REMARK       I    between atoms: C_9  and  N_10 
REMARK    4  A    between atoms: N_10  and  N_11 
REMARK    5  A    between atoms: C_12  and  C_13 
ROOT
HETATM    1  C   UNL     1      44.350 -10.747   8.758  1.00  0.00     0.271 C 
HETATM    2  N   UNL     1      43.330 -10.961   7.839  1.00  0.00    -0.243 N 
HETATM    3  O   UNL     1      45.539 -10.995   8.584  1.00  0.00    -0.266 OA
HETATM    4  H   UNL     1      42.460 -10.451   7.952  1.00  0.00     0.192 HD
ENDROOT
BRANCH   2   5
HETATM    5  N   UNL     1      43.473 -11.508   6.587  1.00  0.00    -0.183 NA
HETATM    6  C   UNL     1      42.727 -12.517   6.261  1.00  0.00     0.153 C 
BRANCH   6   7
HETATM    7  C   UNL     1      42.857 -13.136   4.952  1.00  0.00     0.018 A 
HETATM    8  C   UNL     1      42.976 -14.546   4.706  1.00  0.00     0.004 A 
HETATM    9  C   UNL     1      43.059 -14.727   3.327  1.00  0.00     0.043 A 
HETATM   10  C   UNL     1      43.021 -15.688   5.535  1.00  0.00     0.014 A 
HETATM   11  C   UNL     1      43.180 -15.990   2.732  1.00  0.00     0.030 A 
HETATM   12  N   UNL     1      43.001 -13.481   2.753  1.00  0.00    -0.358 N 
HETATM   13  C   UNL     1      43.218 -17.104   3.575  1.00  0.00     0.002 A 
HETATM   14  C   UNL     1      43.143 -16.958   4.957  1.00  0.00     0.001 A 
HETATM   15  H   UNL     1      43.043 -13.312   1.758  1.00  0.00     0.166 HD
HETATM   16  C   UNL     1      42.878 -12.507   3.713  1.00  0.00     0.018 A 
HETATM   17  C   UNL     1      42.788 -11.070   3.341  1.00  0.00     0.069 C 
ENDBRANCH   6   7
ENDBRANCH   2   5
BRANCH   1  18
HETATM   18  C   UNL     1      43.929 -10.131  10.049  1.00  0.00     0.033 A 
HETATM   19  C   UNL     1      43.765  -8.750  10.201  1.00  0.00     0.019 A 
HETATM   20  C   UNL     1      43.317  -8.221  11.420  1.00  0.00     0.030 A 
HETATM   21  C   UNL     1      43.023  -9.060  12.496  1.00  0.00     0.034 A 
HETATM   22  C   UNL     1      43.191 -10.442  12.341  1.00  0.00     0.030 A 
HETATM   23  C   UNL     1      43.634 -10.975  11.125  1.00  0.00     0.019 A 
BRANCH  21  24
HETATM   24  N   UNL     1      42.543  -8.610  13.743  1.00  0.00    -0.327 N 
HETATM   25  C   UNL     1      41.225  -8.481  14.142  1.00  0.00     0.221 C 
HETATM   26  O   UNL     1      40.232  -8.693  13.452  1.00  0.00    -0.273 OA
HETATM   27  H   UNL     1      43.250  -8.385  14.430  1.00  0.00     0.169 HD
BRANCH  25  28
HETATM   28  C   UNL     1      41.074  -7.989  15.573  1.00  0.00     0.098 C 
HETATM   29  C   UNL     1      40.293  -6.690  15.683  1.00  0.00     0.014 C 
ENDBRANCH  25  28
ENDBRANCH  21  24
ENDBRANCH   1  18
TORSDOF 5
ENDMDL
MODEL 5
REMARK VINA RESULT:      -7.7      5.937     10.282
REMARK  5 active torsions:
REMARK  status: ('A' for Active; 'I' for Inactive)
REMARK    1  A    between atoms: C_2  and  C_3 
REMARK       I    between atoms: C_3  and  N_4 
REMARK    2  A    between atoms: N_4  and  C_5 
REMARK    3  A    between atoms: C_8  and  C_9 
REMARK       I    between atoms: C_9  and  N_10 
REMARK    4  A    between atoms: N_10  and  N_11 
REMARK    5  A    between atoms: C_12  and  C_13 
ROOT
HETATM    1  C   UNL     1      40.173 -13.683   0.689  1.00  0.00     0.271 C 
HETATM    2  N   UNL     1      39.790 -14.830   1.373  1.00  0.00    -0.243 N 
HETATM    3  O   UNL     1      41.243 -13.095   0.814  1.00  0.00    -0.266 OA
HETATM    4  H   UNL     1      39.045 -15.400   0.985  1.00  0.00     0.192 HD
ENDROOT
BRANCH   2   5
HETATM    5  N   UNL     1      40.531 -15.490   2.323  1.00  0.00    -0.183 NA
HETATM    6  C   UNL     1      41.752 -15.820   2.039  1.00  0.00     0.153 C 
BRANCH   6   7
HETATM    7  C   UNL     1      42.566 -16.533   3.009  1.00  0.00     0.018 A 
HETATM    8  C   UNL     1      42.961 -17.910   2.912  1.00  0.00     0.004 A 
HETATM    9  C   UNL     1      43.747 -18.203   4.025  1.00  0.00     0.043 A 
HETATM   10  C   UNL     1      42.720 -18.939   1.976  1.00  0.00     0.014 A 
HETATM   11  C   UNL     1      44.307 -19.467   4.250  1.00  0.00     0.030 A 
HETATM   12  N   UNL     1      43.823 -17.056   4.776  1.00  0.00    -0.358 N 
HETATM   13  C   UNL     1      44.056 -20.465   3.305  1.00  0.00     0.002 A 
HETATM   14  C   UNL     1      43.272 -20.209   2.184  1.00  0.00     0.001 A 
HETATM   15  H   UNL     1      44.330 -16.980   5.646  1.00  0.00     0.166 HD
HETATM   16  C   UNL     1      43.121 -16.036   4.183  1.00  0.00     0.018 A 
HETATM   17  C   UNL     1      43.058 -14.685   4.801  1.00  0.00     0.069 C 
ENDBRANCH   6   7
ENDBRANCH   2   5
BRANCH   1  18
HETATM   18  C   UNL     1      39.183 -13.166  -0.300  1.00  0.00     0.033 A 
HETATM   19  C   UNL     1      38.541 -11.934  -0.139  1.00  0.00     0.019 A 
HETATM   20  C   UNL     1      37.656 -11.465  -1.121  1.00  0.00     0.030 A 
HETATM   21  C   UNL     1      37.408 -12.213  -2.274  1.00  0.00     0.034 A 
HETATM   22  C   UNL     1      38.052 -13.447  -2.429  1.00  0.00     0.030 A 
HETATM   23  C   UNL     1      38.938 -13.917  -1.454  1.00  0.00     0.019 A 
BRANCH  21  24
HETATM   24  N   UNL     1      36.556 -11.799  -3.318  1.00  0.00    -0.327 N 
HETATM   25  C   UNL     1      35.662 -10.744  -3.308  1.00  0.00     0.221 C 
HETATM   26  O   UNL     1      35.418 -10.007  -2.358  1.00  0.00    -0.273 OA
HETATM   27  H   UNL     1      36.636 -12.320  -4.181  1.00  0.00     0.169 HD
BRANCH  25  28
HETATM   28  C   UNL     1      34.923 -10.569  -4.625  1.00  0.00     0.098 C 
HETATM   29  C   UNL     1      34.181 -11.818  -5.070  1.00  0.00     0.014 C 
ENDBRANCH  25  28
ENDBRANCH  21  24
ENDBRANCH   1  18
TORSDOF 5
ENDMDL
MODEL 6
REMARK VINA RESULT:      -7.5      5.730      9.490
REMARK  5 active torsions:
REMARK  status: ('A' for Active; 'I' for Inactive)
REMARK    1  A    between atoms: C_2  and  C_3 
REMARK       I    between atoms: C_3  and  N_4 
REMARK    2  A    between atoms: N_4  and  C_5 
REMARK    3  A    between atoms: C_8  and  C_9 
REMARK       I    between atoms: C_9  and  N_10 
REMARK    4  A    between atoms: N_10  and  N_11 
REMARK    5  A    between atoms: C_12  and  C_13 
ROOT
HETATM    1  C   UNL     1      41.822 -12.954   1.321  1.00  0.00     0.271 C 
HETATM    2  N   UNL     1      42.056 -14.284   0.996  1.00  0.00    -0.243 N 
HETATM    3  O   UNL     1      42.234 -12.375   2.322  1.00  0.00    -0.266 OA
HETATM    4  H   UNL     1      41.943 -14.574   0.029  1.00  0.00     0.192 HD
ENDROOT
BRANCH   2   5
HETATM    5  N   UNL     1      42.769 -15.187   1.747  1.00  0.00    -0.183 NA
HETATM    6  C   UNL     1      42.179 -15.767   2.744  1.00  0.00     0.153 C 
BRANCH   6   7
HETATM    7  C   UNL     1      42.902 -16.717   3.575  1.00  0.00     0.018 A 
HETATM    8  C   UNL     1      43.166 -18.087   3.236  1.00  0.00     0.004 A 
HETATM    9  C   UNL     1      43.897 -18.646   4.282  1.00  0.00     0.043 A 
HETATM   10  C   UNL     1      42.848 -18.905   2.131  1.00  0.00     0.014 A 
HETATM   11  C   UNL     1      44.330 -19.979   4.280  1.00  0.00     0.030 A 
HETATM   12  N   UNL     1      44.067 -17.662   5.225  1.00  0.00    -0.358 N 
HETATM   13  C   UNL     1      44.005 -20.765   3.172  1.00  0.00     0.002 A 
HETATM   14  C   UNL     1      43.272 -20.240   2.112  1.00  0.00     0.001 A 
HETATM   15  H   UNL     1      44.561 -17.791   6.096  1.00  0.00     0.166 HD
HETATM   16  C   UNL     1      43.477 -16.490   4.820  1.00  0.00     0.018 A 
HETATM   17  C   UNL     1      43.530 -15.271   5.668  1.00  0.00     0.069 C 
ENDBRANCH   6   7
ENDBRANCH   2   5
BRANCH   1  18
HETATM   18  C   UNL     1      41.019 -12.183   0.329  1.00  0.00     0.033 A 
HETATM   19  C   UNL     1      40.768 -10.814   0.471  1.00  0.00     0.019 A 
HETATM   20  C   UNL     1      40.052 -10.120  -0.515  1.00  0.00     0.030 A 
HETATM   21  C   UNL     1      39.585 -10.779  -1.654  1.00  0.00     0.034 A 
HETATM   22  C   UNL     1      39.836 -12.150  -1.791  1.00  0.00     0.030 A 
HETATM   23  C   UNL     1      40.554 -12.846  -0.812  1.00  0.00     0.019 A 
BRANCH  21  24
HETATM   24  N   UNL     1      38.883 -10.148  -2.701  1.00  0.00    -0.327 N 
HETATM   25  C   UNL     1      39.414  -9.522  -3.814  1.00  0.00     0.221 C 
HETATM   26  O   UNL     1      40.606  -9.362  -4.059  1.00  0.00    -0.273 OA
HETATM   27  H   UNL     1      37.875 -10.190  -2.639  1.00  0.00     0.169 HD
BRANCH  25  28
HETATM   28  C   UNL     1      38.355  -8.972  -4.757  1.00  0.00     0.098 C 
HETATM   29  C   UNL     1      38.910  -8.568  -6.113  1.00  0.00     0.014 C 
ENDBRANCH  25  28
ENDBRANCH  21  24
ENDBRANCH   1  18
TORSDOF 5
ENDMDL
MODEL 7
REMARK VINA RESULT:      -7.4      2.467     10.351
REMARK  5 active torsions:
REMARK  status: ('A' for Active; 'I' for Inactive)
REMARK    1  A    between atoms: C_2  and  C_3 
REMARK       I    between atoms: C_3  and  N_4 
REMARK    2  A    between atoms: N_4  and  C_5 
REMARK    3  A    between atoms: C_8  and  C_9 
REMARK       I    between atoms: C_9  and  N_10 
REMARK    4  A    between atoms: N_10  and  N_11 
REMARK    5  A    between atoms: C_12  and  C_13 
ROOT
HETATM    1  C   UNL     1      43.838 -11.278   7.683  1.00  0.00     0.271 C 
HETATM    2  N   UNL     1      42.779 -10.386   7.794  1.00  0.00    -0.243 N 
HETATM    3  O   UNL     1      44.883 -11.236   8.324  1.00  0.00    -0.266 OA
HETATM    4  H   UNL     1      41.864 -10.676   7.462  1.00  0.00     0.192 HD
ENDROOT
BRANCH   2   5
HETATM    5  N   UNL     1      42.727  -9.293   8.624  1.00  0.00    -0.183 NA
HETATM    6  C   UNL     1      41.582  -8.943   9.119  1.00  0.00     0.153 C 
BRANCH   6   7
HETATM    7  C   UNL     1      41.480  -7.782   9.989  1.00  0.00     0.018 A 
HETATM    8  C   UNL     1      42.077  -7.662  11.289  1.00  0.00     0.004 A 
HETATM    9  C   UNL     1      41.761  -6.397  11.783  1.00  0.00     0.043 A 
HETATM   10  C   UNL     1      42.860  -8.517  12.095  1.00  0.00     0.014 A 
HETATM   11  C   UNL     1      42.189  -5.941  13.036  1.00  0.00     0.030 A 
HETATM   12  N   UNL     1      40.996  -5.773  10.828  1.00  0.00    -0.358 N 
HETATM   13  C   UNL     1      42.966  -6.806  13.811  1.00  0.00     0.002 A 
HETATM   14  C   UNL     1      43.297  -8.077  13.351  1.00  0.00     0.001 A 
HETATM   15  H   UNL     1      40.622  -4.839  10.922  1.00  0.00     0.166 HD
HETATM   16  C   UNL     1      40.815  -6.588   9.738  1.00  0.00     0.018 A 
HETATM   17  C   UNL     1      40.025  -6.133   8.563  1.00  0.00     0.069 C 
ENDBRANCH   6   7
ENDBRANCH   2   5
BRANCH   1  18
HETATM   18  C   UNL     1      43.641 -12.389   6.707  1.00  0.00     0.033 A 
HETATM   19  C   UNL     1      43.616 -13.732   7.099  1.00  0.00     0.019 A 
HETATM   20  C   UNL     1      43.375 -14.739   6.154  1.00  0.00     0.030 A 
HETATM   21  C   UNL     1      43.150 -14.420   4.813  1.00  0.00     0.034 A 
HETATM   22  C   UNL     1      43.177 -13.075   4.425  1.00  0.00     0.030 A 
HETATM   23  C   UNL     1      43.413 -12.066   5.365  1.00  0.00     0.019 A 
BRANCH  21  24
HETATM   24  N   UNL     1      42.873 -15.371   3.809  1.00  0.00    -0.327 N 
HETATM   25  C   UNL     1      41.706 -16.090   3.628  1.00  0.00     0.221 C 
HETATM   26  O   UNL     1      40.714 -16.061   4.350  1.00  0.00    -0.273 OA
HETATM   27  H   UNL     1      43.607 -15.515   3.129  1.00  0.00     0.169 HD
BRANCH  25  28
HETATM   28  C   UNL     1      41.748 -17.011   2.419  1.00  0.00     0.098 C 
HETATM   29  C   UNL     1      42.962 -17.925   2.400  1.00  0.00     0.014 C 
ENDBRANCH  25  28
ENDBRANCH  21  24
ENDBRANCH   1  18
TORSDOF 5
ENDMDL
MODEL 8
REMARK VINA RESULT:      -7.3      2.487     10.214
REMARK  5 active torsions:
REMARK  status: ('A' for Active; 'I' for Inactive)
REMARK    1  A    between atoms: C_2  and  C_3 
REMARK       I    between atoms: C_3  and  N_4 
REMARK    2  A    between atoms: N_4  and  C_5 
REMARK    3  A    between atoms: C_8  and  C_9 
REMARK       I    between atoms: C_9  and  N_10 
REMARK    4  A    between atoms: N_10  and  N_11 
REMARK    5  A    between atoms: C_12  and  C_13 
ROOT
HETATM    1  C   UNL     1      40.898 -12.847   6.074  1.00  0.00     0.271 C 
HETATM    2  N   UNL     1      41.857 -11.877   6.341  1.00  0.00    -0.243 N 
HETATM    3  O   UNL     1      39.704 -12.773   6.348  1.00  0.00    -0.266 OA
HETATM    4  H   UNL     1      42.723 -11.894   5.813  1.00  0.00     0.192 HD
ENDROOT
BRANCH   2   5
HETATM    5  N   UNL     1      41.639 -10.679   6.977  1.00  0.00    -0.183 NA
HETATM    6  C   UNL     1      42.646 -10.074   7.522  1.00  0.00     0.153 C 
BRANCH   6   7
HETATM    7  C   UNL     1      42.456  -8.812   8.220  1.00  0.00     0.018 A 
HETATM    8  C   UNL     1      42.660  -8.599   9.625  1.00  0.00     0.004 A 
HETATM    9  C   UNL     1      42.392  -7.258   9.891  1.00  0.00     0.043 A 
HETATM   10  C   UNL     1      43.048  -9.429  10.700  1.00  0.00     0.014 A 
HETATM   11  C   UNL     1      42.496  -6.701  11.173  1.00  0.00     0.030 A 
HETATM   12  N   UNL     1      42.033  -6.676   8.701  1.00  0.00    -0.358 N 
HETATM   13  C   UNL     1      42.886  -7.544  12.217  1.00  0.00     0.002 A 
HETATM   14  C   UNL     1      43.156  -8.890  11.988  1.00  0.00     0.001 A 
HETATM   15  H   UNL     1      41.781  -5.703   8.598  1.00  0.00     0.166 HD
HETATM   16  C   UNL     1      42.065  -7.593   7.679  1.00  0.00     0.018 A 
HETATM   17  C   UNL     1      41.723  -7.202   6.286  1.00  0.00     0.069 C 
ENDBRANCH   6   7
ENDBRANCH   2   5
BRANCH   1  18
HETATM   18  C   UNL     1      41.395 -14.060   5.363  1.00  0.00     0.033 A 
HETATM   19  C   UNL     1      40.749 -15.298   5.455  1.00  0.00     0.019 A 
HETATM   20  C   UNL     1      41.223 -16.398   4.727  1.00  0.00     0.030 A 
HETATM   21  C   UNL     1      42.339 -16.277   3.895  1.00  0.00     0.034 A 
HETATM   22  C   UNL     1      42.984 -15.036   3.808  1.00  0.00     0.030 A 
HETATM   23  C   UNL     1      42.512 -13.934   4.529  1.00  0.00     0.019 A 
BRANCH  21  24
HETATM   24  N   UNL     1      42.859 -17.326   3.111  1.00  0.00    -0.327 N 
HETATM   25  C   UNL     1      43.742 -18.315   3.506  1.00  0.00     0.221 C 
HETATM   26  O   UNL     1      44.270 -18.421   4.608  1.00  0.00    -0.273 OA
HETATM   27  H   UNL     1      42.519 -17.372   2.160  1.00  0.00     0.169 HD
BRANCH  25  28
HETATM   28  C   UNL     1      44.069 -19.306   2.399  1.00  0.00     0.098 C 
HETATM   29  C   UNL     1      42.909 -20.224   2.051  1.00  0.00     0.014 C 
ENDBRANCH  25  28
ENDBRANCH  21  24
ENDBRANCH   1  18
TORSDOF 5
ENDMDL
MODEL 9
REMARK VINA RESULT:      -7.2      7.220     10.499
REMARK  5 active torsions:
REMARK  status: ('A' for Active; 'I' for Inactive)
REMARK    1  A    between atoms: C_2  and  C_3 
REMARK       I    between atoms: C_3  and  N_4 
REMARK    2  A    between atoms: N_4  and  C_5 
REMARK    3  A    between atoms: C_8  and  C_9 
REMARK       I    between atoms: C_9  and  N_10 
REMARK    4  A    between atoms: N_10  and  N_11 
REMARK    5  A    between atoms: C_12  and  C_13 
ROOT
HETATM    1  C   UNL     1      40.691 -13.884   0.126  1.00  0.00     0.271 C 
HETATM    2  N   UNL     1      41.481 -12.837  -0.332  1.00  0.00    -0.243 N 
HETATM    3  O   UNL     1      39.544 -14.131  -0.235  1.00  0.00    -0.266 OA
HETATM    4  H   UNL     1      42.487 -12.900  -0.212  1.00  0.00     0.192 HD
ENDROOT
BRANCH   2   5
HETATM    5  N   UNL     1      41.109 -11.886  -1.251  1.00  0.00    -0.183 NA
HETATM    6  C   UNL     1      41.037 -10.650  -0.871  1.00  0.00     0.153 C 
BRANCH   6   7
HETATM    7  C   UNL     1      40.632  -9.614  -1.808  1.00  0.00     0.018 A 
HETATM    8  C   UNL     1      41.434  -8.491  -2.204  1.00  0.00     0.004 A 
HETATM    9  C   UNL     1      40.695  -7.750  -3.125  1.00  0.00     0.043 A 
HETATM   10  C   UNL     1      42.725  -8.035  -1.862  1.00  0.00     0.014 A 
HETATM   11  C   UNL     1      41.180  -6.580  -3.724  1.00  0.00     0.030 A 
HETATM   12  N   UNL     1      39.489  -8.388  -3.279  1.00  0.00    -0.358 N 
HETATM   13  C   UNL     1      42.463  -6.154  -3.370  1.00  0.00     0.002 A 
HETATM   14  C   UNL     1      43.227  -6.867  -2.451  1.00  0.00     0.001 A 
HETATM   15  H   UNL     1      38.751  -8.067  -3.889  1.00  0.00     0.166 HD
HETATM   16  C   UNL     1      39.429  -9.515  -2.497  1.00  0.00     0.018 A 
HETATM   17  C   UNL     1      38.223 -10.385  -2.494  1.00  0.00     0.069 C 
ENDBRANCH   6   7
ENDBRANCH   2   5
BRANCH   1  18
HETATM   18  C   UNL     1      41.336 -14.784   1.125  1.00  0.00     0.033 A 
HETATM   19  C   UNL     1      42.644 -14.583   1.577  1.00  0.00     0.019 A 
HETATM   20  C   UNL     1      43.190 -15.425   2.556  1.00  0.00     0.030 A 
HETATM   21  C   UNL     1      42.440 -16.470   3.099  1.00  0.00     0.034 A 
HETATM   22  C   UNL     1      41.131 -16.670   2.641  1.00  0.00     0.030 A 
HETATM   23  C   UNL     1      40.580 -15.829   1.667  1.00  0.00     0.019 A 
BRANCH  21  24
HETATM   24  N   UNL     1      42.906 -17.342   4.103  1.00  0.00    -0.327 N 
HETATM   25  C   UNL     1      43.736 -18.437   3.950  1.00  0.00     0.221 C 
HETATM   26  O   UNL     1      44.175 -18.875   2.891  1.00  0.00    -0.273 OA
HETATM   27  H   UNL     1      42.621 -17.115   5.047  1.00  0.00     0.169 HD
BRANCH  25  28
HETATM   28  C   UNL     1      44.060 -19.136   5.262  1.00  0.00     0.098 C 
HETATM   29  C   UNL     1      44.143 -20.648   5.134  1.00  0.00     0.014 C 
ENDBRANCH  25  28
ENDBRANCH  21  24
ENDBRANCH   1  18
TORSDOF 5
ENDMDL
MODEL 10
REMARK VINA RESULT:      -7.2      6.190     10.995
REMARK  5 active torsions:
REMARK  status: ('A' for Active; 'I' for Inactive)
REMARK    1  A    between atoms: C_2  and  C_3 
REMARK       I    between atoms: C_3  and  N_4 
REMARK    2  A    between atoms: N_4  and  C_5 
REMARK    3  A    between atoms: C_8  and  C_9 
REMARK       I    between atoms: C_9  and  N_10 
REMARK    4  A    between atoms: N_10  and  N_11 
REMARK    5  A    between atoms: C_12  and  C_13 
ROOT
HETATM    1  C   UNL     1      38.802 -11.861   0.649  1.00  0.00     0.271 C 
HETATM    2  N   UNL     1      39.400 -13.114   0.705  1.00  0.00    -0.243 N 
HETATM    3  O   UNL     1      38.940 -10.961   1.471  1.00  0.00    -0.266 OA
HETATM    4  H   UNL     1      39.473 -13.655  -0.151  1.00  0.00     0.192 HD
ENDROOT
BRANCH   2   5
HETATM    5  N   UNL     1      40.229 -13.569   1.701  1.00  0.00    -0.183 NA
HETATM    6  C   UNL     1      39.917 -14.665   2.316  1.00  0.00     0.153 C 
BRANCH   6   7
HETATM    7  C   UNL     1      40.759 -15.174   3.387  1.00  0.00     0.018 A 
HETATM    8  C   UNL     1      41.699 -16.252   3.266  1.00  0.00     0.004 A 
HETATM    9  C   UNL     1      42.314 -16.416   4.506  1.00  0.00     0.043 A 
HETATM   10  C   UNL     1      42.085 -17.107   2.210  1.00  0.00     0.014 A 
HETATM   11  C   UNL     1      43.296 -17.386   4.745  1.00  0.00     0.030 A 
HETATM   12  N   UNL     1      41.767 -15.483   5.352  1.00  0.00    -0.358 N 
HETATM   13  C   UNL     1      43.661 -18.216   3.682  1.00  0.00     0.002 A 
HETATM   14  C   UNL     1      43.064 -18.083   2.432  1.00  0.00     0.001 A 
HETATM   15  H   UNL     1      42.027 -15.377   6.322  1.00  0.00     0.166 HD
HETATM   16  C   UNL     1      40.829 -14.722   4.700  1.00  0.00     0.018 A 
HETATM   17  C   UNL     1      40.099 -13.635   5.403  1.00  0.00     0.069 C 
ENDBRANCH   6   7
ENDBRANCH   2   5
BRANCH   1  18
HETATM   18  C   UNL     1      37.946 -11.612  -0.548  1.00  0.00     0.033 A 
HETATM   19  C   UNL     1      37.174 -10.454  -0.687  1.00  0.00     0.019 A 
HETATM   20  C   UNL     1      36.426 -10.240  -1.853  1.00  0.00     0.030 A 
HETATM   21  C   UNL     1      36.443 -11.171  -2.893  1.00  0.00     0.034 A 
HETATM   22  C   UNL     1      37.215 -12.331  -2.748  1.00  0.00     0.030 A 
HETATM   23  C   UNL     1      37.967 -12.547  -1.588  1.00  0.00     0.019 A 
BRANCH  21  24
HETATM   24  N   UNL     1      35.742 -11.016  -4.106  1.00  0.00    -0.327 N 
HETATM   25  C   UNL     1      34.454 -11.430  -4.393  1.00  0.00     0.221 C 
HETATM   26  O   UNL     1      33.707 -12.057  -3.647  1.00  0.00    -0.273 OA
HETATM   27  H   UNL     1      36.232 -10.517  -4.835  1.00  0.00     0.169 HD
BRANCH  25  28
HETATM   28  C   UNL     1      34.005 -11.070  -5.801  1.00  0.00     0.098 C 
HETATM   29  C   UNL     1      34.874 -10.009  -6.456  1.00  0.00     0.014 C 
ENDBRANCH  25  28
ENDBRANCH  21  24
ENDBRANCH   1  18
TORSDOF 5
ENDMDL
