MODEL 1
REMARK VINA RESULT:     -10.1      0.000      0.000
REMARK  5 active torsions:
REMARK  status: ('A' for Active; 'I' for Inactive)
REMARK    1  A    between atoms: C_4  and  C_5 
REMARK    2  A    between atoms: C_5  and  C_6 
REMARK    3  A    between atoms: N_15  and  N_16 
REMARK       I    between atoms: N_16  and  C_17 
REMARK    4  A    between atoms: C_17  and  C_18 
REMARK    5  A    between atoms: C_18  and  C_19 
ROOT
HETATM    1  C   UNL     1      42.371 -16.364   3.652  1.00  0.00     0.173 A 
HETATM    2  N   UNL     1      40.919 -16.397   3.540  1.00  0.00    -0.315 N 
HETATM    3  C   UNL     1      40.442 -15.602   2.526  1.00  0.00     0.346 A 
HETATM    4  O   UNL     1      39.264 -15.515   2.216  1.00  0.00    -0.245 OA
HETATM    5  N   UNL     1      41.507 -15.001   1.921  1.00  0.00    -0.167 N 
HETATM    6  C   UNL     1      42.706 -15.441   2.433  1.00  0.00     0.285 A 
HETATM    7  O   UNL     1      43.825 -15.179   2.004  1.00  0.00    -0.267 OA
HETATM    8  H   UNL     1      40.301 -16.872   4.181  1.00  0.00     0.166 HD
ENDROOT
BRANCH   5   9
HETATM    9  N   UNL     1      41.390 -14.236   0.766  1.00  0.00    -0.256 N 
HETATM   10  C   UNL     1      41.323 -12.861   0.914  1.00  0.00     0.242 C 
HETATM   11  O   UNL     1      41.416 -12.274   1.990  1.00  0.00    -0.271 OA
HETATM   12  H   UNL     1      40.774 -14.640   0.060  1.00  0.00     0.191 HD
BRANCH  10  13
HETATM   13  C   UNL     1      41.266 -12.119  -0.402  1.00  0.00     0.166 C 
BRANCH  13  14
HETATM   14  C   UNL     1      39.883 -11.812  -0.934  1.00  0.00     0.074 A 
HETATM   15  N   UNL     1      39.334 -10.684  -0.597  1.00  0.00    -0.175 NA
HETATM   16  N   UNL     1      38.103 -10.388  -1.089  1.00  0.00    -0.243 N 
HETATM   17  C   UNL     1      37.359 -11.170  -1.939  1.00  0.00     0.272 A 
HETATM   18  H   UNL     1      37.716  -9.481  -0.834  1.00  0.00     0.192 HD
HETATM   19  O   UNL     1      36.265 -10.823  -2.369  1.00  0.00    -0.266 OA
HETATM   20  C   UNL     1      37.951 -12.467  -2.305  1.00  0.00     0.046 A 
HETATM   21  C   UNL     1      39.214 -12.800  -1.817  1.00  0.00     0.006 A 
HETATM   22  C   UNL     1      37.248 -13.355  -3.127  1.00  0.00     0.018 A 
HETATM   23  C   UNL     1      39.781 -14.034  -2.157  1.00  0.00     0.014 A 
HETATM   24  C   UNL     1      39.074 -14.926  -2.973  1.00  0.00     0.001 A 
HETATM   25  C   UNL     1      37.811 -14.588  -3.457  1.00  0.00     0.001 A 
ENDBRANCH  13  14
ENDBRANCH  10  13
ENDBRANCH   5   9
BRANCH   1  26
HETATM   26  C   UNL     1      42.709 -15.757   5.021  1.00  0.00    -0.016 A 
HETATM   27  C   UNL     1      43.348 -14.512   5.157  1.00  0.00     0.010 A 
HETATM   28  C   UNL     1      43.592 -13.965   6.421  1.00  0.00     0.001 A 
HETATM   29  C   UNL     1      43.199 -14.646   7.571  1.00  0.00     0.000 A 
HETATM   30  C   UNL     1      42.556 -15.873   7.461  1.00  0.00     0.001 A 
HETATM   31  C   UNL     1      42.306 -16.420   6.200  1.00  0.00     0.010 A 
ENDBRANCH   1  26
BRANCH   1  32
HETATM   32  C   UNL     1      43.012 -17.743   3.414  1.00  0.00    -0.016 A 
HETATM   33  C   UNL     1      43.931 -18.320   4.310  1.00  0.00     0.010 A 
HETATM   34  C   UNL     1      44.474 -19.584   4.064  1.00  0.00     0.001 A 
HETATM   35  C   UNL     1      44.108 -20.297   2.925  1.00  0.00     0.000 A 
HETATM   36  C   UNL     1      43.198 -19.748   2.028  1.00  0.00     0.001 A 
HETATM   37  C   UNL     1      42.655 -18.485   2.270  1.00  0.00     0.010 A 
ENDBRANCH   1  32
TORSDOF 5
ENDMDL
MODEL 2
REMARK VINA RESULT:     -10.1      3.894      8.480
REMARK  5 active torsions:
REMARK  status: ('A' for Active; 'I' for Inactive)
REMARK    1  A    between atoms: C_4  and  C_5 
REMARK    2  A    between atoms: C_5  and  C_6 
REMARK    3  A    between atoms: N_15  and  N_16 
REMARK       I    between atoms: N_16  and  C_17 
REMARK    4  A    between atoms: C_17  and  C_18 
REMARK    5  A    between atoms: C_18  and  C_19 
ROOT
HETATM    1  C   UNL     1      41.586 -15.507   3.505  1.00  0.00     0.173 A 
HETATM    2  N   UNL     1      40.533 -15.672   4.498  1.00  0.00    -0.315 N 
HETATM    3  C   UNL     1      40.644 -14.792   5.548  1.00  0.00     0.346 A 
HETATM    4  O   UNL     1      39.846 -14.713   6.468  1.00  0.00    -0.245 OA
HETATM    5  N   UNL     1      41.745 -14.014   5.335  1.00  0.00    -0.167 N 
HETATM    6  C   UNL     1      42.333 -14.276   4.118  1.00  0.00     0.285 A 
HETATM    7  O   UNL     1      43.253 -13.651   3.600  1.00  0.00    -0.267 OA
HETATM    8  H   UNL     1      39.837 -16.403   4.487  1.00  0.00     0.166 HD
ENDROOT
BRANCH   5   9
HETATM    9  N   UNL     1      42.072 -12.927   6.137  1.00  0.00    -0.256 N 
HETATM   10  C   UNL     1      41.514 -11.702   5.810  1.00  0.00     0.242 C 
HETATM   11  O   UNL     1      40.711 -11.527   4.896  1.00  0.00    -0.271 OA
HETATM   12  H   UNL     1      43.047 -12.908   6.437  1.00  0.00     0.191 HD
BRANCH  10  13
HETATM   13  C   UNL     1      41.876 -10.602   6.781  1.00  0.00     0.166 C 
BRANCH  13  14
HETATM   14  C   UNL     1      43.340 -10.496   7.153  1.00  0.00     0.074 A 
HETATM   15  N   UNL     1      44.224 -10.825   6.260  1.00  0.00    -0.175 NA
HETATM   16  N   UNL     1      45.540 -10.710   6.575  1.00  0.00    -0.243 N 
HETATM   17  C   UNL     1      46.052 -10.259   7.768  1.00  0.00     0.272 A 
HETATM   18  H   UNL     1      46.207 -10.942   5.842  1.00  0.00     0.192 HD
HETATM   19  O   UNL     1      47.256 -10.153   7.971  1.00  0.00    -0.266 OA
HETATM   20  C   UNL     1      45.065  -9.914   8.804  1.00  0.00     0.046 A 
HETATM   21  C   UNL     1      43.706 -10.020   8.511  1.00  0.00     0.006 A 
HETATM   22  C   UNL     1      45.491  -9.492  10.069  1.00  0.00     0.018 A 
HETATM   23  C   UNL     1      42.762  -9.698   9.493  1.00  0.00     0.014 A 
HETATM   24  C   UNL     1      43.188  -9.283  10.761  1.00  0.00     0.001 A 
HETATM   25  C   UNL     1      44.548  -9.181  11.049  1.00  0.00     0.001 A 
ENDBRANCH  13  14
ENDBRANCH  10  13
ENDBRANCH   5   9
BRANCH   1  26
HETATM   26  C   UNL     1      42.405 -16.806   3.490  1.00  0.00    -0.016 A 
HETATM   27  C   UNL     1      42.463 -17.648   2.365  1.00  0.00     0.010 A 
HETATM   28  C   UNL     1      43.262 -18.796   2.370  1.00  0.00     0.001 A 
HETATM   29  C   UNL     1      44.020 -19.123   3.492  1.00  0.00     0.000 A 
HETATM   30  C   UNL     1      43.986 -18.299   4.612  1.00  0.00     0.001 A 
HETATM   31  C   UNL     1      43.194 -17.149   4.609  1.00  0.00     0.010 A 
ENDBRANCH   1  26
BRANCH   1  32
HETATM   32  C   UNL     1      41.036 -15.110   2.124  1.00  0.00    -0.016 A 
HETATM   33  C   UNL     1      40.058 -15.863   1.448  1.00  0.00     0.010 A 
HETATM   34  C   UNL     1      39.573 -15.454   0.202  1.00  0.00     0.001 A 
HETATM   35  C   UNL     1      40.049 -14.286  -0.389  1.00  0.00     0.000 A 
HETATM   36  C   UNL     1      41.012 -13.524   0.264  1.00  0.00     0.001 A 
HETATM   37  C   UNL     1      41.500 -13.930   1.507  1.00  0.00     0.010 A 
ENDBRANCH   1  32
TORSDOF 5
ENDMDL
MODEL 3
REMARK VINA RESULT:     -10.1      1.253      1.907
REMARK  5 active torsions:
REMARK  status: ('A' for Active; 'I' for Inactive)
REMARK    1  A    between atoms: C_4  and  C_5 
REMARK    2  A    between atoms: C_5  and  C_6 
REMARK    3  A    between atoms: N_15  and  N_16 
REMARK       I    between atoms: N_16  and  C_17 
REMARK    4  A    between atoms: C_17  and  C_18 
REMARK    5  A    between atoms: C_18  and  C_19 
ROOT
HETATM    1  C   UNL     1      42.343 -16.400   3.650  1.00  0.00     0.173 A 
HETATM    2  N   UNL     1      40.890 -16.454   3.553  1.00  0.00    -0.315 N 
HETATM    3  C   UNL     1      40.394 -15.703   2.514  1.00  0.00     0.346 A 
HETATM    4  O   UNL     1      39.213 -15.642   2.211  1.00  0.00    -0.245 OA
HETATM    5  N   UNL     1      41.447 -15.113   1.877  1.00  0.00    -0.167 N 
HETATM    6  C   UNL     1      42.656 -15.519   2.394  1.00  0.00     0.285 A 
HETATM    7  O   UNL     1      43.767 -15.260   1.946  1.00  0.00    -0.267 OA
HETATM    8  H   UNL     1      40.284 -16.912   4.217  1.00  0.00     0.166 HD
ENDROOT
BRANCH   5   9
HETATM    9  N   UNL     1      41.310 -14.394   0.695  1.00  0.00    -0.256 N 
HETATM   10  C   UNL     1      41.132 -13.024   0.798  1.00  0.00     0.242 C 
HETATM   11  O   UNL     1      41.142 -12.401   1.857  1.00  0.00    -0.271 OA
HETATM   12  H   UNL     1      40.752 -14.865  -0.017  1.00  0.00     0.191 HD
BRANCH  10  13
HETATM   13  C   UNL     1      41.063 -12.328  -0.542  1.00  0.00     0.166 C 
BRANCH  13  14
HETATM   14  C   UNL     1      39.747 -12.437  -1.283  1.00  0.00     0.074 A 
HETATM   15  N   UNL     1      39.121 -13.575  -1.254  1.00  0.00    -0.175 NA
HETATM   16  N   UNL     1      37.927 -13.676  -1.895  1.00  0.00    -0.243 N 
HETATM   17  C   UNL     1      37.287 -12.673  -2.580  1.00  0.00     0.272 A 
HETATM   18  H   UNL     1      37.446 -14.570  -1.823  1.00  0.00     0.192 HD
HETATM   19  O   UNL     1      36.193 -12.829  -3.110  1.00  0.00    -0.266 OA
HETATM   20  C   UNL     1      37.998 -11.386  -2.653  1.00  0.00     0.046 A 
HETATM   21  C   UNL     1      39.225 -11.249  -2.004  1.00  0.00     0.006 A 
HETATM   22  C   UNL     1      37.449 -10.318  -3.371  1.00  0.00     0.018 A 
HETATM   23  C   UNL     1      39.908 -10.030  -2.073  1.00  0.00     0.014 A 
HETATM   24  C   UNL     1      39.363  -8.964  -2.798  1.00  0.00     0.001 A 
HETATM   25  C   UNL     1      38.137  -9.107  -3.446  1.00  0.00     0.001 A 
ENDBRANCH  13  14
ENDBRANCH  10  13
ENDBRANCH   5   9
BRANCH   1  26
HETATM   26  C   UNL     1      42.685 -15.737   4.993  1.00  0.00    -0.016 A 
HETATM   27  C   UNL     1      43.296 -14.473   5.075  1.00  0.00     0.010 A 
HETATM   28  C   UNL     1      43.545 -13.877   6.316  1.00  0.00     0.001 A 
HETATM   29  C   UNL     1      43.184 -14.527   7.495  1.00  0.00     0.000 A 
HETATM   30  C   UNL     1      42.569 -15.772   7.437  1.00  0.00     0.001 A 
HETATM   31  C   UNL     1      42.314 -16.368   6.200  1.00  0.00     0.010 A 
ENDBRANCH   1  26
BRANCH   1  32
HETATM   32  C   UNL     1      42.999 -17.778   3.459  1.00  0.00    -0.016 A 
HETATM   33  C   UNL     1      43.851 -18.356   4.418  1.00  0.00     0.010 A 
HETATM   34  C   UNL     1      44.410 -19.620   4.211  1.00  0.00     0.001 A 
HETATM   35  C   UNL     1      44.126 -20.333   3.049  1.00  0.00     0.000 A 
HETATM   36  C   UNL     1      43.282 -19.783   2.089  1.00  0.00     0.001 A 
HETATM   37  C   UNL     1      42.724 -18.520   2.292  1.00  0.00     0.010 A 
ENDBRANCH   1  32
TORSDOF 5
ENDMDL
MODEL 4
REMARK VINA RESULT:     -10.0      4.476      8.415
REMARK  5 active torsions:
REMARK  status: ('A' for Active; 'I' for Inactive)
REMARK    1  A    between atoms: C_4  and  C_5 
REMARK    2  A    between atoms: C_5  and  C_6 
REMARK    3  A    between atoms: N_15  and  N_16 
REMARK       I    between atoms: N_16  and  C_17 
REMARK    4  A    between atoms: C_17  and  C_18 
REMARK    5  A    between atoms: C_18  and  C_19 
ROOT
HETATM    1  C   UNL     1      41.570 -14.808   4.188  1.00  0.00     0.173 A 
HETATM    2  N   UNL     1      40.447 -14.746   5.114  1.00  0.00    -0.315 N 
HETATM    3  C   UNL     1      40.521 -13.678   5.975  1.00  0.00     0.346 A 
HETATM    4  O   UNL     1      39.667 -13.398   6.801  1.00  0.00    -0.245 OA
HETATM    5  N   UNL     1      41.664 -12.985   5.695  1.00  0.00    -0.167 N 
HETATM    6  C   UNL     1      42.321 -13.498   4.601  1.00  0.00     0.285 A 
HETATM    7  O   UNL     1      43.297 -13.012   4.039  1.00  0.00    -0.267 OA
HETATM    8  H   UNL     1      39.726 -15.447   5.196  1.00  0.00     0.166 HD
ENDROOT
BRANCH   5   9
HETATM    9  N   UNL     1      41.978 -11.769   6.289  1.00  0.00    -0.256 N 
HETATM   10  C   UNL     1      41.501 -10.619   5.682  1.00  0.00     0.242 C 
HETATM   11  O   UNL     1      40.778 -10.608   4.688  1.00  0.00    -0.271 OA
HETATM   12  H   UNL     1      42.927 -11.718   6.659  1.00  0.00     0.191 HD
BRANCH  10  13
HETATM   13  C   UNL     1      41.839  -9.357   6.442  1.00  0.00     0.166 C 
BRANCH  13  14
HETATM   14  C   UNL     1      41.788  -9.454   7.952  1.00  0.00     0.074 A 
HETATM   15  N   UNL     1      40.622  -9.501   8.523  1.00  0.00    -0.175 NA
HETATM   16  N   UNL     1      40.566  -9.613   9.876  1.00  0.00    -0.243 N 
HETATM   17  C   UNL     1      41.640  -9.696  10.728  1.00  0.00     0.272 A 
HETATM   18  H   UNL     1      39.638  -9.683  10.289  1.00  0.00     0.192 HD
HETATM   19  O   UNL     1      41.512  -9.827  11.940  1.00  0.00    -0.266 OA
HETATM   20  C   UNL     1      42.968  -9.610  10.101  1.00  0.00     0.046 A 
HETATM   21  C   UNL     1      43.060  -9.496   8.715  1.00  0.00     0.006 A 
HETATM   22  C   UNL     1      44.123  -9.635  10.892  1.00  0.00     0.018 A 
HETATM   23  C   UNL     1      44.321  -9.408   8.113  1.00  0.00     0.014 A 
HETATM   24  C   UNL     1      45.475  -9.426   8.904  1.00  0.00     0.001 A 
HETATM   25  C   UNL     1      45.377  -9.539  10.290  1.00  0.00     0.001 A 
ENDBRANCH  13  14
ENDBRANCH  10  13
ENDBRANCH   5   9
BRANCH   1  26
HETATM   26  C   UNL     1      42.337 -16.104   4.489  1.00  0.00    -0.016 A 
HETATM   27  C   UNL     1      43.113 -16.763   3.519  1.00  0.00     0.010 A 
HETATM   28  C   UNL     1      43.840 -17.913   3.844  1.00  0.00     0.001 A 
HETATM   29  C   UNL     1      43.813 -18.422   5.140  1.00  0.00     0.000 A 
HETATM   30  C   UNL     1      43.061 -17.780   6.118  1.00  0.00     0.001 A 
HETATM   31  C   UNL     1      42.337 -16.629   5.799  1.00  0.00     0.010 A 
ENDBRANCH   1  26
BRANCH   1  32
HETATM   32  C   UNL     1      41.130 -14.680   2.719  1.00  0.00    -0.016 A 
HETATM   33  C   UNL     1      41.538 -13.616   1.892  1.00  0.00     0.010 A 
HETATM   34  C   UNL     1      41.130 -13.550   0.557  1.00  0.00     0.001 A 
HETATM   35  C   UNL     1      40.314 -14.542   0.021  1.00  0.00     0.000 A 
HETATM   36  C   UNL     1      39.902 -15.605   0.818  1.00  0.00     0.001 A 
HETATM   37  C   UNL     1      40.306 -15.674   2.152  1.00  0.00     0.010 A 
ENDBRANCH   1  32
TORSDOF 5
ENDMDL
MODEL 5
REMARK VINA RESULT:      -9.8      4.405      8.896
REMARK  5 active torsions:
REMARK  status: ('A' for Active; 'I' for Inactive)
REMARK    1  A    between atoms: C_4  and  C_5 
REMARK    2  A    between atoms: C_5  and  C_6 
REMARK    3  A    between atoms: N_15  and  N_16 
REMARK       I    between atoms: N_16  and  C_17 
REMARK    4  A    between atoms: C_17  and  C_18 
REMARK    5  A    between atoms: C_18  and  C_19 
ROOT
HETATM    1  C   UNL     1      40.562 -13.613   2.196  1.00  0.00     0.173 A 
HETATM    2  N   UNL     1      39.637 -13.822   3.302  1.00  0.00    -0.315 N 
HETATM    3  C   UNL     1      39.757 -12.874   4.289  1.00  0.00     0.346 A 
HETATM    4  O   UNL     1      39.051 -12.821   5.283  1.00  0.00    -0.245 OA
HETATM    5  N   UNL     1      40.743 -12.003   3.923  1.00  0.00    -0.167 N 
HETATM    6  C   UNL     1      41.231 -12.278   2.666  1.00  0.00     0.285 A 
HETATM    7  O   UNL     1      42.022 -11.595   2.023  1.00  0.00    -0.267 OA
HETATM    8  H   UNL     1      39.025 -14.620   3.400  1.00  0.00     0.166 HD
ENDROOT
BRANCH   5   9
HETATM    9  N   UNL     1      41.029 -10.842   4.630  1.00  0.00    -0.256 N 
HETATM   10  C   UNL     1      41.981 -10.924   5.634  1.00  0.00     0.242 C 
HETATM   11  O   UNL     1      42.623 -11.937   5.899  1.00  0.00    -0.271 OA
HETATM   12  H   UNL     1      40.212 -10.267   4.836  1.00  0.00     0.191 HD
BRANCH  10  13
HETATM   13  C   UNL     1      42.268  -9.595   6.295  1.00  0.00     0.166 C 
BRANCH  13  14
HETATM   14  C   UNL     1      42.091  -9.547   7.798  1.00  0.00     0.074 A 
HETATM   15  N   UNL     1      40.882  -9.490   8.270  1.00  0.00    -0.175 NA
HETATM   16  N   UNL     1      40.710  -9.472   9.617  1.00  0.00    -0.243 N 
HETATM   17  C   UNL     1      41.706  -9.519  10.562  1.00  0.00     0.272 A 
HETATM   18  H   UNL     1      39.750  -9.463   9.955  1.00  0.00     0.192 HD
HETATM   19  O   UNL     1      41.474  -9.530  11.766  1.00  0.00    -0.266 OA
HETATM   20  C   UNL     1      43.084  -9.550  10.046  1.00  0.00     0.046 A 
HETATM   21  C   UNL     1      43.294  -9.571   8.668  1.00  0.00     0.006 A 
HETATM   22  C   UNL     1      44.168  -9.550  10.931  1.00  0.00     0.018 A 
HETATM   23  C   UNL     1      44.602  -9.595   8.170  1.00  0.00     0.014 A 
HETATM   24  C   UNL     1      45.686  -9.587   9.055  1.00  0.00     0.001 A 
HETATM   25  C   UNL     1      45.470  -9.564  10.433  1.00  0.00     0.001 A 
ENDBRANCH  13  14
ENDBRANCH  10  13
ENDBRANCH   5   9
BRANCH   1  26
HETATM   26  C   UNL     1      41.509 -14.821   2.160  1.00  0.00    -0.016 A 
HETATM   27  C   UNL     1      42.806 -14.746   1.621  1.00  0.00     0.010 A 
HETATM   28  C   UNL     1      43.660 -15.853   1.652  1.00  0.00     0.001 A 
HETATM   29  C   UNL     1      43.241 -17.050   2.227  1.00  0.00     0.000 A 
HETATM   30  C   UNL     1      41.968 -17.144   2.777  1.00  0.00     0.001 A 
HETATM   31  C   UNL     1      41.113 -16.039   2.751  1.00  0.00     0.010 A 
ENDBRANCH   1  26
BRANCH   1  32
HETATM   32  C   UNL     1      39.838 -13.357   0.862  1.00  0.00    -0.016 A 
HETATM   33  C   UNL     1      39.912 -14.246  -0.226  1.00  0.00     0.010 A 
HETATM   34  C   UNL     1      39.222 -13.983  -1.413  1.00  0.00     0.001 A 
HETATM   35  C   UNL     1      38.444 -12.834  -1.535  1.00  0.00     0.000 A 
HETATM   36  C   UNL     1      38.353 -11.945  -0.470  1.00  0.00     0.001 A 
HETATM   37  C   UNL     1      39.042 -12.203   0.716  1.00  0.00     0.010 A 
ENDBRANCH   1  32
TORSDOF 5
ENDMDL
MODEL 6
REMARK VINA RESULT:      -9.7      4.687      9.043
REMARK  5 active torsions:
REMARK  status: ('A' for Active; 'I' for Inactive)
REMARK    1  A    between atoms: C_4  and  C_5 
REMARK    2  A    between atoms: C_5  and  C_6 
REMARK    3  A    between atoms: N_15  and  N_16 
REMARK       I    between atoms: N_16  and  C_17 
REMARK    4  A    between atoms: C_17  and  C_18 
REMARK    5  A    between atoms: C_18  and  C_19 
ROOT
HETATM    1  C   UNL     1      40.563 -13.500   2.633  1.00  0.00     0.173 A 
HETATM    2  N   UNL     1      39.682 -13.776   3.760  1.00  0.00    -0.315 N 
HETATM    3  C   UNL     1      39.875 -12.915   4.813  1.00  0.00     0.346 A 
HETATM    4  O   UNL     1      39.215 -12.925   5.841  1.00  0.00    -0.245 OA
HETATM    5  N   UNL     1      40.869 -12.044   4.474  1.00  0.00    -0.167 N 
HETATM    6  C   UNL     1      41.292 -12.226   3.177  1.00  0.00     0.285 A 
HETATM    7  O   UNL     1      42.075 -11.515   2.556  1.00  0.00    -0.267 OA
HETATM    8  H   UNL     1      39.052 -14.562   3.822  1.00  0.00     0.166 HD
ENDROOT
BRANCH   5   9
HETATM    9  N   UNL     1      41.222 -10.953   5.259  1.00  0.00    -0.256 N 
HETATM   10  C   UNL     1      42.299 -11.104   6.117  1.00  0.00     0.242 C 
HETATM   11  O   UNL     1      42.992 -12.116   6.187  1.00  0.00    -0.271 OA
HETATM   12  H   UNL     1      40.426 -10.431   5.629  1.00  0.00     0.191 HD
BRANCH  10  13
HETATM   13  C   UNL     1      42.643  -9.842   6.874  1.00  0.00     0.166 C 
BRANCH  13  14
HETATM   14  C   UNL     1      41.783  -9.535   8.082  1.00  0.00     0.074 A 
HETATM   15  N   UNL     1      40.498  -9.450   7.913  1.00  0.00    -0.175 NA
HETATM   16  N   UNL     1      39.715  -9.199   8.995  1.00  0.00    -0.243 N 
HETATM   17  C   UNL     1      40.148  -9.032  10.288  1.00  0.00     0.272 A 
HETATM   18  H   UNL     1      38.710  -9.174   8.835  1.00  0.00     0.192 HD
HETATM   19  O   UNL     1      39.379  -8.838  11.222  1.00  0.00    -0.266 OA
HETATM   20  C   UNL     1      41.605  -9.090  10.493  1.00  0.00     0.046 A 
HETATM   21  C   UNL     1      42.435  -9.348   9.403  1.00  0.00     0.006 A 
HETATM   22  C   UNL     1      42.145  -8.883  11.767  1.00  0.00     0.018 A 
HETATM   23  C   UNL     1      43.821  -9.400   9.590  1.00  0.00     0.014 A 
HETATM   24  C   UNL     1      44.363  -9.184  10.862  1.00  0.00     0.001 A 
HETATM   25  C   UNL     1      43.527  -8.926  11.949  1.00  0.00     0.001 A 
ENDBRANCH  13  14
ENDBRANCH  10  13
ENDBRANCH   5   9
BRANCH   1  26
HETATM   26  C   UNL     1      41.471 -14.725   2.455  1.00  0.00    -0.016 A 
HETATM   27  C   UNL     1      41.055 -16.026   2.788  1.00  0.00     0.010 A 
HETATM   28  C   UNL     1      41.891 -17.126   2.563  1.00  0.00     0.001 A 
HETATM   29  C   UNL     1      43.151 -16.949   1.997  1.00  0.00     0.000 A 
HETATM   30  C   UNL     1      43.579 -15.673   1.649  1.00  0.00     0.001 A 
HETATM   31  C   UNL     1      42.746 -14.574   1.868  1.00  0.00     0.010 A 
ENDBRANCH   1  26
BRANCH   1  32
HETATM   32  C   UNL     1      39.789 -13.116   1.359  1.00  0.00    -0.016 A 
HETATM   33  C   UNL     1      38.913 -12.016   1.303  1.00  0.00     0.010 A 
HETATM   34  C   UNL     1      38.245 -11.692   0.119  1.00  0.00     0.001 A 
HETATM   35  C   UNL     1      38.441 -12.454  -1.030  1.00  0.00     0.000 A 
HETATM   36  C   UNL     1      39.306 -13.543  -0.999  1.00  0.00     0.001 A 
HETATM   37  C   UNL     1      39.974 -13.871   0.183  1.00  0.00     0.010 A 
ENDBRANCH   1  32
TORSDOF 5
ENDMDL
MODEL 7
REMARK VINA RESULT:      -9.5      2.469      9.180
REMARK  5 active torsions:
REMARK  status: ('A' for Active; 'I' for Inactive)
REMARK    1  A    between atoms: C_4  and  C_5 
REMARK    2  A    between atoms: C_5  and  C_6 
REMARK    3  A    between atoms: N_15  and  N_16 
REMARK       I    between atoms: N_16  and  C_17 
REMARK    4  A    between atoms: C_17  and  C_18 
REMARK    5  A    between atoms: C_18  and  C_19 
ROOT
HETATM    1  C   UNL     1      40.234 -10.333  -0.991  1.00  0.00     0.173 A 
HETATM    2  N   UNL     1      40.156 -10.150   0.453  1.00  0.00    -0.315 N 
HETATM    3  C   UNL     1      40.646 -11.223   1.156  1.00  0.00     0.346 A 
HETATM    4  O   UNL     1      40.729 -11.269   2.374  1.00  0.00    -0.245 OA
HETATM    5  N   UNL     1      41.062 -12.165   0.260  1.00  0.00    -0.167 N 
HETATM    6  C   UNL     1      40.957 -11.721  -1.038  1.00  0.00     0.285 A 
HETATM    7  O   UNL     1      41.371 -12.291  -2.042  1.00  0.00    -0.267 OA
HETATM    8  H   UNL     1      39.713  -9.368   0.912  1.00  0.00     0.166 HD
ENDROOT
BRANCH   5   9
HETATM    9  N   UNL     1      41.738 -13.320   0.633  1.00  0.00    -0.256 N 
HETATM   10  C   UNL     1      40.976 -14.435   0.941  1.00  0.00     0.242 C 
HETATM   11  O   UNL     1      39.751 -14.484   0.853  1.00  0.00    -0.271 OA
HETATM   12  H   UNL     1      42.549 -13.154   1.230  1.00  0.00     0.191 HD
BRANCH  10  13
HETATM   13  C   UNL     1      41.806 -15.656   1.268  1.00  0.00     0.166 C 
BRANCH  13  14
HETATM   14  C   UNL     1      42.401 -15.705   2.659  1.00  0.00     0.074 A 
HETATM   15  N   UNL     1      42.343 -14.631   3.388  1.00  0.00    -0.175 NA
HETATM   16  N   UNL     1      42.852 -14.671   4.647  1.00  0.00    -0.243 N 
HETATM   17  C   UNL     1      43.427 -15.761   5.254  1.00  0.00     0.272 A 
HETATM   18  H   UNL     1      42.759 -13.824   5.203  1.00  0.00     0.192 HD
HETATM   19  O   UNL     1      43.838 -15.732   6.408  1.00  0.00    -0.266 OA
HETATM   20  C   UNL     1      43.532 -16.977   4.432  1.00  0.00     0.046 A 
HETATM   21  C   UNL     1      43.018 -16.968   3.136  1.00  0.00     0.006 A 
HETATM   22  C   UNL     1      44.147 -18.124   4.946  1.00  0.00     0.018 A 
HETATM   23  C   UNL     1      43.119 -18.120   2.347  1.00  0.00     0.014 A 
HETATM   24  C   UNL     1      43.741 -19.264   2.858  1.00  0.00     0.001 A 
HETATM   25  C   UNL     1      44.255 -19.267   4.155  1.00  0.00     0.001 A 
ENDBRANCH  13  14
ENDBRANCH  10  13
ENDBRANCH   5   9
BRANCH   1  26
HETATM   26  C   UNL     1      38.794 -10.348  -1.526  1.00  0.00    -0.016 A 
HETATM   27  C   UNL     1      38.293 -11.401  -2.311  1.00  0.00     0.010 A 
HETATM   28  C   UNL     1      36.961 -11.405  -2.737  1.00  0.00     0.001 A 
HETATM   29  C   UNL     1      36.104 -10.366  -2.384  1.00  0.00     0.000 A 
HETATM   30  C   UNL     1      36.575  -9.320  -1.598  1.00  0.00     0.001 A 
HETATM   31  C   UNL     1      37.903  -9.314  -1.167  1.00  0.00     0.010 A 
ENDBRANCH   1  26
BRANCH   1  32
HETATM   32  C   UNL     1      41.134  -9.287  -1.671  1.00  0.00    -0.016 A 
HETATM   33  C   UNL     1      42.212  -8.667  -1.012  1.00  0.00     0.010 A 
HETATM   34  C   UNL     1      43.016  -7.736  -1.675  1.00  0.00     0.001 A 
HETATM   35  C   UNL     1      42.763  -7.409  -3.005  1.00  0.00     0.000 A 
HETATM   36  C   UNL     1      41.706  -8.012  -3.676  1.00  0.00     0.001 A 
HETATM   37  C   UNL     1      40.900  -8.942  -3.017  1.00  0.00     0.010 A 
ENDBRANCH   1  32
TORSDOF 5
ENDMDL
MODEL 8
REMARK VINA RESULT:      -9.5      5.101      9.665
REMARK  5 active torsions:
REMARK  status: ('A' for Active; 'I' for Inactive)
REMARK    1  A    between atoms: C_4  and  C_5 
REMARK    2  A    between atoms: C_5  and  C_6 
REMARK    3  A    between atoms: N_15  and  N_16 
REMARK       I    between atoms: N_16  and  C_17 
REMARK    4  A    between atoms: C_17  and  C_18 
REMARK    5  A    between atoms: C_18  and  C_19 
ROOT
HETATM    1  C   UNL     1      41.772 -12.659   3.073  1.00  0.00     0.173 A 
HETATM    2  N   UNL     1      40.751 -12.657   4.112  1.00  0.00    -0.315 N 
HETATM    3  C   UNL     1      41.163 -12.035   5.266  1.00  0.00     0.346 A 
HETATM    4  O   UNL     1      40.457 -11.869   6.248  1.00  0.00    -0.245 OA
HETATM    5  N   UNL     1      42.444 -11.603   5.082  1.00  0.00    -0.167 N 
HETATM    6  C   UNL     1      42.884 -11.828   3.797  1.00  0.00     0.285 A 
HETATM    7  O   UNL     1      43.936 -11.435   3.305  1.00  0.00    -0.267 OA
HETATM    8  H   UNL     1      39.862 -13.131   4.050  1.00  0.00     0.166 HD
ENDROOT
BRANCH   5   9
HETATM    9  N   UNL     1      43.117 -10.811   6.005  1.00  0.00    -0.256 N 
HETATM   10  C   UNL     1      43.936 -11.451   6.920  1.00  0.00     0.242 C 
HETATM   11  O   UNL     1      44.148 -12.662   6.932  1.00  0.00    -0.271 OA
HETATM   12  H   UNL     1      42.564 -10.033   6.368  1.00  0.00     0.191 HD
BRANCH  10  13
HETATM   13  C   UNL     1      44.673 -10.499   7.833  1.00  0.00     0.166 C 
BRANCH  13  14
HETATM   14  C   UNL     1      44.062 -10.280   9.201  1.00  0.00     0.074 A 
HETATM   15  N   UNL     1      43.950 -11.304   9.992  1.00  0.00    -0.175 NA
HETATM   16  N   UNL     1      43.425 -11.113  11.231  1.00  0.00    -0.243 N 
HETATM   17  C   UNL     1      43.000  -9.918  11.756  1.00  0.00     0.272 A 
HETATM   18  H   UNL     1      43.384 -11.929  11.838  1.00  0.00     0.192 HD
HETATM   19  O   UNL     1      42.565  -9.816  12.897  1.00  0.00    -0.266 OA
HETATM   20  C   UNL     1      43.088  -8.752  10.862  1.00  0.00     0.046 A 
HETATM   21  C   UNL     1      43.623  -8.914   9.584  1.00  0.00     0.006 A 
HETATM   22  C   UNL     1      42.633  -7.500  11.290  1.00  0.00     0.018 A 
HETATM   23  C   UNL     1      43.705  -7.811   8.727  1.00  0.00     0.014 A 
HETATM   24  C   UNL     1      43.243  -6.560   9.152  1.00  0.00     0.001 A 
HETATM   25  C   UNL     1      42.708  -6.405  10.430  1.00  0.00     0.001 A 
ENDBRANCH  13  14
ENDBRANCH  10  13
ENDBRANCH   5   9
BRANCH   1  26
HETATM   26  C   UNL     1      42.146 -14.124   2.804  1.00  0.00    -0.016 A 
HETATM   27  C   UNL     1      43.137 -14.491   1.877  1.00  0.00     0.010 A 
HETATM   28  C   UNL     1      43.488 -15.833   1.697  1.00  0.00     0.001 A 
HETATM   29  C   UNL     1      42.862 -16.831   2.441  1.00  0.00     0.000 A 
HETATM   30  C   UNL     1      41.887 -16.490   3.371  1.00  0.00     0.001 A 
HETATM   31  C   UNL     1      41.538 -15.151   3.557  1.00  0.00     0.010 A 
ENDBRANCH   1  26
BRANCH   1  32
HETATM   32  C   UNL     1      41.331 -11.894   1.812  1.00  0.00    -0.016 A 
HETATM   33  C   UNL     1      41.841 -10.627   1.473  1.00  0.00     0.010 A 
HETATM   34  C   UNL     1      41.427  -9.977   0.307  1.00  0.00     0.001 A 
HETATM   35  C   UNL     1      40.503 -10.579  -0.543  1.00  0.00     0.000 A 
HETATM   36  C   UNL     1      39.989 -11.833  -0.230  1.00  0.00     0.001 A 
HETATM   37  C   UNL     1      40.399 -12.484   0.934  1.00  0.00     0.010 A 
ENDBRANCH   1  32
TORSDOF 5
ENDMDL
MODEL 9
REMARK VINA RESULT:      -9.5     14.939     19.018
REMARK  5 active torsions:
REMARK  status: ('A' for Active; 'I' for Inactive)
REMARK    1  A    between atoms: C_4  and  C_5 
REMARK    2  A    between atoms: C_5  and  C_6 
REMARK    3  A    between atoms: N_15  and  N_16 
REMARK       I    between atoms: N_16  and  C_17 
REMARK    4  A    between atoms: C_17  and  C_18 
REMARK    5  A    between atoms: C_18  and  C_19 
ROOT
HETATM    1  C   UNL     1      44.986 -29.642  -0.133  1.00  0.00     0.173 A 
HETATM    2  N   UNL     1      45.394 -28.465   0.622  1.00  0.00    -0.315 N 
HETATM    3  C   UNL     1      46.608 -28.623   1.246  1.00  0.00     0.346 A 
HETATM    4  O   UNL     1      47.170 -27.751   1.890  1.00  0.00    -0.245 OA
HETATM    5  N   UNL     1      47.071 -29.875   0.964  1.00  0.00    -0.167 N 
HETATM    6  C   UNL     1      46.249 -30.542   0.084  1.00  0.00     0.285 A 
HETATM    7  O   UNL     1      46.471 -31.624  -0.448  1.00  0.00    -0.267 OA
HETATM    8  H   UNL     1      44.825 -27.643   0.763  1.00  0.00     0.166 HD
ENDROOT
BRANCH   5   9
HETATM    9  N   UNL     1      48.339 -30.314   1.326  1.00  0.00    -0.256 N 
HETATM   10  C   UNL     1      49.386 -30.018   0.469  1.00  0.00     0.242 C 
HETATM   11  O   UNL     1      49.275 -29.350  -0.557  1.00  0.00    -0.271 OA
HETATM   12  H   UNL     1      48.354 -31.244   1.746  1.00  0.00     0.191 HD
BRANCH  10  13
HETATM   13  C   UNL     1      50.730 -30.478   0.985  1.00  0.00     0.166 C 
BRANCH  13  14
HETATM   14  C   UNL     1      50.751 -31.819   1.688  1.00  0.00     0.074 A 
HETATM   15  N   UNL     1      50.578 -32.888   0.971  1.00  0.00    -0.175 NA
HETATM   16  N   UNL     1      50.620 -34.098   1.588  1.00  0.00    -0.243 N 
HETATM   17  C   UNL     1      50.843 -34.319   2.925  1.00  0.00     0.272 A 
HETATM   18  H   UNL     1      50.516 -34.917   0.992  1.00  0.00     0.192 HD
HETATM   19  O   UNL     1      50.898 -35.444   3.407  1.00  0.00    -0.266 OA
HETATM   20  C   UNL     1      51.008 -33.117   3.758  1.00  0.00     0.046 A 
HETATM   21  C   UNL     1      50.971 -31.861   3.155  1.00  0.00     0.006 A 
HETATM   22  C   UNL     1      51.191 -33.239   5.141  1.00  0.00     0.018 A 
HETATM   23  C   UNL     1      51.122 -30.714   3.943  1.00  0.00     0.014 A 
HETATM   24  C   UNL     1      51.297 -30.835   5.326  1.00  0.00     0.001 A 
HETATM   25  C   UNL     1      51.331 -32.094   5.924  1.00  0.00     0.001 A 
ENDBRANCH  13  14
ENDBRANCH  10  13
ENDBRANCH   5   9
BRANCH   1  26
HETATM   26  C   UNL     1      43.703 -30.179   0.518  1.00  0.00    -0.016 A 
HETATM   27  C   UNL     1      43.356 -31.541   0.488  1.00  0.00     0.010 A 
HETATM   28  C   UNL     1      42.206 -32.002   1.137  1.00  0.00     0.001 A 
HETATM   29  C   UNL     1      41.386 -31.116   1.831  1.00  0.00     0.000 A 
HETATM   30  C   UNL     1      41.715 -29.766   1.883  1.00  0.00     0.001 A 
HETATM   31  C   UNL     1      42.865 -29.303   1.241  1.00  0.00     0.010 A 
ENDBRANCH   1  26
BRANCH   1  32
HETATM   32  C   UNL     1      44.841 -29.356  -1.638  1.00  0.00    -0.016 A 
HETATM   33  C   UNL     1      44.182 -30.232  -2.520  1.00  0.00     0.010 A 
HETATM   34  C   UNL     1      44.055 -29.923  -3.877  1.00  0.00     0.001 A 
HETATM   35  C   UNL     1      44.579 -28.733  -4.378  1.00  0.00     0.000 A 
HETATM   36  C   UNL     1      45.230 -27.850  -3.524  1.00  0.00     0.001 A 
HETATM   37  C   UNL     1      45.359 -28.157  -2.169  1.00  0.00     0.010 A 
ENDBRANCH   1  32
TORSDOF 5
ENDMDL
MODEL 10
REMARK VINA RESULT:      -9.5      2.383      9.072
REMARK  5 active torsions:
REMARK  status: ('A' for Active; 'I' for Inactive)
REMARK    1  A    between atoms: C_4  and  C_5 
REMARK    2  A    between atoms: C_5  and  C_6 
REMARK    3  A    between atoms: N_15  and  N_16 
REMARK       I    between atoms: N_16  and  C_17 
REMARK    4  A    between atoms: C_17  and  C_18 
REMARK    5  A    between atoms: C_18  and  C_19 
ROOT
HETATM    1  C   UNL     1      39.145 -11.251  -1.827  1.00  0.00     0.173 A 
HETATM    2  N   UNL     1      39.521 -12.233  -2.835  1.00  0.00    -0.315 N 
HETATM    3  C   UNL     1      39.710 -13.490  -2.314  1.00  0.00     0.346 A 
HETATM    4  O   UNL     1      39.977 -14.478  -2.980  1.00  0.00    -0.245 OA
HETATM    5  N   UNL     1      39.488 -13.431  -0.969  1.00  0.00    -0.167 N 
HETATM    6  C   UNL     1      39.057 -12.185  -0.573  1.00  0.00     0.285 A 
HETATM    7  O   UNL     1      38.659 -11.869   0.543  1.00  0.00    -0.267 OA
HETATM    8  H   UNL     1      39.715 -12.022  -3.803  1.00  0.00     0.166 HD
ENDROOT
BRANCH   5   9
HETATM    9  N   UNL     1      39.460 -14.557  -0.155  1.00  0.00    -0.256 N 
HETATM   10  C   UNL     1      40.541 -14.766   0.685  1.00  0.00     0.242 C 
HETATM   11  O   UNL     1      41.492 -13.995   0.796  1.00  0.00    -0.271 OA
HETATM   12  H   UNL     1      39.078 -15.388  -0.607  1.00  0.00     0.191 HD
BRANCH  10  13
HETATM   13  C   UNL     1      40.383 -15.977   1.575  1.00  0.00     0.166 C 
BRANCH  13  14
HETATM   14  C   UNL     1      41.025 -15.887   2.943  1.00  0.00     0.074 A 
HETATM   15  N   UNL     1      40.561 -15.009   3.781  1.00  0.00    -0.175 NA
HETATM   16  N   UNL     1      41.115 -14.937   5.019  1.00  0.00    -0.243 N 
HETATM   17  C   UNL     1      42.134 -15.723   5.499  1.00  0.00     0.272 A 
HETATM   18  H   UNL     1      40.705 -14.263   5.663  1.00  0.00     0.192 HD
HETATM   19  O   UNL     1      42.563 -15.621   6.643  1.00  0.00    -0.266 OA
HETATM   20  C   UNL     1      42.694 -16.700   4.553  1.00  0.00     0.046 A 
HETATM   21  C   UNL     1      42.148 -16.800   3.274  1.00  0.00     0.006 A 
HETATM   22  C   UNL     1      43.768 -17.513   4.934  1.00  0.00     0.018 A 
HETATM   23  C   UNL     1      42.680 -17.724   2.367  1.00  0.00     0.014 A 
HETATM   24  C   UNL     1      43.759 -18.532   2.745  1.00  0.00     0.001 A 
HETATM   25  C   UNL     1      44.303 -18.426   4.025  1.00  0.00     0.001 A 
ENDBRANCH  13  14
ENDBRANCH  10  13
ENDBRANCH   5   9
BRANCH   1  26
HETATM   26  C   UNL     1      40.270 -10.208  -1.765  1.00  0.00    -0.016 A 
HETATM   27  C   UNL     1      40.654  -9.447  -2.884  1.00  0.00     0.010 A 
HETATM   28  C   UNL     1      41.648  -8.469  -2.778  1.00  0.00     0.001 A 
HETATM   29  C   UNL     1      42.271  -8.227  -1.556  1.00  0.00     0.000 A 
HETATM   30  C   UNL     1      41.900  -8.959  -0.434  1.00  0.00     0.001 A 
HETATM   31  C   UNL     1      40.905  -9.934  -0.535  1.00  0.00     0.010 A 
ENDBRANCH   1  26
BRANCH   1  32
HETATM   32  C   UNL     1      37.754 -10.644  -2.084  1.00  0.00    -0.016 A 
HETATM   33  C   UNL     1      36.789 -11.268  -2.895  1.00  0.00     0.010 A 
HETATM   34  C   UNL     1      35.531 -10.690  -3.086  1.00  0.00     0.001 A 
HETATM   35  C   UNL     1      35.211  -9.483  -2.469  1.00  0.00     0.000 A 
HETATM   36  C   UNL     1      36.148  -8.851  -1.659  1.00  0.00     0.001 A 
HETATM   37  C   UNL     1      37.406  -9.425  -1.468  1.00  0.00     0.010 A 
ENDBRANCH   1  32
TORSDOF 5
ENDMDL
