MODEL 1
REMARK VINA RESULT:      -8.5      0.000      0.000
REMARK  4 active torsions:
REMARK  status: ('A' for Active; 'I' for Inactive)
REMARK    1  A    between atoms: C_5  and  N_6 
REMARK       I    between atoms: N_6  and  C_7 
REMARK       I    between atoms: C_7  and  N_8 
REMARK    2  A    between atoms: N_8  and  C_9 
REMARK    3  A    between atoms: C_9  and  C_10 
REMARK    4  A    between atoms: C_13  and  C_14 
ROOT
HETATM    1  N   UNL     1      41.955 -13.942   4.232  1.00  0.00    -0.309 N 
HETATM    2  C   UNL     1      41.335 -13.599   5.400  1.00  0.00     0.321 C 
HETATM    3  N   UNL     1      42.144 -13.480   6.495  1.00  0.00    -0.335 N 
HETATM    4  O   UNL     1      40.136 -13.395   5.563  1.00  0.00    -0.247 OA
HETATM    5  H   UNL     1      42.958 -13.795   4.206  1.00  0.00     0.170 HD
HETATM    6  H   UNL     1      41.606 -13.262   7.323  1.00  0.00     0.164 HD
ENDROOT
BRANCH   3   7
HETATM    7  C   UNL     1      43.491 -13.994   6.686  1.00  0.00     0.213 C 
BRANCH   7   8
HETATM    8  C   UNL     1      43.540 -15.463   6.481  1.00  0.00     0.190 A 
HETATM    9  O   UNL     1      43.478 -16.260   7.584  1.00  0.00    -0.194 OA
HETATM   10  N   UNL     1      43.522 -17.575   7.122  1.00  0.00    -0.106 NA
HETATM   11  C   UNL     1      43.620 -17.447   5.788  1.00  0.00     0.189 A 
HETATM   12  N   UNL     1      43.604 -16.137   5.353  1.00  0.00    -0.202 NA
BRANCH  11  13
HETATM   13  C   UNL     1      43.723 -18.565   4.857  1.00  0.00     0.014 A 
HETATM   14  C   UNL     1      43.916 -19.876   5.316  1.00  0.00     0.015 A 
HETATM   15  C   UNL     1      44.000 -20.938   4.411  1.00  0.00     0.001 A 
HETATM   16  C   UNL     1      43.897 -20.701   3.041  1.00  0.00     0.000 A 
HETATM   17  C   UNL     1      43.713 -19.402   2.572  1.00  0.00     0.001 A 
HETATM   18  C   UNL     1      43.627 -18.340   3.475  1.00  0.00     0.015 A 
ENDBRANCH  11  13
ENDBRANCH   7   8
ENDBRANCH   3   7
BRANCH   1  19
HETATM   19  C   UNL     1      41.367 -14.190   2.976  1.00  0.00     0.036 A 
HETATM   20  C   UNL     1      40.728 -15.381   2.630  1.00  0.00     0.030 A 
HETATM   21  C   UNL     1      40.149 -15.531   1.365  1.00  0.00     0.009 A 
HETATM   22  C   UNL     1      40.216 -14.503   0.419  1.00  0.00    -0.062 A 
HETATM   23  C   UNL     1      39.553 -14.646  -0.918  1.00  0.00     0.048 C 
HETATM   24  C   UNL     1      40.860 -13.312   0.763  1.00  0.00     0.009 A 
HETATM   25  C   UNL     1      41.436 -13.161   2.028  1.00  0.00     0.030 A 
ENDBRANCH   1  19
TORSDOF 4
ENDMDL
MODEL 2
REMARK VINA RESULT:      -8.5      2.282      3.276
REMARK  4 active torsions:
REMARK  status: ('A' for Active; 'I' for Inactive)
REMARK    1  A    between atoms: C_5  and  N_6 
REMARK       I    between atoms: N_6  and  C_7 
REMARK       I    between atoms: C_7  and  N_8 
REMARK    2  A    between atoms: N_8  and  C_9 
REMARK    3  A    between atoms: C_9  and  C_10 
REMARK    4  A    between atoms: C_13  and  C_14 
ROOT
HETATM    1  N   UNL     1      40.774 -13.028   1.574  1.00  0.00    -0.309 N 
HETATM    2  C   UNL     1      40.397 -13.025   2.887  1.00  0.00     0.321 C 
HETATM    3  N   UNL     1      41.410 -12.937   3.800  1.00  0.00    -0.335 N 
HETATM    4  O   UNL     1      39.253 -13.101   3.324  1.00  0.00    -0.247 OA
HETATM    5  H   UNL     1      41.706 -12.678   1.383  1.00  0.00     0.170 HD
HETATM    6  H   UNL     1      41.052 -12.980   4.746  1.00  0.00     0.164 HD
ENDROOT
BRANCH   3   7
HETATM    7  C   UNL     1      42.828 -13.192   3.608  1.00  0.00     0.213 C 
BRANCH   7   8
HETATM    8  C   UNL     1      43.063 -14.567   3.102  1.00  0.00     0.190 A 
HETATM    9  O   UNL     1      43.210 -14.732   1.758  1.00  0.00    -0.194 OA
HETATM   10  N   UNL     1      43.437 -16.093   1.551  1.00  0.00    -0.106 NA
HETATM   11  C   UNL     1      43.391 -16.620   2.786  1.00  0.00     0.189 A 
HETATM   12  N   UNL     1      43.188 -15.686   3.782  1.00  0.00    -0.202 NA
BRANCH  11  13
HETATM   13  C   UNL     1      43.550 -18.039   3.084  1.00  0.00     0.014 A 
HETATM   14  C   UNL     1      43.222 -19.020   2.137  1.00  0.00     0.015 A 
HETATM   15  C   UNL     1      43.391 -20.376   2.434  1.00  0.00     0.001 A 
HETATM   16  C   UNL     1      43.885 -20.764   3.679  1.00  0.00     0.000 A 
HETATM   17  C   UNL     1      44.207 -19.800   4.631  1.00  0.00     0.001 A 
HETATM   18  C   UNL     1      44.040 -18.445   4.335  1.00  0.00     0.015 A 
ENDBRANCH  11  13
ENDBRANCH   7   8
ENDBRANCH   3   7
BRANCH   1  19
HETATM   19  C   UNL     1      39.955 -13.167   0.435  1.00  0.00     0.036 A 
HETATM   20  C   UNL     1      39.095 -12.177  -0.039  1.00  0.00     0.030 A 
HETATM   21  C   UNL     1      38.336 -12.394  -1.194  1.00  0.00     0.009 A 
HETATM   22  C   UNL     1      38.408 -13.609  -1.882  1.00  0.00    -0.062 A 
HETATM   23  C   UNL     1      37.631 -13.823  -3.146  1.00  0.00     0.048 C 
HETATM   24  C   UNL     1      39.266 -14.604  -1.404  1.00  0.00     0.009 A 
HETATM   25  C   UNL     1      40.026 -14.386  -0.252  1.00  0.00     0.030 A 
ENDBRANCH   1  19
TORSDOF 4
ENDMDL
MODEL 3
REMARK VINA RESULT:      -8.4      4.341      7.183
REMARK  4 active torsions:
REMARK  status: ('A' for Active; 'I' for Inactive)
REMARK    1  A    between atoms: C_5  and  N_6 
REMARK       I    between atoms: N_6  and  C_7 
REMARK       I    between atoms: C_7  and  N_8 
REMARK    2  A    between atoms: N_8  and  C_9 
REMARK    3  A    between atoms: C_9  and  C_10 
REMARK    4  A    between atoms: C_13  and  C_14 
ROOT
HETATM    1  N   UNL     1      43.370 -10.631   8.600  1.00  0.00    -0.309 N 
HETATM    2  C   UNL     1      44.462 -11.189   8.000  1.00  0.00     0.321 C 
HETATM    3  N   UNL     1      44.212 -11.963   6.901  1.00  0.00    -0.335 N 
HETATM    4  O   UNL     1      45.633 -11.071   8.349  1.00  0.00    -0.247 OA
HETATM    5  H   UNL     1      42.530 -10.591   8.034  1.00  0.00     0.170 HD
HETATM    6  H   UNL     1      45.066 -12.368   6.540  1.00  0.00     0.164 HD
ENDROOT
BRANCH   3   7
HETATM    7  C   UNL     1      42.956 -12.562   6.482  1.00  0.00     0.213 C 
BRANCH   7   8
HETATM    8  C   UNL     1      43.111 -14.016   6.229  1.00  0.00     0.190 A 
HETATM    9  O   UNL     1      43.231 -14.838   7.307  1.00  0.00    -0.194 OA
HETATM   10  N   UNL     1      43.340 -16.134   6.804  1.00  0.00    -0.106 NA
HETATM   11  C   UNL     1      43.291 -15.969   5.471  1.00  0.00     0.189 A 
HETATM   12  N   UNL     1      43.117 -14.656   5.080  1.00  0.00    -0.202 NA
BRANCH  11  13
HETATM   13  C   UNL     1      43.393 -17.053   4.501  1.00  0.00     0.014 A 
HETATM   14  C   UNL     1      42.848 -16.930   3.215  1.00  0.00     0.015 A 
HETATM   15  C   UNL     1      42.965 -17.974   2.293  1.00  0.00     0.001 A 
HETATM   16  C   UNL     1      43.622 -19.152   2.648  1.00  0.00     0.000 A 
HETATM   17  C   UNL     1      44.161 -19.290   3.925  1.00  0.00     0.001 A 
HETATM   18  C   UNL     1      44.046 -18.247   4.847  1.00  0.00     0.015 A 
ENDBRANCH  11  13
ENDBRANCH   7   8
ENDBRANCH   3   7
BRANCH   1  19
HETATM   19  C   UNL     1      43.326  -9.846   9.769  1.00  0.00     0.036 A 
HETATM   20  C   UNL     1      43.267  -8.453   9.778  1.00  0.00     0.030 A 
HETATM   21  C   UNL     1      43.201  -7.755  10.989  1.00  0.00     0.009 A 
HETATM   22  C   UNL     1      43.216  -8.436  12.211  1.00  0.00    -0.062 A 
HETATM   23  C   UNL     1      43.098  -7.691  13.506  1.00  0.00     0.048 C 
HETATM   24  C   UNL     1      43.281  -9.832  12.203  1.00  0.00     0.009 A 
HETATM   25  C   UNL     1      43.344 -10.529  10.993  1.00  0.00     0.030 A 
ENDBRANCH   1  19
TORSDOF 4
ENDMDL
MODEL 4
REMARK VINA RESULT:      -8.4      4.336      8.180
REMARK  4 active torsions:
REMARK  status: ('A' for Active; 'I' for Inactive)
REMARK    1  A    between atoms: C_5  and  N_6 
REMARK       I    between atoms: N_6  and  C_7 
REMARK       I    between atoms: C_7  and  N_8 
REMARK    2  A    between atoms: N_8  and  C_9 
REMARK    3  A    between atoms: C_9  and  C_10 
REMARK    4  A    between atoms: C_13  and  C_14 
ROOT
HETATM    1  N   UNL     1      43.342 -15.062   5.128  1.00  0.00    -0.309 N 
HETATM    2  C   UNL     1      42.751 -14.818   6.335  1.00  0.00     0.321 C 
HETATM    3  N   UNL     1      42.849 -13.537   6.802  1.00  0.00    -0.335 N 
HETATM    4  O   UNL     1      42.153 -15.627   7.038  1.00  0.00    -0.247 OA
HETATM    5  H   UNL     1      43.537 -14.246   4.561  1.00  0.00     0.170 HD
HETATM    6  H   UNL     1      42.420 -13.448   7.714  1.00  0.00     0.164 HD
ENDROOT
BRANCH   3   7
HETATM    7  C   UNL     1      43.769 -12.490   6.388  1.00  0.00     0.213 C 
BRANCH   7   8
HETATM    8  C   UNL     1      44.099 -11.587   7.518  1.00  0.00     0.190 A 
HETATM    9  O   UNL     1      45.382 -11.584   7.974  1.00  0.00    -0.194 OA
HETATM   10  N   UNL     1      45.431 -10.649   9.008  1.00  0.00    -0.106 NA
HETATM   11  C   UNL     1      44.171 -10.188   9.087  1.00  0.00     0.189 A 
HETATM   12  N   UNL     1      43.320 -10.734   8.147  1.00  0.00    -0.202 NA
BRANCH  11  13
HETATM   13  C   UNL     1      43.715  -9.195  10.052  1.00  0.00     0.014 A 
HETATM   14  C   UNL     1      43.206  -7.957   9.635  1.00  0.00     0.015 A 
HETATM   15  C   UNL     1      42.762  -7.020  10.572  1.00  0.00     0.001 A 
HETATM   16  C   UNL     1      42.827  -7.308  11.935  1.00  0.00     0.000 A 
HETATM   17  C   UNL     1      43.337  -8.531  12.364  1.00  0.00     0.001 A 
HETATM   18  C   UNL     1      43.780  -9.469  11.428  1.00  0.00     0.015 A 
ENDBRANCH  11  13
ENDBRANCH   7   8
ENDBRANCH   3   7
BRANCH   1  19
HETATM   19  C   UNL     1      43.447 -16.290   4.445  1.00  0.00     0.036 A 
HETATM   20  C   UNL     1      44.211 -17.370   4.886  1.00  0.00     0.030 A 
HETATM   21  C   UNL     1      44.238 -18.563   4.154  1.00  0.00     0.009 A 
HETATM   22  C   UNL     1      43.519 -18.688   2.961  1.00  0.00    -0.062 A 
HETATM   23  C   UNL     1      43.510 -19.982   2.203  1.00  0.00     0.048 C 
HETATM   24  C   UNL     1      42.758 -17.604   2.516  1.00  0.00     0.009 A 
HETATM   25  C   UNL     1      42.730 -16.414   3.248  1.00  0.00     0.030 A 
ENDBRANCH   1  19
TORSDOF 4
ENDMDL
MODEL 5
REMARK VINA RESULT:      -8.1      3.774      7.580
REMARK  4 active torsions:
REMARK  status: ('A' for Active; 'I' for Inactive)
REMARK    1  A    between atoms: C_5  and  N_6 
REMARK       I    between atoms: N_6  and  C_7 
REMARK       I    between atoms: C_7  and  N_8 
REMARK    2  A    between atoms: N_8  and  C_9 
REMARK    3  A    between atoms: C_9  and  C_10 
REMARK    4  A    between atoms: C_13  and  C_14 
ROOT
HETATM    1  N   UNL     1      42.995 -15.071   4.147  1.00  0.00    -0.309 N 
HETATM    2  C   UNL     1      42.021 -14.593   4.977  1.00  0.00     0.321 C 
HETATM    3  N   UNL     1      42.042 -13.246   5.213  1.00  0.00    -0.335 N 
HETATM    4  O   UNL     1      41.142 -15.245   5.532  1.00  0.00    -0.247 OA
HETATM    5  H   UNL     1      43.451 -14.381   3.562  1.00  0.00     0.170 HD
HETATM    6  H   UNL     1      41.316 -12.979   5.864  1.00  0.00     0.164 HD
ENDROOT
BRANCH   3   7
HETATM    7  C   UNL     1      43.131 -12.307   5.000  1.00  0.00     0.213 C 
BRANCH   7   8
HETATM    8  C   UNL     1      43.626 -11.757   6.287  1.00  0.00     0.190 A 
HETATM    9  O   UNL     1      44.850 -12.166   6.722  1.00  0.00    -0.194 OA
HETATM   10  N   UNL     1      45.084 -11.497   7.923  1.00  0.00    -0.106 NA
HETATM   11  C   UNL     1      43.975 -10.761   8.105  1.00  0.00     0.189 A 
HETATM   12  N   UNL     1      43.055 -10.879   7.082  1.00  0.00    -0.202 NA
BRANCH  11  13
HETATM   13  C   UNL     1      43.737  -9.897   9.256  1.00  0.00     0.014 A 
HETATM   14  C   UNL     1      43.820 -10.392  10.565  1.00  0.00     0.015 A 
HETATM   15  C   UNL     1      43.601  -9.548  11.658  1.00  0.00     0.001 A 
HETATM   16  C   UNL     1      43.293  -8.204  11.454  1.00  0.00     0.000 A 
HETATM   17  C   UNL     1      43.200  -7.700  10.158  1.00  0.00     0.001 A 
HETATM   18  C   UNL     1      43.420  -8.542   9.066  1.00  0.00     0.015 A 
ENDBRANCH  11  13
ENDBRANCH   7   8
ENDBRANCH   3   7
BRANCH   1  19
HETATM   19  C   UNL     1      43.246 -16.408   3.783  1.00  0.00     0.036 A 
HETATM   20  C   UNL     1      43.986 -17.306   4.552  1.00  0.00     0.030 A 
HETATM   21  C   UNL     1      44.165 -18.626   4.123  1.00  0.00     0.009 A 
HETATM   22  C   UNL     1      43.625 -19.065   2.910  1.00  0.00    -0.062 A 
HETATM   23  C   UNL     1      43.776 -20.491   2.474  1.00  0.00     0.048 C 
HETATM   24  C   UNL     1      42.887 -18.164   2.136  1.00  0.00     0.009 A 
HETATM   25  C   UNL     1      42.707 -16.847   2.566  1.00  0.00     0.030 A 
ENDBRANCH   1  19
TORSDOF 4
ENDMDL
MODEL 6
REMARK VINA RESULT:      -8.1      2.518      5.438
REMARK  4 active torsions:
REMARK  status: ('A' for Active; 'I' for Inactive)
REMARK    1  A    between atoms: C_5  and  N_6 
REMARK       I    between atoms: N_6  and  C_7 
REMARK       I    between atoms: C_7  and  N_8 
REMARK    2  A    between atoms: N_8  and  C_9 
REMARK    3  A    between atoms: C_9  and  C_10 
REMARK    4  A    between atoms: C_13  and  C_14 
ROOT
HETATM    1  N   UNL     1      41.329 -12.235   5.351  1.00  0.00    -0.309 N 
HETATM    2  C   UNL     1      40.001 -12.372   5.637  1.00  0.00     0.321 C 
HETATM    3  N   UNL     1      39.226 -12.903   4.643  1.00  0.00    -0.335 N 
HETATM    4  O   UNL     1      39.438 -12.063   6.683  1.00  0.00    -0.247 OA
HETATM    5  H   UNL     1      41.672 -12.788   4.574  1.00  0.00     0.170 HD
HETATM    6  H   UNL     1      38.253 -12.936   4.919  1.00  0.00     0.164 HD
ENDROOT
BRANCH   3   7
HETATM    7  C   UNL     1      39.526 -13.020   3.226  1.00  0.00     0.213 C 
BRANCH   7   8
HETATM    8  C   UNL     1      40.213 -14.300   2.925  1.00  0.00     0.190 A 
HETATM    9  O   UNL     1      39.788 -15.009   1.843  1.00  0.00    -0.194 OA
HETATM   10  N   UNL     1      40.599 -16.142   1.771  1.00  0.00    -0.106 NA
HETATM   11  C   UNL     1      41.424 -16.016   2.824  1.00  0.00     0.189 A 
HETATM   12  N   UNL     1      41.227 -14.858   3.550  1.00  0.00    -0.202 NA
BRANCH  11  13
HETATM   13  C   UNL     1      42.451 -16.986   3.188  1.00  0.00     0.014 A 
HETATM   14  C   UNL     1      43.162 -16.873   4.391  1.00  0.00     0.015 A 
HETATM   15  C   UNL     1      44.135 -17.817   4.730  1.00  0.00     0.001 A 
HETATM   16  C   UNL     1      44.411 -18.879   3.870  1.00  0.00     0.000 A 
HETATM   17  C   UNL     1      43.718 -18.998   2.667  1.00  0.00     0.001 A 
HETATM   18  C   UNL     1      42.744 -18.056   2.328  1.00  0.00     0.015 A 
ENDBRANCH  11  13
ENDBRANCH   7   8
ENDBRANCH   3   7
BRANCH   1  19
HETATM   19  C   UNL     1      42.337 -11.669   6.156  1.00  0.00     0.036 A 
HETATM   20  C   UNL     1      42.283 -10.382   6.691  1.00  0.00     0.030 A 
HETATM   21  C   UNL     1      43.321  -9.909   7.503  1.00  0.00     0.009 A 
HETATM   22  C   UNL     1      44.438 -10.705   7.775  1.00  0.00    -0.062 A 
HETATM   23  C   UNL     1      45.526 -10.216   8.683  1.00  0.00     0.048 C 
HETATM   24  C   UNL     1      44.495 -11.993   7.235  1.00  0.00     0.009 A 
HETATM   25  C   UNL     1      43.457 -12.466   6.427  1.00  0.00     0.030 A 
ENDBRANCH   1  19
TORSDOF 4
ENDMDL
MODEL 7
REMARK VINA RESULT:      -7.8      1.879      6.229
REMARK  4 active torsions:
REMARK  status: ('A' for Active; 'I' for Inactive)
REMARK    1  A    between atoms: C_5  and  N_6 
REMARK       I    between atoms: N_6  and  C_7 
REMARK       I    between atoms: C_7  and  N_8 
REMARK    2  A    between atoms: N_8  and  C_9 
REMARK    3  A    between atoms: C_9  and  C_10 
REMARK    4  A    between atoms: C_13  and  C_14 
ROOT
HETATM    1  N   UNL     1      42.958 -15.330   4.372  1.00  0.00    -0.309 N 
HETATM    2  C   UNL     1      42.312 -14.973   5.521  1.00  0.00     0.321 C 
HETATM    3  N   UNL     1      42.232 -13.631   5.772  1.00  0.00    -0.335 N 
HETATM    4  O   UNL     1      41.806 -15.728   6.346  1.00  0.00    -0.247 OA
HETATM    5  H   UNL     1      43.059 -14.598   3.679  1.00  0.00     0.170 HD
HETATM    6  H   UNL     1      41.774 -13.452   6.656  1.00  0.00     0.164 HD
ENDROOT
BRANCH   3   7
HETATM    7  C   UNL     1      43.019 -12.554   5.194  1.00  0.00     0.213 C 
BRANCH   7   8
HETATM    8  C   UNL     1      42.559 -12.228   3.821  1.00  0.00     0.190 A 
HETATM    9  O   UNL     1      42.799 -10.972   3.354  1.00  0.00    -0.194 OA
HETATM   10  N   UNL     1      42.294 -10.933   2.054  1.00  0.00    -0.106 NA
HETATM   11  C   UNL     1      41.785 -12.162   1.867  1.00  0.00     0.189 A 
HETATM   12  N   UNL     1      41.962 -13.006   2.945  1.00  0.00    -0.202 NA
BRANCH  11  13
HETATM   13  C   UNL     1      41.115 -12.601   0.649  1.00  0.00     0.014 A 
HETATM   14  C   UNL     1      40.605 -13.902   0.529  1.00  0.00     0.015 A 
HETATM   15  C   UNL     1      39.955 -14.304  -0.641  1.00  0.00     0.001 A 
HETATM   16  C   UNL     1      39.812 -13.413  -1.704  1.00  0.00     0.000 A 
HETATM   17  C   UNL     1      40.321 -12.120  -1.602  1.00  0.00     0.001 A 
HETATM   18  C   UNL     1      40.969 -11.717  -0.432  1.00  0.00     0.015 A 
ENDBRANCH  11  13
ENDBRANCH   7   8
ENDBRANCH   3   7
BRANCH   1  19
HETATM   19  C   UNL     1      43.237 -16.628   3.900  1.00  0.00     0.036 A 
HETATM   20  C   UNL     1      44.060 -17.542   4.557  1.00  0.00     0.030 A 
HETATM   21  C   UNL     1      44.262 -18.821   4.027  1.00  0.00     0.009 A 
HETATM   22  C   UNL     1      43.662 -19.200   2.821  1.00  0.00    -0.062 A 
HETATM   23  C   UNL     1      43.840 -20.586   2.278  1.00  0.00     0.048 C 
HETATM   24  C   UNL     1      42.842 -18.282   2.159  1.00  0.00     0.009 A 
HETATM   25  C   UNL     1      42.638 -17.006   2.691  1.00  0.00     0.030 A 
ENDBRANCH   1  19
TORSDOF 4
ENDMDL
MODEL 8
REMARK VINA RESULT:      -7.7      1.216      5.685
REMARK  4 active torsions:
REMARK  status: ('A' for Active; 'I' for Inactive)
REMARK    1  A    between atoms: C_5  and  N_6 
REMARK       I    between atoms: N_6  and  C_7 
REMARK       I    between atoms: C_7  and  N_8 
REMARK    2  A    between atoms: N_8  and  C_9 
REMARK    3  A    between atoms: C_9  and  C_10 
REMARK    4  A    between atoms: C_13  and  C_14 
ROOT
HETATM    1  N   UNL     1      43.095 -16.600   5.532  1.00  0.00    -0.309 N 
HETATM    2  C   UNL     1      44.007 -15.931   6.297  1.00  0.00     0.321 C 
HETATM    3  N   UNL     1      43.514 -14.913   7.064  1.00  0.00    -0.335 N 
HETATM    4  O   UNL     1      45.214 -16.147   6.358  1.00  0.00    -0.247 OA
HETATM    5  H   UNL     1      42.125 -16.490   5.807  1.00  0.00     0.170 HD
HETATM    6  H   UNL     1      44.256 -14.446   7.569  1.00  0.00     0.164 HD
ENDROOT
BRANCH   3   7
HETATM    7  C   UNL     1      42.248 -14.212   6.933  1.00  0.00     0.213 C 
BRANCH   7   8
HETATM    8  C   UNL     1      42.033 -13.742   5.542  1.00  0.00     0.190 A 
HETATM    9  O   UNL     1      42.456 -12.488   5.224  1.00  0.00    -0.194 OA
HETATM   10  N   UNL     1      42.160 -12.303   3.874  1.00  0.00    -0.106 NA
HETATM   11  C   UNL     1      41.574 -13.457   3.510  1.00  0.00     0.189 A 
HETATM   12  N   UNL     1      41.507 -14.390   4.525  1.00  0.00    -0.202 NA
BRANCH  11  13
HETATM   13  C   UNL     1      41.059 -13.735   2.174  1.00  0.00     0.014 A 
HETATM   14  C   UNL     1      41.179 -12.796   1.140  1.00  0.00     0.015 A 
HETATM   15  C   UNL     1      40.691 -13.083  -0.138  1.00  0.00     0.001 A 
HETATM   16  C   UNL     1      40.075 -14.307  -0.394  1.00  0.00     0.000 A 
HETATM   17  C   UNL     1      39.942 -15.246   0.627  1.00  0.00     0.001 A 
HETATM   18  C   UNL     1      40.431 -14.961   1.904  1.00  0.00     0.015 A 
ENDBRANCH  11  13
ENDBRANCH   7   8
ENDBRANCH   3   7
BRANCH   1  19
HETATM   19  C   UNL     1      43.328 -17.641   4.611  1.00  0.00     0.036 A 
HETATM   20  C   UNL     1      43.901 -18.868   4.944  1.00  0.00     0.030 A 
HETATM   21  C   UNL     1      44.074 -19.856   3.968  1.00  0.00     0.009 A 
HETATM   22  C   UNL     1      43.697 -19.626   2.640  1.00  0.00    -0.062 A 
HETATM   23  C   UNL     1      43.838 -20.701   1.605  1.00  0.00     0.048 C 
HETATM   24  C   UNL     1      43.128 -18.394   2.306  1.00  0.00     0.009 A 
HETATM   25  C   UNL     1      42.953 -17.409   3.281  1.00  0.00     0.030 A 
ENDBRANCH   1  19
TORSDOF 4
ENDMDL
MODEL 9
REMARK VINA RESULT:      -7.6      5.617      8.872
REMARK  4 active torsions:
REMARK  status: ('A' for Active; 'I' for Inactive)
REMARK    1  A    between atoms: C_5  and  N_6 
REMARK       I    between atoms: N_6  and  C_7 
REMARK       I    between atoms: C_7  and  N_8 
REMARK    2  A    between atoms: N_8  and  C_9 
REMARK    3  A    between atoms: C_9  and  C_10 
REMARK    4  A    between atoms: C_13  and  C_14 
ROOT
HETATM    1  N   UNL     1      43.249 -12.429   5.643  1.00  0.00    -0.309 N 
HETATM    2  C   UNL     1      44.191 -11.447   5.753  1.00  0.00     0.321 C 
HETATM    3  N   UNL     1      43.998 -10.541   6.759  1.00  0.00    -0.335 N 
HETATM    4  O   UNL     1      45.180 -11.294   5.043  1.00  0.00    -0.247 OA
HETATM    5  H   UNL     1      42.671 -12.578   6.462  1.00  0.00     0.170 HD
HETATM    6  H   UNL     1      44.716  -9.828   6.749  1.00  0.00     0.164 HD
ENDROOT
BRANCH   3   7
HETATM    7  C   UNL     1      42.781 -10.258   7.500  1.00  0.00     0.213 C 
BRANCH   7   8
HETATM    8  C   UNL     1      43.050 -10.150   8.956  1.00  0.00     0.190 A 
HETATM    9  O   UNL     1      44.038 -10.928   9.477  1.00  0.00    -0.194 OA
HETATM   10  N   UNL     1      44.101 -10.625  10.837  1.00  0.00    -0.106 NA
HETATM   11  C   UNL     1      43.137  -9.706  11.009  1.00  0.00     0.189 A 
HETATM   12  N   UNL     1      42.480  -9.365   9.844  1.00  0.00    -0.202 NA
BRANCH  11  13
HETATM   13  C   UNL     1      42.798  -9.095  12.290  1.00  0.00     0.014 A 
HETATM   14  C   UNL     1      43.524  -8.003  12.787  1.00  0.00     0.015 A 
HETATM   15  C   UNL     1      43.179  -7.421  14.010  1.00  0.00     0.001 A 
HETATM   16  C   UNL     1      42.111  -7.927  14.751  1.00  0.00     0.000 A 
HETATM   17  C   UNL     1      41.387  -9.017  14.272  1.00  0.00     0.001 A 
HETATM   18  C   UNL     1      41.730  -9.598  13.049  1.00  0.00     0.015 A 
ENDBRANCH  11  13
ENDBRANCH   7   8
ENDBRANCH   3   7
BRANCH   1  19
HETATM   19  C   UNL     1      43.164 -13.448   4.673  1.00  0.00     0.036 A 
HETATM   20  C   UNL     1      43.151 -13.221   3.297  1.00  0.00     0.030 A 
HETATM   21  C   UNL     1      43.090 -14.297   2.404  1.00  0.00     0.009 A 
HETATM   22  C   UNL     1      43.019 -15.613   2.870  1.00  0.00    -0.062 A 
HETATM   23  C   UNL     1      43.001 -16.767   1.913  1.00  0.00     0.048 C 
HETATM   24  C   UNL     1      43.026 -15.840   4.249  1.00  0.00     0.009 A 
HETATM   25  C   UNL     1      43.090 -14.766   5.141  1.00  0.00     0.030 A 
ENDBRANCH   1  19
TORSDOF 4
ENDMDL
MODEL 10
REMARK VINA RESULT:      -7.5      5.154      8.147
REMARK  4 active torsions:
REMARK  status: ('A' for Active; 'I' for Inactive)
REMARK    1  A    between atoms: C_5  and  N_6 
REMARK       I    between atoms: N_6  and  C_7 
REMARK       I    between atoms: C_7  and  N_8 
REMARK    2  A    between atoms: N_8  and  C_9 
REMARK    3  A    between atoms: C_9  and  C_10 
REMARK    4  A    between atoms: C_13  and  C_14 
ROOT
HETATM    1  N   UNL     1      42.585  -9.944   9.655  1.00  0.00    -0.309 N 
HETATM    2  C   UNL     1      42.121  -9.346   8.518  1.00  0.00     0.321 C 
HETATM    3  N   UNL     1      42.388  -9.998   7.346  1.00  0.00    -0.335 N 
HETATM    4  O   UNL     1      41.500  -8.290   8.443  1.00  0.00    -0.247 OA
HETATM    5  H   UNL     1      42.818 -10.927   9.572  1.00  0.00     0.170 HD
HETATM    6  H   UNL     1      42.045  -9.474   6.552  1.00  0.00     0.164 HD
ENDROOT
BRANCH   3   7
HETATM    7  C   UNL     1      43.376 -11.034   7.092  1.00  0.00     0.213 C 
BRANCH   7   8
HETATM    8  C   UNL     1      42.856 -12.052   6.145  1.00  0.00     0.190 A 
HETATM    9  O   UNL     1      41.521 -12.045   5.876  1.00  0.00    -0.194 OA
HETATM   10  N   UNL     1      41.299 -13.070   4.957  1.00  0.00    -0.106 NA
HETATM   11  C   UNL     1      42.517 -13.607   4.771  1.00  0.00     0.189 A 
HETATM   12  N   UNL     1      43.518 -12.972   5.478  1.00  0.00    -0.202 NA
BRANCH  11  13
HETATM   13  C   UNL     1      42.792 -14.744   3.900  1.00  0.00     0.014 A 
HETATM   14  C   UNL     1      42.757 -16.058   4.389  1.00  0.00     0.015 A 
HETATM   15  C   UNL     1      43.013 -17.138   3.539  1.00  0.00     0.001 A 
HETATM   16  C   UNL     1      43.310 -16.916   2.195  1.00  0.00     0.000 A 
HETATM   17  C   UNL     1      43.356 -15.616   1.698  1.00  0.00     0.001 A 
HETATM   18  C   UNL     1      43.100 -14.536   2.547  1.00  0.00     0.015 A 
ENDBRANCH  11  13
ENDBRANCH   7   8
ENDBRANCH   3   7
BRANCH   1  19
HETATM   19  C   UNL     1      42.507  -9.470  10.979  1.00  0.00     0.036 A 
HETATM   20  C   UNL     1      43.451  -8.628  11.568  1.00  0.00     0.030 A 
HETATM   21  C   UNL     1      43.280  -8.185  12.884  1.00  0.00     0.009 A 
HETATM   22  C   UNL     1      42.176  -8.593  13.641  1.00  0.00    -0.062 A 
HETATM   23  C   UNL     1      41.970  -8.080  15.034  1.00  0.00     0.048 C 
HETATM   24  C   UNL     1      41.234  -9.441  13.053  1.00  0.00     0.009 A 
HETATM   25  C   UNL     1      41.403  -9.881  11.738  1.00  0.00     0.030 A 
ENDBRANCH   1  19
TORSDOF 4
ENDMDL
