MODEL 1
REMARK VINA RESULT:      -9.5      0.000      0.000
REMARK  6 active torsions:
REMARK  status: ('A' for Active; 'I' for Inactive)
REMARK    1  A    between atoms: C_3  and  C_4 
REMARK    2  A    between atoms: N_5  and  C_6 
REMARK    3  A    between atoms: C_11  and  S_12 
REMARK    4  A    between atoms: S_12  and  C_13 
REMARK    5  A    between atoms: C_13  and  C_14 
REMARK       I    between atoms: C_14  and  N_15 
REMARK    6  A    between atoms: N_15  and  C_16 
ROOT
HETATM    1  S   UNL     1      40.636 -13.893   2.557  1.00  0.00    -0.081 SA
ENDROOT
BRANCH   1   2
HETATM    2  C   UNL     1      42.084 -14.838   2.553  1.00  0.00     0.192 C 
HETATM    3  N   UNL     1      42.374 -15.846   3.438  1.00  0.00    -0.302 N 
HETATM    4  C   UNL     1      43.195 -16.697   2.706  1.00  0.00     0.166 C 
HETATM    5  N   UNL     1      43.608 -16.056   1.627  1.00  0.00    -0.128 NA
HETATM    6  N   UNL     1      42.900 -14.892   1.525  1.00  0.00    -0.122 NA
BRANCH   3   7
HETATM    7  C   UNL     1      41.882 -16.085   4.785  1.00  0.00     0.094 C 
HETATM    8  C   UNL     1      42.321 -15.006   5.793  1.00  0.00     0.026 C 
HETATM    9  C   UNL     1      41.432 -15.207   7.012  1.00  0.00     0.002 C 
HETATM   10  C   UNL     1      40.156 -15.849   6.494  1.00  0.00     0.002 C 
HETATM   11  C   UNL     1      40.359 -16.050   4.997  1.00  0.00     0.026 C 
ENDBRANCH   3   7
BRANCH   4  12
HETATM   12  C   UNL     1      43.447 -18.110   2.986  1.00  0.00     0.034 A 
HETATM   13  C   UNL     1      42.969 -19.072   2.077  1.00  0.00     0.017 A 
HETATM   14  C   UNL     1      43.216 -20.432   2.272  1.00  0.00     0.001 A 
HETATM   15  C   UNL     1      43.946 -20.851   3.379  1.00  0.00     0.002 A 
HETATM   16  C   UNL     1      44.435 -19.909   4.288  1.00  0.00     0.025 A 
HETATM   17  C   UNL     1      44.192 -18.545   4.092  1.00  0.00     0.048 A 
HETATM   18 CL   UNL     1      44.803 -17.446   5.279  1.00  0.00    -0.083 Cl
ENDBRANCH   4  12
ENDBRANCH   1   2
BRANCH   1  19
HETATM   19  C   UNL     1      41.356 -12.236   2.789  1.00  0.00     0.185 C 
BRANCH  19  20
HETATM   20  C   UNL     1      41.637 -11.961   4.265  1.00  0.00     0.231 C 
HETATM   21  N   UNL     1      42.957 -11.618   4.508  1.00  0.00    -0.326 N 
HETATM   22  H   UNL     1      43.505 -11.358   3.686  1.00  0.00     0.169 HD
HETATM   23  O   UNL     1      40.741 -12.014   5.104  1.00  0.00    -0.272 OA
BRANCH  21  24
HETATM   24  C   UNL     1      43.559 -11.307   5.744  1.00  0.00     0.037 A 
HETATM   25  C   UNL     1      42.850 -10.851   6.860  1.00  0.00     0.061 A 
HETATM   26  C   UNL     1      43.586 -10.548   7.985  1.00  0.00     0.065 A 
HETATM   27  C   UNL     1      44.970 -10.700   8.039  1.00  0.00     0.063 A 
HETATM   28  N   UNL     1      43.164 -10.054   9.214  1.00  0.00    -0.306 N 
HETATM   29  N   UNL     1      45.397 -10.305   9.300  1.00  0.00    -0.307 N 
HETATM   30  C   UNL     1      45.695 -11.162   6.972  1.00  0.00     0.034 A 
HETATM   31  C   UNL     1      44.283  -9.896  10.046  1.00  0.00     0.325 A 
HETATM   32  H   UNL     1      46.341 -10.298   9.651  1.00  0.00     0.170 HD
HETATM   33  O   UNL     1      44.286  -9.477  11.189  1.00  0.00    -0.247 OA
HETATM   34  C   UNL     1      44.970 -11.465   5.812  1.00  0.00     0.032 A 
HETATM   35  H   UNL     1      42.221  -9.838   9.494  1.00  0.00     0.170 HD
ENDBRANCH  21  24
ENDBRANCH  19  20
ENDBRANCH   1  19
TORSDOF 6
ENDMDL
MODEL 2
REMARK VINA RESULT:      -9.1      3.708      7.301
REMARK  6 active torsions:
REMARK  status: ('A' for Active; 'I' for Inactive)
REMARK    1  A    between atoms: C_3  and  C_4 
REMARK    2  A    between atoms: N_5  and  C_6 
REMARK    3  A    between atoms: C_11  and  S_12 
REMARK    4  A    between atoms: S_12  and  C_13 
REMARK    5  A    between atoms: C_13  and  C_14 
REMARK       I    between atoms: C_14  and  N_15 
REMARK    6  A    between atoms: N_15  and  C_16 
ROOT
HETATM    1  S   UNL     1      40.155 -12.034   5.301  1.00  0.00    -0.081 SA
ENDROOT
BRANCH   1   2
HETATM    2  C   UNL     1      40.765 -13.345   4.353  1.00  0.00     0.192 C 
HETATM    3  N   UNL     1      41.986 -13.946   4.526  1.00  0.00    -0.302 N 
HETATM    4  C   UNL     1      41.775 -15.248   4.084  1.00  0.00     0.166 C 
HETATM    5  N   UNL     1      40.642 -15.281   3.406  1.00  0.00    -0.128 NA
HETATM    6  N   UNL     1      40.001 -14.088   3.585  1.00  0.00    -0.122 NA
BRANCH   3   7
HETATM    7  C   UNL     1      43.208 -13.438   5.127  1.00  0.00     0.094 C 
HETATM    8  C   UNL     1      43.568 -12.014   4.662  1.00  0.00     0.026 C 
HETATM    9  C   UNL     1      44.619 -11.521   5.646  1.00  0.00     0.002 C 
HETATM   10  C   UNL     1      44.370 -12.283   6.937  1.00  0.00     0.002 C 
HETATM   11  C   UNL     1      43.213 -13.233   6.651  1.00  0.00     0.026 C 
ENDBRANCH   3   7
BRANCH   4  12
HETATM   12  C   UNL     1      42.577 -16.421   4.429  1.00  0.00     0.034 A 
HETATM   13  C   UNL     1      42.569 -16.873   5.762  1.00  0.00     0.017 A 
HETATM   14  C   UNL     1      43.284 -18.011   6.140  1.00  0.00     0.001 A 
HETATM   15  C   UNL     1      44.014 -18.716   5.190  1.00  0.00     0.002 A 
HETATM   16  C   UNL     1      44.028 -18.287   3.861  1.00  0.00     0.025 A 
HETATM   17  C   UNL     1      43.309 -17.148   3.479  1.00  0.00     0.048 A 
HETATM   18 CL   UNL     1      43.402 -16.663   1.822  1.00  0.00    -0.083 Cl
ENDBRANCH   4  12
ENDBRANCH   1   2
BRANCH   1  19
HETATM   19  C   UNL     1      40.324 -10.681   4.093  1.00  0.00     0.185 C 
BRANCH  19  20
HETATM   20  C   UNL     1      39.495 -10.957   2.840  1.00  0.00     0.231 C 
HETATM   21  N   UNL     1      40.257 -11.424   1.782  1.00  0.00    -0.326 N 
HETATM   22  H   UNL     1      41.194 -11.750   2.021  1.00  0.00     0.169 HD
HETATM   23  O   UNL     1      38.275 -10.803   2.837  1.00  0.00    -0.272 OA
BRANCH  21  24
HETATM   24  C   UNL     1      39.821 -11.772   0.486  1.00  0.00     0.037 A 
HETATM   25  C   UNL     1      39.475 -13.072   0.106  1.00  0.00     0.061 A 
HETATM   26  C   UNL     1      39.109 -13.260  -1.208  1.00  0.00     0.065 A 
HETATM   27  C   UNL     1      39.059 -12.217  -2.130  1.00  0.00     0.063 A 
HETATM   28  N   UNL     1      38.747 -14.429  -1.870  1.00  0.00    -0.306 N 
HETATM   29  N   UNL     1      38.663 -12.742  -3.354  1.00  0.00    -0.307 N 
HETATM   30  C   UNL     1      39.373 -10.927  -1.788  1.00  0.00     0.034 A 
HETATM   31  C   UNL     1      38.467 -14.122  -3.209  1.00  0.00     0.325 A 
HETATM   32  H   UNL     1      38.532 -12.243  -4.218  1.00  0.00     0.170 HD
HETATM   33  O   UNL     1      38.128 -14.904  -4.079  1.00  0.00    -0.247 OA
HETATM   34  C   UNL     1      39.759 -10.712  -0.460  1.00  0.00     0.032 A 
HETATM   35  H   UNL     1      38.685 -15.356  -1.480  1.00  0.00     0.170 HD
ENDBRANCH  21  24
ENDBRANCH  19  20
ENDBRANCH   1  19
TORSDOF 6
ENDMDL
MODEL 3
REMARK VINA RESULT:      -9.0      3.809      8.290
REMARK  6 active torsions:
REMARK  status: ('A' for Active; 'I' for Inactive)
REMARK    1  A    between atoms: C_3  and  C_4 
REMARK    2  A    between atoms: N_5  and  C_6 
REMARK    3  A    between atoms: C_11  and  S_12 
REMARK    4  A    between atoms: S_12  and  C_13 
REMARK    5  A    between atoms: C_13  and  C_14 
REMARK       I    between atoms: C_14  and  N_15 
REMARK    6  A    between atoms: N_15  and  C_16 
ROOT
HETATM    1  S   UNL     1      43.226 -15.605   6.045  1.00  0.00    -0.081 SA
ENDROOT
BRANCH   1   2
HETATM    2  C   UNL     1      41.813 -14.675   6.404  1.00  0.00     0.192 C 
HETATM    3  N   UNL     1      41.688 -13.321   6.217  1.00  0.00    -0.302 N 
HETATM    4  C   UNL     1      40.328 -13.148   5.980  1.00  0.00     0.166 C 
HETATM    5  N   UNL     1      39.697 -14.252   6.341  1.00  0.00    -0.128 NA
HETATM    6  N   UNL     1      40.632 -15.215   6.596  1.00  0.00    -0.122 NA
BRANCH   3   7
HETATM    7  C   UNL     1      42.703 -12.283   6.153  1.00  0.00     0.094 C 
HETATM    8  C   UNL     1      43.837 -12.477   7.178  1.00  0.00     0.026 C 
HETATM    9  C   UNL     1      44.955 -11.550   6.723  1.00  0.00     0.002 C 
HETATM   10  C   UNL     1      44.773 -11.383   5.223  1.00  0.00     0.002 C 
HETATM   11  C   UNL     1      43.524 -12.177   4.857  1.00  0.00     0.026 C 
ENDBRANCH   3   7
BRANCH   4  12
HETATM   12  C   UNL     1      39.704 -12.010   5.307  1.00  0.00     0.034 A 
HETATM   13  C   UNL     1      39.663 -12.000   3.901  1.00  0.00     0.017 A 
HETATM   14  C   UNL     1      39.043 -10.959   3.207  1.00  0.00     0.001 A 
HETATM   15  C   UNL     1      38.453  -9.914   3.909  1.00  0.00     0.002 A 
HETATM   16  C   UNL     1      38.477  -9.912   5.306  1.00  0.00     0.025 A 
HETATM   17  C   UNL     1      39.095 -10.957   6.004  1.00  0.00     0.048 A 
HETATM   18 CL   UNL     1      39.111 -10.864   7.730  1.00  0.00    -0.083 Cl
ENDBRANCH   4  12
ENDBRANCH   1   2
BRANCH   1  19
HETATM   19  C   UNL     1      42.476 -16.919   5.031  1.00  0.00     0.185 C 
BRANCH  19  20
HETATM   20  C   UNL     1      42.377 -16.494   3.567  1.00  0.00     0.231 C 
HETATM   21  N   UNL     1      41.368 -15.573   3.340  1.00  0.00    -0.326 N 
HETATM   22  H   UNL     1      40.987 -15.119   4.172  1.00  0.00     0.169 HD
HETATM   23  O   UNL     1      43.163 -16.923   2.725  1.00  0.00    -0.272 OA
BRANCH  21  24
HETATM   24  C   UNL     1      40.997 -14.976   2.117  1.00  0.00     0.037 A 
HETATM   25  C   UNL     1      40.104 -15.555   1.210  1.00  0.00     0.061 A 
HETATM   26  C   UNL     1      39.876 -14.868   0.038  1.00  0.00     0.065 A 
HETATM   27  C   UNL     1      40.477 -13.644  -0.245  1.00  0.00     0.063 A 
HETATM   28  N   UNL     1      39.073 -15.207  -1.047  1.00  0.00    -0.306 N 
HETATM   29  N   UNL     1      40.043 -13.229  -1.497  1.00  0.00    -0.307 N 
HETATM   30  C   UNL     1      41.343 -13.039   0.629  1.00  0.00     0.034 A 
HETATM   31  C   UNL     1      39.168 -14.195  -2.013  1.00  0.00     0.325 A 
HETATM   32  H   UNL     1      40.297 -12.385  -1.983  1.00  0.00     0.170 HD
HETATM   33  O   UNL     1      38.606 -14.165  -3.093  1.00  0.00    -0.247 OA
HETATM   34  C   UNL     1      41.601 -13.723   1.823  1.00  0.00     0.032 A 
HETATM   35  H   UNL     1      38.505 -16.033  -1.150  1.00  0.00     0.170 HD
ENDBRANCH  21  24
ENDBRANCH  19  20
ENDBRANCH   1  19
TORSDOF 6
ENDMDL
MODEL 4
REMARK VINA RESULT:      -8.9      3.802      9.582
REMARK  6 active torsions:
REMARK  status: ('A' for Active; 'I' for Inactive)
REMARK    1  A    between atoms: C_3  and  C_4 
REMARK    2  A    between atoms: N_5  and  C_6 
REMARK    3  A    between atoms: C_11  and  S_12 
REMARK    4  A    between atoms: S_12  and  C_13 
REMARK    5  A    between atoms: C_13  and  C_14 
REMARK       I    between atoms: C_14  and  N_15 
REMARK    6  A    between atoms: N_15  and  C_16 
ROOT
HETATM    1  S   UNL     1      41.835  -8.892   6.605  1.00  0.00    -0.081 SA
ENDROOT
BRANCH   1   2
HETATM    2  C   UNL     1      41.398  -9.323   8.221  1.00  0.00     0.192 C 
HETATM    3  N   UNL     1      42.257  -9.365   9.290  1.00  0.00    -0.302 N 
HETATM    4  C   UNL     1      41.439  -9.083  10.379  1.00  0.00     0.166 C 
HETATM    5  N   UNL     1      40.180  -9.212  10.000  1.00  0.00    -0.128 NA
HETATM    6  N   UNL     1      40.154  -9.351   8.641  1.00  0.00    -0.122 NA
BRANCH   3   7
HETATM    7  C   UNL     1      43.700  -9.539   9.329  1.00  0.00     0.094 C 
HETATM    8  C   UNL     1      44.190 -10.749   8.510  1.00  0.00     0.026 C 
HETATM    9  C   UNL     1      45.691 -10.554   8.360  1.00  0.00     0.002 C 
HETATM   10  C   UNL     1      45.928  -9.056   8.457  1.00  0.00     0.002 C 
HETATM   11  C   UNL     1      44.563  -8.427   8.711  1.00  0.00     0.026 C 
ENDBRANCH   3   7
BRANCH   4  12
HETATM   12  C   UNL     1      41.874  -8.581  11.681  1.00  0.00     0.034 A 
HETATM   13  C   UNL     1      41.850  -9.457  12.783  1.00  0.00     0.017 A 
HETATM   14  C   UNL     1      42.292  -9.043  14.041  1.00  0.00     0.001 A 
HETATM   15  C   UNL     1      42.767  -7.748  14.215  1.00  0.00     0.002 A 
HETATM   16  C   UNL     1      42.804  -6.867  13.132  1.00  0.00     0.025 A 
HETATM   17  C   UNL     1      42.365  -7.281  11.869  1.00  0.00     0.048 A 
HETATM   18 CL   UNL     1      42.414  -6.122  10.587  1.00  0.00    -0.083 Cl
ENDBRANCH   4  12
ENDBRANCH   1   2
BRANCH   1  19
HETATM   19  C   UNL     1      41.115 -10.305   5.708  1.00  0.00     0.185 C 
BRANCH  19  20
HETATM   20  C   UNL     1      42.167 -11.380   5.443  1.00  0.00     0.231 C 
HETATM   21  N   UNL     1      41.698 -12.662   5.678  1.00  0.00    -0.326 N 
HETATM   22  H   UNL     1      40.684 -12.755   5.757  1.00  0.00     0.169 HD
HETATM   23  O   UNL     1      43.286 -11.088   5.028  1.00  0.00    -0.272 OA
BRANCH  21  24
HETATM   24  C   UNL     1      42.396 -13.880   5.541  1.00  0.00     0.037 A 
HETATM   25  C   UNL     1      42.294 -14.712   4.421  1.00  0.00     0.061 A 
HETATM   26  C   UNL     1      43.006 -15.891   4.454  1.00  0.00     0.065 A 
HETATM   27  C   UNL     1      43.812 -16.250   5.532  1.00  0.00     0.063 A 
HETATM   28  N   UNL     1      43.074 -16.912   3.513  1.00  0.00    -0.306 N 
HETATM   29  N   UNL     1      44.378 -17.488   5.252  1.00  0.00    -0.307 N 
HETATM   30  C   UNL     1      43.950 -15.452   6.637  1.00  0.00     0.034 A 
HETATM   31  C   UNL     1      43.925 -17.917   3.997  1.00  0.00     0.325 A 
HETATM   32  H   UNL     1      45.008 -18.016   5.833  1.00  0.00     0.170 HD
HETATM   33  O   UNL     1      44.209 -18.961   3.438  1.00  0.00    -0.247 OA
HETATM   34  C   UNL     1      43.227 -14.253   6.633  1.00  0.00     0.032 A 
HETATM   35  H   UNL     1      42.605 -16.953   2.622  1.00  0.00     0.170 HD
ENDBRANCH  21  24
ENDBRANCH  19  20
ENDBRANCH   1  19
TORSDOF 6
ENDMDL
MODEL 5
REMARK VINA RESULT:      -8.9      2.371      3.971
REMARK  6 active torsions:
REMARK  status: ('A' for Active; 'I' for Inactive)
REMARK    1  A    between atoms: C_3  and  C_4 
REMARK    2  A    between atoms: N_5  and  C_6 
REMARK    3  A    between atoms: C_11  and  S_12 
REMARK    4  A    between atoms: S_12  and  C_13 
REMARK    5  A    between atoms: C_13  and  C_14 
REMARK       I    between atoms: C_14  and  N_15 
REMARK    6  A    between atoms: N_15  and  C_16 
ROOT
HETATM    1  S   UNL     1      40.218 -12.217   1.179  1.00  0.00    -0.081 SA
ENDROOT
BRANCH   1   2
HETATM    2  C   UNL     1      40.000 -13.009   2.701  1.00  0.00     0.192 C 
HETATM    3  N   UNL     1      40.705 -14.104   3.132  1.00  0.00    -0.302 N 
HETATM    4  C   UNL     1      40.709 -13.967   4.516  1.00  0.00     0.166 C 
HETATM    5  N   UNL     1      39.799 -13.068   4.849  1.00  0.00    -0.128 NA
HETATM    6  N   UNL     1      39.362 -12.458   3.708  1.00  0.00    -0.122 NA
BRANCH   3   7
HETATM    7  C   UNL     1      41.404 -15.130   2.375  1.00  0.00     0.094 C 
HETATM    8  C   UNL     1      42.886 -14.793   2.118  1.00  0.00     0.026 C 
HETATM    9  C   UNL     1      43.524 -16.099   1.668  1.00  0.00     0.002 C 
HETATM   10  C   UNL     1      42.683 -17.207   2.281  1.00  0.00     0.002 C 
HETATM   11  C   UNL     1      41.550 -16.514   3.029  1.00  0.00     0.026 C 
ENDBRANCH   3   7
BRANCH   4  12
HETATM   12  C   UNL     1      41.652 -14.586   5.446  1.00  0.00     0.034 A 
HETATM   13  C   UNL     1      42.962 -14.075   5.516  1.00  0.00     0.017 A 
HETATM   14  C   UNL     1      43.892 -14.600   6.414  1.00  0.00     0.001 A 
HETATM   15  C   UNL     1      43.526 -15.643   7.258  1.00  0.00     0.002 A 
HETATM   16  C   UNL     1      42.229 -16.158   7.207  1.00  0.00     0.025 A 
HETATM   17  C   UNL     1      41.293 -15.630   6.310  1.00  0.00     0.048 A 
HETATM   18 CL   UNL     1      39.718 -16.344   6.285  1.00  0.00    -0.083 Cl
ENDBRANCH   4  12
ENDBRANCH   1   2
BRANCH   1  19
HETATM   19  C   UNL     1      40.456 -10.506   1.758  1.00  0.00     0.185 C 
BRANCH  19  20
HETATM   20  C   UNL     1      41.497 -10.444   2.873  1.00  0.00     0.231 C 
HETATM   21  N   UNL     1      40.976  -9.982   4.071  1.00  0.00    -0.326 N 
HETATM   22  H   UNL     1      39.957  -9.973   4.136  1.00  0.00     0.169 HD
HETATM   23  O   UNL     1      42.654 -10.815   2.687  1.00  0.00    -0.272 OA
BRANCH  21  24
HETATM   24  C   UNL     1      41.650  -9.796   5.296  1.00  0.00     0.037 A 
HETATM   25  C   UNL     1      42.365 -10.804   5.950  1.00  0.00     0.061 A 
HETATM   26  C   UNL     1      42.933 -10.479   7.162  1.00  0.00     0.065 A 
HETATM   27  C   UNL     1      42.833  -9.206   7.720  1.00  0.00     0.063 A 
HETATM   28  N   UNL     1      43.665 -11.271   8.040  1.00  0.00    -0.306 N 
HETATM   29  N   UNL     1      43.505  -9.215   8.936  1.00  0.00    -0.307 N 
HETATM   30  C   UNL     1      42.157  -8.189   7.099  1.00  0.00     0.034 A 
HETATM   31  C   UNL     1      44.028 -10.497   9.152  1.00  0.00     0.325 A 
HETATM   32  H   UNL     1      43.613  -8.448   9.579  1.00  0.00     0.170 HD
HETATM   33  O   UNL     1      44.666 -10.869  10.120  1.00  0.00    -0.247 OA
HETATM   34  C   UNL     1      41.559  -8.498   5.871  1.00  0.00     0.032 A 
HETATM   35  H   UNL     1      43.913 -12.241   7.924  1.00  0.00     0.170 HD
ENDBRANCH  21  24
ENDBRANCH  19  20
ENDBRANCH   1  19
TORSDOF 6
ENDMDL
MODEL 6
REMARK VINA RESULT:      -8.8      3.092      5.120
REMARK  6 active torsions:
REMARK  status: ('A' for Active; 'I' for Inactive)
REMARK    1  A    between atoms: C_3  and  C_4 
REMARK    2  A    between atoms: N_5  and  C_6 
REMARK    3  A    between atoms: C_11  and  S_12 
REMARK    4  A    between atoms: S_12  and  C_13 
REMARK    5  A    between atoms: C_13  and  C_14 
REMARK       I    between atoms: C_14  and  N_15 
REMARK    6  A    between atoms: N_15  and  C_16 
ROOT
HETATM    1  S   UNL     1      43.110 -10.810   6.769  1.00  0.00    -0.081 SA
ENDROOT
BRANCH   1   2
HETATM    2  C   UNL     1      43.457 -11.746   5.357  1.00  0.00     0.192 C 
HETATM    3  N   UNL     1      43.176 -13.081   5.203  1.00  0.00    -0.302 N 
HETATM    4  C   UNL     1      42.983 -13.218   3.833  1.00  0.00     0.166 C 
HETATM    5  N   UNL     1      43.451 -12.137   3.234  1.00  0.00    -0.128 NA
HETATM    6  N   UNL     1      43.738 -11.207   4.194  1.00  0.00    -0.122 NA
BRANCH   3   7
HETATM    7  C   UNL     1      42.993 -14.124   6.199  1.00  0.00     0.094 C 
HETATM    8  C   UNL     1      41.564 -14.701   6.221  1.00  0.00     0.026 C 
HETATM    9  C   UNL     1      41.661 -15.990   7.023  1.00  0.00     0.002 C 
HETATM   10  C   UNL     1      43.095 -16.469   6.869  1.00  0.00     0.002 C 
HETATM   11  C   UNL     1      43.804 -15.419   6.022  1.00  0.00     0.026 C 
ENDBRANCH   3   7
BRANCH   4  12
HETATM   12  C   UNL     1      42.254 -14.295   3.164  1.00  0.00     0.034 A 
HETATM   13  C   UNL     1      42.972 -15.425   2.729  1.00  0.00     0.017 A 
HETATM   14  C   UNL     1      42.321 -16.500   2.122  1.00  0.00     0.001 A 
HETATM   15  C   UNL     1      40.943 -16.462   1.942  1.00  0.00     0.002 A 
HETATM   16  C   UNL     1      40.214 -15.352   2.373  1.00  0.00     0.025 A 
HETATM   17  C   UNL     1      40.863 -14.274   2.986  1.00  0.00     0.048 A 
HETATM   18 CL   UNL     1      39.895 -12.924   3.463  1.00  0.00    -0.083 Cl
ENDBRANCH   4  12
ENDBRANCH   1   2
BRANCH   1  19
HETATM   19  C   UNL     1      44.472 -11.363   7.844  1.00  0.00     0.185 C 
BRANCH  19  20
HETATM   20  C   UNL     1      44.485 -10.586   9.158  1.00  0.00     0.231 C 
HETATM   21  N   UNL     1      43.238 -10.091   9.504  1.00  0.00    -0.326 N 
HETATM   22  H   UNL     1      42.447 -10.491   8.996  1.00  0.00     0.169 HD
HETATM   23  O   UNL     1      45.512 -10.475   9.823  1.00  0.00    -0.272 OA
BRANCH  21  24
HETATM   24  C   UNL     1      42.890  -9.330  10.639  1.00  0.00     0.037 A 
HETATM   25  C   UNL     1      42.697  -9.878  11.911  1.00  0.00     0.061 A 
HETATM   26  C   UNL     1      42.319  -9.010  12.912  1.00  0.00     0.065 A 
HETATM   27  C   UNL     1      42.149  -7.645  12.696  1.00  0.00     0.063 A 
HETATM   28  N   UNL     1      42.031  -9.269  14.248  1.00  0.00    -0.306 N 
HETATM   29  N   UNL     1      41.762  -7.064  13.898  1.00  0.00    -0.307 N 
HETATM   30  C   UNL     1      42.348  -7.070  11.468  1.00  0.00     0.034 A 
HETATM   31  C   UNL     1      41.681  -8.064  14.876  1.00  0.00     0.325 A 
HETATM   32  H   UNL     1      41.563  -6.092  14.070  1.00  0.00     0.170 HD
HETATM   33  O   UNL     1      41.361  -7.918  16.042  1.00  0.00    -0.247 OA
HETATM   34  C   UNL     1      42.722  -7.934  10.431  1.00  0.00     0.032 A 
HETATM   35  H   UNL     1      42.062 -10.160  14.717  1.00  0.00     0.170 HD
ENDBRANCH  21  24
ENDBRANCH  19  20
ENDBRANCH   1  19
TORSDOF 6
ENDMDL
MODEL 7
REMARK VINA RESULT:      -8.7      4.521      7.612
REMARK  6 active torsions:
REMARK  status: ('A' for Active; 'I' for Inactive)
REMARK    1  A    between atoms: C_3  and  C_4 
REMARK    2  A    between atoms: N_5  and  C_6 
REMARK    3  A    between atoms: C_11  and  S_12 
REMARK    4  A    between atoms: S_12  and  C_13 
REMARK    5  A    between atoms: C_13  and  C_14 
REMARK       I    between atoms: C_14  and  N_15 
REMARK    6  A    between atoms: N_15  and  C_16 
ROOT
HETATM    1  S   UNL     1      40.673 -13.889   2.396  1.00  0.00    -0.081 SA
ENDROOT
BRANCH   1   2
HETATM    2  C   UNL     1      42.117 -14.840   2.430  1.00  0.00     0.192 C 
HETATM    3  N   UNL     1      42.421 -15.785   3.377  1.00  0.00    -0.302 N 
HETATM    4  C   UNL     1      43.224 -16.690   2.691  1.00  0.00     0.166 C 
HETATM    5  N   UNL     1      43.617 -16.127   1.562  1.00  0.00    -0.128 NA
HETATM    6  N   UNL     1      42.912 -14.969   1.393  1.00  0.00    -0.122 NA
BRANCH   3   7
HETATM    7  C   UNL     1      41.954 -15.927   4.747  1.00  0.00     0.094 C 
HETATM    8  C   UNL     1      42.025 -14.615   5.553  1.00  0.00     0.026 C 
HETATM    9  C   UNL     1      41.173 -14.856   6.790  1.00  0.00     0.002 C 
HETATM   10  C   UNL     1      40.154 -15.912   6.396  1.00  0.00     0.002 C 
HETATM   11  C   UNL     1      40.475 -16.292   4.955  1.00  0.00     0.026 C 
ENDBRANCH   3   7
BRANCH   4  12
HETATM   12  C   UNL     1      43.476 -18.081   3.064  1.00  0.00     0.034 A 
HETATM   13  C   UNL     1      43.075 -19.098   2.178  1.00  0.00     0.017 A 
HETATM   14  C   UNL     1      43.327 -20.441   2.464  1.00  0.00     0.001 A 
HETATM   15  C   UNL     1      43.986 -20.787   3.639  1.00  0.00     0.002 A 
HETATM   16  C   UNL     1      44.397 -19.790   4.527  1.00  0.00     0.025 A 
HETATM   17  C   UNL     1      44.149 -18.442   4.240  1.00  0.00     0.048 A 
HETATM   18 CL   UNL     1      44.661 -17.271   5.404  1.00  0.00    -0.083 Cl
ENDBRANCH   4  12
ENDBRANCH   1   2
BRANCH   1  19
HETATM   19  C   UNL     1      41.371 -12.296   1.856  1.00  0.00     0.185 C 
BRANCH  19  20
HETATM   20  C   UNL     1      40.681 -11.796   0.589  1.00  0.00     0.231 C 
HETATM   21  N   UNL     1      39.435 -12.368   0.391  1.00  0.00    -0.326 N 
HETATM   22  H   UNL     1      39.034 -12.846   1.200  1.00  0.00     0.169 HD
HETATM   23  O   UNL     1      41.203 -10.943  -0.127  1.00  0.00    -0.272 OA
BRANCH  21  24
HETATM   24  C   UNL     1      38.535 -12.141  -0.670  1.00  0.00     0.037 A 
HETATM   25  C   UNL     1      37.810 -10.956  -0.834  1.00  0.00     0.061 A 
HETATM   26  C   UNL     1      36.937 -10.902  -1.898  1.00  0.00     0.065 A 
HETATM   27  C   UNL     1      36.780 -11.957  -2.794  1.00  0.00     0.063 A 
HETATM   28  N   UNL     1      36.076  -9.882  -2.287  1.00  0.00    -0.306 N 
HETATM   29  N   UNL     1      35.828 -11.584  -3.735  1.00  0.00    -0.307 N 
HETATM   30  C   UNL     1      37.487 -13.125  -2.676  1.00  0.00     0.034 A 
HETATM   31  C   UNL     1      35.376 -10.293  -3.431  1.00  0.00     0.325 A 
HETATM   32  H   UNL     1      35.494 -12.128  -4.514  1.00  0.00     0.170 HD
HETATM   33  O   UNL     1      34.535  -9.655  -4.038  1.00  0.00    -0.247 OA
HETATM   34  C   UNL     1      38.373 -13.209  -1.595  1.00  0.00     0.032 A 
HETATM   35  H   UNL     1      35.953  -8.985  -1.845  1.00  0.00     0.170 HD
ENDBRANCH  21  24
ENDBRANCH  19  20
ENDBRANCH   1  19
TORSDOF 6
ENDMDL
MODEL 8
REMARK VINA RESULT:      -8.7      2.892      8.153
REMARK  6 active torsions:
REMARK  status: ('A' for Active; 'I' for Inactive)
REMARK    1  A    between atoms: C_3  and  C_4 
REMARK    2  A    between atoms: N_5  and  C_6 
REMARK    3  A    between atoms: C_11  and  S_12 
REMARK    4  A    between atoms: S_12  and  C_13 
REMARK    5  A    between atoms: C_13  and  C_14 
REMARK       I    between atoms: C_14  and  N_15 
REMARK    6  A    between atoms: N_15  and  C_16 
ROOT
HETATM    1  S   UNL     1      43.229 -11.897   3.555  1.00  0.00    -0.081 SA
ENDROOT
BRANCH   1   2
HETATM    2  C   UNL     1      42.568 -10.963   4.852  1.00  0.00     0.192 C 
HETATM    3  N   UNL     1      42.679 -11.269   6.185  1.00  0.00    -0.302 N 
HETATM    4  C   UNL     1      42.638 -10.027   6.810  1.00  0.00     0.166 C 
HETATM    5  N   UNL     1      42.200  -9.135   5.940  1.00  0.00    -0.128 NA
HETATM    6  N   UNL     1      42.166  -9.721   4.706  1.00  0.00    -0.122 NA
BRANCH   3   7
HETATM    7  C   UNL     1      42.904 -12.547   6.840  1.00  0.00     0.094 C 
HETATM    8  C   UNL     1      41.795 -13.579   6.559  1.00  0.00     0.026 C 
HETATM    9  C   UNL     1      42.371 -14.919   6.994  1.00  0.00     0.002 C 
HETATM   10  C   UNL     1      43.879 -14.785   6.865  1.00  0.00     0.002 C 
HETATM   11  C   UNL     1      44.140 -13.354   6.409  1.00  0.00     0.026 C 
ENDBRANCH   3   7
BRANCH   4  12
HETATM   12  C   UNL     1      43.136  -9.715   8.149  1.00  0.00     0.034 A 
HETATM   13  C   UNL     1      42.210  -9.341   9.141  1.00  0.00     0.017 A 
HETATM   14  C   UNL     1      42.624  -9.071  10.447  1.00  0.00     0.001 A 
HETATM   15  C   UNL     1      43.970  -9.174  10.780  1.00  0.00     0.002 A 
HETATM   16  C   UNL     1      44.902  -9.551   9.811  1.00  0.00     0.025 A 
HETATM   17  C   UNL     1      44.489  -9.825   8.501  1.00  0.00     0.048 A 
HETATM   18 CL   UNL     1      45.707 -10.254   7.353  1.00  0.00    -0.083 Cl
ENDBRANCH   4  12
ENDBRANCH   1   2
BRANCH   1  19
HETATM   19  C   UNL     1      41.690 -12.569   2.850  1.00  0.00     0.185 C 
BRANCH  19  20
HETATM   20  C   UNL     1      41.585 -14.073   3.096  1.00  0.00     0.231 C 
HETATM   21  N   UNL     1      42.799 -14.726   2.968  1.00  0.00    -0.326 N 
HETATM   22  H   UNL     1      43.626 -14.127   2.969  1.00  0.00     0.169 HD
HETATM   23  O   UNL     1      40.517 -14.593   3.411  1.00  0.00    -0.272 OA
BRANCH  21  24
HETATM   24  C   UNL     1      43.064 -16.103   3.121  1.00  0.00     0.037 A 
HETATM   25  C   UNL     1      43.384 -16.701   4.344  1.00  0.00     0.061 A 
HETATM   26  C   UNL     1      43.658 -18.050   4.325  1.00  0.00     0.065 A 
HETATM   27  C   UNL     1      43.607 -18.810   3.158  1.00  0.00     0.063 A 
HETATM   28  N   UNL     1      44.029 -18.895   5.365  1.00  0.00    -0.306 N 
HETATM   29  N   UNL     1      43.941 -20.119   3.481  1.00  0.00    -0.307 N 
HETATM   30  C   UNL     1      43.280 -18.261   1.945  1.00  0.00     0.034 A 
HETATM   31  C   UNL     1      44.210 -20.189   4.855  1.00  0.00     0.325 A 
HETATM   32  H   UNL     1      43.993 -20.907   2.857  1.00  0.00     0.170 HD
HETATM   33  O   UNL     1      44.543 -21.179   5.481  1.00  0.00    -0.247 OA
HETATM   34  C   UNL     1      43.007 -16.888   1.937  1.00  0.00     0.032 A 
HETATM   35  H   UNL     1      44.152 -18.651   6.335  1.00  0.00     0.170 HD
ENDBRANCH  21  24
ENDBRANCH  19  20
ENDBRANCH   1  19
TORSDOF 6
ENDMDL
MODEL 9
REMARK VINA RESULT:      -8.6      3.243      5.374
REMARK  6 active torsions:
REMARK  status: ('A' for Active; 'I' for Inactive)
REMARK    1  A    between atoms: C_3  and  C_4 
REMARK    2  A    between atoms: N_5  and  C_6 
REMARK    3  A    between atoms: C_11  and  S_12 
REMARK    4  A    between atoms: S_12  and  C_13 
REMARK    5  A    between atoms: C_13  and  C_14 
REMARK       I    between atoms: C_14  and  N_15 
REMARK    6  A    between atoms: N_15  and  C_16 
ROOT
HETATM    1  S   UNL     1      43.974 -11.611   7.386  1.00  0.00    -0.081 SA
ENDROOT
BRANCH   1   2
HETATM    2  C   UNL     1      43.979 -12.099   5.727  1.00  0.00     0.192 C 
HETATM    3  N   UNL     1      43.432 -13.260   5.241  1.00  0.00    -0.302 N 
HETATM    4  C   UNL     1      43.069 -12.930   3.939  1.00  0.00     0.166 C 
HETATM    5  N   UNL     1      43.668 -11.798   3.612  1.00  0.00    -0.128 NA
HETATM    6  N   UNL     1      44.231 -11.270   4.740  1.00  0.00    -0.122 NA
BRANCH   3   7
HETATM    7  C   UNL     1      43.162 -14.523   5.908  1.00  0.00     0.094 C 
HETATM    8  C   UNL     1      41.689 -14.684   6.330  1.00  0.00     0.026 C 
HETATM    9  C   UNL     1      41.521 -16.162   6.652  1.00  0.00     0.002 C 
HETATM   10  C   UNL     1      42.569 -16.889   5.826  1.00  0.00     0.002 C 
HETATM   11  C   UNL     1      43.350 -15.809   5.086  1.00  0.00     0.026 C 
ENDBRANCH   3   7
BRANCH   4  12
HETATM   12  C   UNL     1      42.079 -13.620   3.115  1.00  0.00     0.034 A 
HETATM   13  C   UNL     1      42.525 -14.585   2.193  1.00  0.00     0.017 A 
HETATM   14  C   UNL     1      41.621 -15.304   1.409  1.00  0.00     0.001 A 
HETATM   15  C   UNL     1      40.256 -15.071   1.538  1.00  0.00     0.002 A 
HETATM   16  C   UNL     1      39.794 -14.122   2.453  1.00  0.00     0.025 A 
HETATM   17  C   UNL     1      40.699 -13.402   3.243  1.00  0.00     0.048 A 
HETATM   18 CL   UNL     1      40.050 -12.223   4.328  1.00  0.00    -0.083 Cl
ENDBRANCH   4  12
ENDBRANCH   1   2
BRANCH   1  19
HETATM   19  C   UNL     1      45.354 -10.423   7.358  1.00  0.00     0.185 C 
BRANCH  19  20
HETATM   20  C   UNL     1      45.082  -9.245   8.291  1.00  0.00     0.231 C 
HETATM   21  N   UNL     1      44.049  -9.489   9.182  1.00  0.00    -0.326 N 
HETATM   22  H   UNL     1      43.767 -10.466   9.275  1.00  0.00     0.169 HD
HETATM   23  O   UNL     1      45.765  -8.223   8.244  1.00  0.00    -0.272 OA
BRANCH  21  24
HETATM   24  C   UNL     1      43.535  -8.627  10.171  1.00  0.00     0.037 A 
HETATM   25  C   UNL     1      42.865  -7.432   9.889  1.00  0.00     0.061 A 
HETATM   26  C   UNL     1      42.459  -6.676  10.967  1.00  0.00     0.065 A 
HETATM   27  C   UNL     1      42.676  -7.071  12.285  1.00  0.00     0.063 A 
HETATM   28  N   UNL     1      41.807  -5.448  10.993  1.00  0.00    -0.306 N 
HETATM   29  N   UNL     1      42.154  -6.090  13.119  1.00  0.00    -0.307 N 
HETATM   30  C   UNL     1      43.312  -8.243  12.599  1.00  0.00     0.034 A 
HETATM   31  C   UNL     1      41.611  -5.068  12.329  1.00  0.00     0.325 A 
HETATM   32  H   UNL     1      42.154  -6.083  14.126  1.00  0.00     0.170 HD
HETATM   33  O   UNL     1      41.080  -4.046  12.725  1.00  0.00    -0.247 OA
HETATM   34  C   UNL     1      43.745  -9.025  11.521  1.00  0.00     0.032 A 
HETATM   35  H   UNL     1      41.510  -4.898  10.202  1.00  0.00     0.170 HD
ENDBRANCH  21  24
ENDBRANCH  19  20
ENDBRANCH   1  19
TORSDOF 6
ENDMDL
MODEL 10
REMARK VINA RESULT:      -8.6      3.854      7.886
REMARK  6 active torsions:
REMARK  status: ('A' for Active; 'I' for Inactive)
REMARK    1  A    between atoms: C_3  and  C_4 
REMARK    2  A    between atoms: N_5  and  C_6 
REMARK    3  A    between atoms: C_11  and  S_12 
REMARK    4  A    between atoms: S_12  and  C_13 
REMARK    5  A    between atoms: C_13  and  C_14 
REMARK       I    between atoms: C_14  and  N_15 
REMARK    6  A    between atoms: N_15  and  C_16 
ROOT
HETATM    1  S   UNL     1      40.253 -11.673   5.148  1.00  0.00    -0.081 SA
ENDROOT
BRANCH   1   2
HETATM    2  C   UNL     1      40.617 -11.057   3.573  1.00  0.00     0.192 C 
HETATM    3  N   UNL     1      40.616 -11.794   2.416  1.00  0.00    -0.302 N 
HETATM    4  C   UNL     1      40.289 -10.862   1.436  1.00  0.00     0.166 C 
HETATM    5  N   UNL     1      40.431  -9.651   1.946  1.00  0.00    -0.128 NA
HETATM    6  N   UNL     1      40.626  -9.775   3.292  1.00  0.00    -0.122 NA
BRANCH   3   7
HETATM    7  C   UNL     1      40.791 -13.222   2.210  1.00  0.00     0.094 C 
HETATM    8  C   UNL     1      39.480 -14.021   2.344  1.00  0.00     0.026 C 
HETATM    9  C   UNL     1      39.776 -15.386   1.742  1.00  0.00     0.002 C 
HETATM   10  C   UNL     1      40.891 -15.164   0.734  1.00  0.00     0.002 C 
HETATM   11  C   UNL     1      41.247 -13.684   0.816  1.00  0.00     0.026 C 
ENDBRANCH   3   7
BRANCH   4  12
HETATM   12  C   UNL     1      39.734 -11.153   0.115  1.00  0.00     0.034 A 
HETATM   13  C   UNL     1      40.607 -11.189  -0.989  1.00  0.00     0.017 A 
HETATM   14  C   UNL     1      40.139 -11.502  -2.266  1.00  0.00     0.001 A 
HETATM   15  C   UNL     1      38.792 -11.786  -2.459  1.00  0.00     0.002 A 
HETATM   16  C   UNL     1      37.912 -11.762  -1.374  1.00  0.00     0.025 A 
HETATM   17  C   UNL     1      38.379 -11.452  -0.091  1.00  0.00     0.048 A 
HETATM   18 CL   UNL     1      37.223 -11.411   1.192  1.00  0.00    -0.083 Cl
ENDBRANCH   4  12
ENDBRANCH   1   2
BRANCH   1  19
HETATM   19  C   UNL     1      41.881 -12.360   5.589  1.00  0.00     0.185 C 
BRANCH  19  20
HETATM   20  C   UNL     1      41.873 -13.885   5.506  1.00  0.00     0.231 C 
HETATM   21  N   UNL     1      42.965 -14.394   4.822  1.00  0.00    -0.326 N 
HETATM   22  H   UNL     1      43.738 -13.742   4.675  1.00  0.00     0.169 HD
HETATM   23  O   UNL     1      40.988 -14.548   6.043  1.00  0.00    -0.272 OA
BRANCH  21  24
HETATM   24  C   UNL     1      43.270 -15.744   4.556  1.00  0.00     0.037 A 
HETATM   25  C   UNL     1      43.028 -16.368   3.328  1.00  0.00     0.061 A 
HETATM   26  C   UNL     1      43.342 -17.707   3.237  1.00  0.00     0.065 A 
HETATM   27  C   UNL     1      43.895 -18.422   4.297  1.00  0.00     0.063 A 
HETATM   28  N   UNL     1      43.186 -18.583   2.169  1.00  0.00    -0.306 N 
HETATM   29  N   UNL     1      44.083 -19.734   3.880  1.00  0.00    -0.307 N 
HETATM   30  C   UNL     1      44.164 -17.838   5.508  1.00  0.00     0.034 A 
HETATM   31  C   UNL     1      43.642 -19.852   2.555  1.00  0.00     0.325 A 
HETATM   32  H   UNL     1      44.465 -20.495   4.416  1.00  0.00     0.170 HD
HETATM   33  O   UNL     1      43.647 -20.862   1.874  1.00  0.00    -0.247 OA
HETATM   34  C   UNL     1      43.842 -16.481   5.630  1.00  0.00     0.032 A 
HETATM   35  H   UNL     1      42.813 -18.373   1.257  1.00  0.00     0.170 HD
ENDBRANCH  21  24
ENDBRANCH  19  20
ENDBRANCH   1  19
TORSDOF 6
ENDMDL
