MODEL 1
REMARK VINA RESULT:      -7.9      0.000      0.000
REMARK  6 active torsions:
REMARK  status: ('A' for Active; 'I' for Inactive)
REMARK    1  A    between atoms: C_2  and  N_3 
REMARK    2  A    between atoms: N_3  and  C_5 
REMARK    3  A    between atoms: N_3  and  C_17 
REMARK    4  A    between atoms: C_5  and  C_6 
REMARK       I    between atoms: C_6  and  N_7 
REMARK    5  A    between atoms: N_7  and  C_8 
REMARK    6  A    between atoms: C_17  and  C_18 
ROOT
HETATM    1  N   UNL     1      42.396 -15.316   5.226  1.00  0.00    -0.059 N 
HETATM    2  H   UNL     1      41.739 -15.655   4.512  1.00  0.00     0.280 HD
ENDROOT
BRANCH   1   3
HETATM    3  C   UNL     1      41.655 -15.308   6.558  1.00  0.00     0.231 C 
HETATM    4  C   UNL     1      40.260 -15.884   6.413  1.00  0.00     0.034 C 
ENDBRANCH   1   3
BRANCH   1   5
HETATM    5  C   UNL     1      42.814 -13.915   4.741  1.00  0.00     0.337 C 
BRANCH   5   6
HETATM    6  C   UNL     1      42.625 -13.675   3.241  1.00  0.00     0.248 C 
HETATM    7  N   UNL     1      41.303 -13.568   2.843  1.00  0.00    -0.325 N 
HETATM    8  H   UNL     1      40.584 -13.913   3.461  1.00  0.00     0.169 HD
HETATM    9  O   UNL     1      43.601 -13.702   2.496  1.00  0.00    -0.271 OA
BRANCH   7  10
HETATM   10  C   UNL     1      40.900 -13.429   1.491  1.00  0.00     0.046 A 
HETATM   11  C   UNL     1      40.267 -14.536   0.876  1.00  0.00    -0.035 A 
HETATM   12  C   UNL     1      40.078 -15.856   1.576  1.00  0.00     0.050 C 
HETATM   13  C   UNL     1      39.849 -14.435  -0.460  1.00  0.00     0.009 A 
HETATM   14  C   UNL     1      40.043 -13.261  -1.179  1.00  0.00     0.001 A 
HETATM   15  C   UNL     1      40.641 -12.165  -0.564  1.00  0.00     0.009 A 
HETATM   16  C   UNL     1      41.053 -12.221   0.779  1.00  0.00    -0.035 A 
HETATM   17  C   UNL     1      41.591 -10.948   1.377  1.00  0.00     0.050 C 
ENDBRANCH   7  10
ENDBRANCH   5   6
ENDBRANCH   1   5
BRANCH   1  18
HETATM   18  C   UNL     1      43.549 -16.299   5.246  1.00  0.00     0.276 C 
BRANCH  18  19
HETATM   19  C   UNL     1      43.513 -17.377   4.192  1.00  0.00    -0.003 A 
HETATM   20  C   UNL     1      43.738 -18.741   4.497  1.00  0.00     0.069 A 
HETATM   21  C   UNL     1      43.684 -19.763   3.550  1.00  0.00     0.012 A 
HETATM   22  N   UNL     1      44.023 -19.392   5.677  1.00  0.00    -0.277 N 
HETATM   23  C   UNL     1      43.969 -20.946   4.267  1.00  0.00     0.152 A 
HETATM   24  C   UNL     1      43.385 -19.457   2.215  1.00  0.00     0.015 A 
HETATM   25  N   UNL     1      44.186 -20.714   5.561  1.00  0.00    -0.186 NA
HETATM   26  C   UNL     1      43.135 -18.129   1.875  1.00  0.00     0.002 A 
HETATM   27  C   UNL     1      43.191 -17.119   2.840  1.00  0.00     0.011 A 
HETATM   28  H   UNL     1      44.124 -19.006   6.607  1.00  0.00     0.189 HD
ENDBRANCH  18  19
ENDBRANCH   1  18
TORSDOF 6
ENDMDL
MODEL 2
REMARK VINA RESULT:      -7.9      1.922      6.690
REMARK  6 active torsions:
REMARK  status: ('A' for Active; 'I' for Inactive)
REMARK    1  A    between atoms: C_2  and  N_3 
REMARK    2  A    between atoms: N_3  and  C_5 
REMARK    3  A    between atoms: N_3  and  C_17 
REMARK    4  A    between atoms: C_5  and  C_6 
REMARK       I    between atoms: C_6  and  N_7 
REMARK    5  A    between atoms: N_7  and  C_8 
REMARK    6  A    between atoms: C_17  and  C_18 
ROOT
HETATM    1  N   UNL     1      40.960 -14.775   1.405  1.00  0.00    -0.059 N 
HETATM    2  H   UNL     1      40.417 -15.083   2.221  1.00  0.00     0.280 HD
ENDROOT
BRANCH   1   3
HETATM    3  C   UNL     1      40.085 -14.975   0.174  1.00  0.00     0.231 C 
HETATM    4  C   UNL     1      40.203 -13.803  -0.779  1.00  0.00     0.034 C 
ENDBRANCH   1   3
BRANCH   1   5
HETATM    5  C   UNL     1      42.222 -15.659   1.418  1.00  0.00     0.337 C 
BRANCH   5   6
HETATM    6  C   UNL     1      42.269 -16.688   2.551  1.00  0.00     0.248 C 
HETATM    7  N   UNL     1      43.414 -17.467   2.566  1.00  0.00    -0.325 N 
HETATM    8  H   UNL     1      43.978 -17.512   1.731  1.00  0.00     0.169 HD
HETATM    9  O   UNL     1      41.290 -16.833   3.278  1.00  0.00    -0.271 OA
BRANCH   7  10
HETATM   10  C   UNL     1      43.624 -18.534   3.477  1.00  0.00     0.046 A 
HETATM   11  C   UNL     1      43.629 -19.851   2.957  1.00  0.00    -0.035 A 
HETATM   12  C   UNL     1      43.350 -20.154   1.509  1.00  0.00     0.050 C 
HETATM   13  C   UNL     1      43.839 -20.932   3.826  1.00  0.00     0.009 A 
HETATM   14  C   UNL     1      44.049 -20.723   5.184  1.00  0.00     0.001 A 
HETATM   15  C   UNL     1      44.071 -19.426   5.688  1.00  0.00     0.009 A 
HETATM   16  C   UNL     1      43.887 -18.316   4.845  1.00  0.00    -0.035 A 
HETATM   17  C   UNL     1      44.034 -16.956   5.474  1.00  0.00     0.050 C 
ENDBRANCH   7  10
ENDBRANCH   5   6
ENDBRANCH   1   5
BRANCH   1  18
HETATM   18  C   UNL     1      41.270 -13.308   1.626  1.00  0.00     0.276 C 
BRANCH  18  19
HETATM   19  C   UNL     1      41.954 -12.969   2.927  1.00  0.00    -0.003 A 
HETATM   20  C   UNL     1      41.483 -13.443   4.175  1.00  0.00     0.069 A 
HETATM   21  C   UNL     1      42.108 -13.169   5.391  1.00  0.00     0.012 A 
HETATM   22  N   UNL     1      40.410 -14.235   4.521  1.00  0.00    -0.277 N 
HETATM   23  C   UNL     1      41.321 -13.820   6.366  1.00  0.00     0.152 A 
HETATM   24  C   UNL     1      43.274 -12.392   5.412  1.00  0.00     0.015 A 
HETATM   25  N   UNL     1      40.280 -14.458   5.833  1.00  0.00    -0.186 NA
HETATM   26  C   UNL     1      43.785 -11.923   4.203  1.00  0.00     0.002 A 
HETATM   27  C   UNL     1      43.144 -12.210   2.994  1.00  0.00     0.011 A 
HETATM   28  H   UNL     1      39.716 -14.663   3.920  1.00  0.00     0.189 HD
ENDBRANCH  18  19
ENDBRANCH   1  18
TORSDOF 6
ENDMDL
MODEL 3
REMARK VINA RESULT:      -7.9      2.291      7.583
REMARK  6 active torsions:
REMARK  status: ('A' for Active; 'I' for Inactive)
REMARK    1  A    between atoms: C_2  and  N_3 
REMARK    2  A    between atoms: N_3  and  C_5 
REMARK    3  A    between atoms: N_3  and  C_17 
REMARK    4  A    between atoms: C_5  and  C_6 
REMARK       I    between atoms: C_6  and  N_7 
REMARK    5  A    between atoms: N_7  and  C_8 
REMARK    6  A    between atoms: C_17  and  C_18 
ROOT
HETATM    1  N   UNL     1      42.073 -14.372   1.669  1.00  0.00    -0.059 N 
HETATM    2  H   UNL     1      42.641 -13.663   1.188  1.00  0.00     0.280 HD
ENDROOT
BRANCH   1   3
HETATM    3  C   UNL     1      42.177 -14.099   3.165  1.00  0.00     0.231 C 
HETATM    4  C   UNL     1      40.806 -13.933   3.789  1.00  0.00     0.034 C 
ENDBRANCH   1   3
BRANCH   1   5
HETATM    5  C   UNL     1      42.684 -15.720   1.242  1.00  0.00     0.337 C 
BRANCH   5   6
HETATM    6  C   UNL     1      42.514 -16.850   2.260  1.00  0.00     0.248 C 
HETATM    7  N   UNL     1      43.704 -17.406   2.699  1.00  0.00    -0.325 N 
HETATM    8  H   UNL     1      44.539 -17.250   2.155  1.00  0.00     0.169 HD
HETATM    9  O   UNL     1      41.387 -17.255   2.533  1.00  0.00    -0.271 OA
BRANCH   7  10
HETATM   10  C   UNL     1      43.773 -18.518   3.577  1.00  0.00     0.046 A 
HETATM   11  C   UNL     1      43.787 -18.257   4.969  1.00  0.00    -0.035 A 
HETATM   12  C   UNL     1      43.808 -16.861   5.533  1.00  0.00     0.050 C 
HETATM   13  C   UNL     1      43.848 -19.331   5.870  1.00  0.00     0.009 A 
HETATM   14  C   UNL     1      43.887 -20.642   5.411  1.00  0.00     0.001 A 
HETATM   15  C   UNL     1      43.845 -20.898   4.044  1.00  0.00     0.009 A 
HETATM   16  C   UNL     1      43.761 -19.849   3.111  1.00  0.00    -0.035 A 
HETATM   17  C   UNL     1      43.614 -20.238   1.664  1.00  0.00     0.050 C 
ENDBRANCH   7  10
ENDBRANCH   5   6
ENDBRANCH   1   5
BRANCH   1  18
HETATM   18  C   UNL     1      40.652 -14.189   1.176  1.00  0.00     0.276 C 
BRANCH  18  19
HETATM   19  C   UNL     1      40.504 -13.528  -0.172  1.00  0.00    -0.003 A 
HETATM   20  C   UNL     1      39.754 -14.109  -1.222  1.00  0.00     0.069 A 
HETATM   21  C   UNL     1      39.576 -13.510  -2.468  1.00  0.00     0.012 A 
HETATM   22  N   UNL     1      39.046 -15.288  -1.313  1.00  0.00    -0.277 N 
HETATM   23  C   UNL     1      38.781 -14.416  -3.204  1.00  0.00     0.152 A 
HETATM   24  C   UNL     1      40.152 -12.258  -2.724  1.00  0.00     0.015 A 
HETATM   25  N   UNL     1      38.470 -15.503  -2.499  1.00  0.00    -0.186 NA
HETATM   26  C   UNL     1      40.880 -11.639  -1.710  1.00  0.00     0.002 A 
HETATM   27  C   UNL     1      41.045 -12.256  -0.466  1.00  0.00     0.011 A 
HETATM   28  H   UNL     1      38.908 -16.001  -0.608  1.00  0.00     0.189 HD
ENDBRANCH  18  19
ENDBRANCH   1  18
TORSDOF 6
ENDMDL
MODEL 4
REMARK VINA RESULT:      -7.8      1.973      6.679
REMARK  6 active torsions:
REMARK  status: ('A' for Active; 'I' for Inactive)
REMARK    1  A    between atoms: C_2  and  N_3 
REMARK    2  A    between atoms: N_3  and  C_5 
REMARK    3  A    between atoms: N_3  and  C_17 
REMARK    4  A    between atoms: C_5  and  C_6 
REMARK       I    between atoms: C_6  and  N_7 
REMARK    5  A    between atoms: N_7  and  C_8 
REMARK    6  A    between atoms: C_17  and  C_18 
ROOT
HETATM    1  N   UNL     1      41.544 -13.211   4.631  1.00  0.00    -0.059 N 
HETATM    2  H   UNL     1      42.186 -13.656   3.964  1.00  0.00     0.280 HD
ENDROOT
BRANCH   1   3
HETATM    3  C   UNL     1      42.090 -11.820   4.928  1.00  0.00     0.231 C 
HETATM    4  C   UNL     1      43.282 -11.499   4.048  1.00  0.00     0.034 C 
ENDBRANCH   1   3
BRANCH   1   5
HETATM    5  C   UNL     1      41.538 -14.148   5.854  1.00  0.00     0.337 C 
BRANCH   5   6
HETATM    6  C   UNL     1      41.712 -15.632   5.523  1.00  0.00     0.248 C 
HETATM    7  N   UNL     1      42.981 -15.972   5.082  1.00  0.00    -0.325 N 
HETATM    8  H   UNL     1      43.590 -15.239   4.753  1.00  0.00     0.169 HD
HETATM    9  O   UNL     1      40.738 -16.379   5.557  1.00  0.00    -0.271 OA
BRANCH   7  10
HETATM   10  C   UNL     1      43.335 -17.273   4.643  1.00  0.00     0.046 A 
HETATM   11  C   UNL     1      43.483 -17.480   3.250  1.00  0.00    -0.035 A 
HETATM   12  C   UNL     1      43.210 -16.401   2.235  1.00  0.00     0.050 C 
HETATM   13  C   UNL     1      43.839 -18.752   2.777  1.00  0.00     0.009 A 
HETATM   14  C   UNL     1      44.052 -19.805   3.660  1.00  0.00     0.001 A 
HETATM   15  C   UNL     1      43.933 -19.593   5.030  1.00  0.00     0.009 A 
HETATM   16  C   UNL     1      43.600 -18.327   5.543  1.00  0.00    -0.035 A 
HETATM   17  C   UNL     1      43.600 -18.181   7.042  1.00  0.00     0.050 C 
ENDBRANCH   7  10
ENDBRANCH   5   6
ENDBRANCH   1   5
BRANCH   1  18
HETATM   18  C   UNL     1      40.196 -13.136   3.943  1.00  0.00     0.276 C 
BRANCH  18  19
HETATM   19  C   UNL     1      40.128 -13.739   2.562  1.00  0.00    -0.003 A 
HETATM   20  C   UNL     1      40.417 -12.991   1.395  1.00  0.00     0.069 A 
HETATM   21  C   UNL     1      40.389 -13.527   0.108  1.00  0.00     0.012 A 
HETATM   22  N   UNL     1      40.784 -11.678   1.203  1.00  0.00    -0.277 N 
HETATM   23  C   UNL     1      40.730 -12.455  -0.746  1.00  0.00     0.152 A 
HETATM   24  C   UNL     1      40.071 -14.880  -0.073  1.00  0.00     0.015 A 
HETATM   25  N   UNL     1      40.958 -11.327  -0.075  1.00  0.00    -0.186 NA
HETATM   26  C   UNL     1      39.801 -15.658   1.050  1.00  0.00     0.002 A 
HETATM   27  C   UNL     1      39.836 -15.103   2.333  1.00  0.00     0.011 A 
HETATM   28  H   UNL     1      40.937 -10.954   1.894  1.00  0.00     0.189 HD
ENDBRANCH  18  19
ENDBRANCH   1  18
TORSDOF 6
ENDMDL
MODEL 5
REMARK VINA RESULT:      -7.8      4.081      7.567
REMARK  6 active torsions:
REMARK  status: ('A' for Active; 'I' for Inactive)
REMARK    1  A    between atoms: C_2  and  N_3 
REMARK    2  A    between atoms: N_3  and  C_5 
REMARK    3  A    between atoms: N_3  and  C_17 
REMARK    4  A    between atoms: C_5  and  C_6 
REMARK       I    between atoms: C_6  and  N_7 
REMARK    5  A    between atoms: N_7  and  C_8 
REMARK    6  A    between atoms: C_17  and  C_18 
ROOT
HETATM    1  N   UNL     1      42.282 -12.042   6.465  1.00  0.00    -0.059 N 
HETATM    2  H   UNL     1      41.747 -11.716   7.279  1.00  0.00     0.280 HD
ENDROOT
BRANCH   1   3
HETATM    3  C   UNL     1      42.450 -10.854   5.526  1.00  0.00     0.231 C 
HETATM    4  C   UNL     1      41.699  -9.640   6.037  1.00  0.00     0.034 C 
ENDBRANCH   1   3
BRANCH   1   5
HETATM    5  C   UNL     1      41.437 -13.186   5.872  1.00  0.00     0.337 C 
BRANCH   5   6
HETATM    6  C   UNL     1      42.195 -14.109   4.915  1.00  0.00     0.248 C 
HETATM    7  N   UNL     1      42.007 -15.460   5.157  1.00  0.00    -0.325 N 
HETATM    8  H   UNL     1      41.644 -15.743   6.054  1.00  0.00     0.169 HD
HETATM    9  O   UNL     1      42.975 -13.626   4.099  1.00  0.00    -0.271 OA
BRANCH   7  10
HETATM   10  C   UNL     1      42.680 -16.485   4.443  1.00  0.00     0.046 A 
HETATM   11  C   UNL     1      43.727 -17.169   5.106  1.00  0.00    -0.035 A 
HETATM   12  C   UNL     1      44.190 -16.801   6.491  1.00  0.00     0.050 C 
HETATM   13  C   UNL     1      44.412 -18.194   4.435  1.00  0.00     0.009 A 
HETATM   14  C   UNL     1      44.068 -18.546   3.135  1.00  0.00     0.001 A 
HETATM   15  C   UNL     1      43.021 -17.890   2.495  1.00  0.00     0.009 A 
HETATM   16  C   UNL     1      42.296 -16.874   3.143  1.00  0.00    -0.035 A 
HETATM   17  C   UNL     1      41.117 -16.304   2.401  1.00  0.00     0.050 C 
ENDBRANCH   7  10
ENDBRANCH   5   6
ENDBRANCH   1   5
BRANCH   1  18
HETATM   18  C   UNL     1      43.621 -12.515   6.996  1.00  0.00     0.276 C 
BRANCH  18  19
HETATM   19  C   UNL     1      44.541 -11.438   7.515  1.00  0.00    -0.003 A 
HETATM   20  C   UNL     1      44.239 -10.678   8.669  1.00  0.00     0.069 A 
HETATM   21  C   UNL     1      45.081  -9.695   9.188  1.00  0.00     0.012 A 
HETATM   22  N   UNL     1      43.166 -10.689   9.533  1.00  0.00    -0.277 N 
HETATM   23  C   UNL     1      44.406  -9.191  10.322  1.00  0.00     0.152 A 
HETATM   24  C   UNL     1      46.305  -9.428   8.560  1.00  0.00     0.015 A 
HETATM   25  N   UNL     1      43.234  -9.791  10.521  1.00  0.00    -0.186 NA
HETATM   26  C   UNL     1      46.652 -10.168   7.432  1.00  0.00     0.002 A 
HETATM   27  C   UNL     1      45.795 -11.152   6.929  1.00  0.00     0.011 A 
HETATM   28  H   UNL     1      42.344 -11.280   9.516  1.00  0.00     0.189 HD
ENDBRANCH  18  19
ENDBRANCH   1  18
TORSDOF 6
ENDMDL
MODEL 6
REMARK VINA RESULT:      -7.7      1.575      1.891
REMARK  6 active torsions:
REMARK  status: ('A' for Active; 'I' for Inactive)
REMARK    1  A    between atoms: C_2  and  N_3 
REMARK    2  A    between atoms: N_3  and  C_5 
REMARK    3  A    between atoms: N_3  and  C_17 
REMARK    4  A    between atoms: C_5  and  C_6 
REMARK       I    between atoms: C_6  and  N_7 
REMARK    5  A    between atoms: N_7  and  C_8 
REMARK    6  A    between atoms: C_17  and  C_18 
ROOT
HETATM    1  N   UNL     1      41.189 -14.067   4.846  1.00  0.00    -0.059 N 
HETATM    2  H   UNL     1      40.716 -14.766   4.260  1.00  0.00     0.280 HD
ENDROOT
BRANCH   1   3
HETATM    3  C   UNL     1      40.655 -14.227   6.264  1.00  0.00     0.231 C 
HETATM    4  C   UNL     1      40.149 -15.635   6.505  1.00  0.00     0.034 C 
ENDBRANCH   1   3
BRANCH   1   5
HETATM    5  C   UNL     1      40.838 -12.712   4.202  1.00  0.00     0.337 C 
BRANCH   5   6
HETATM    6  C   UNL     1      40.160 -12.812   2.833  1.00  0.00     0.248 C 
HETATM    7  N   UNL     1      41.009 -13.178   1.801  1.00  0.00    -0.325 N 
HETATM    8  H   UNL     1      42.004 -13.084   1.939  1.00  0.00     0.169 HD
HETATM    9  O   UNL     1      38.986 -12.473   2.713  1.00  0.00    -0.271 OA
BRANCH   7  10
HETATM   10  C   UNL     1      40.606 -13.248   0.443  1.00  0.00     0.046 A 
HETATM   11  C   UNL     1      40.032 -14.460  -0.010  1.00  0.00    -0.035 A 
HETATM   12  C   UNL     1      39.906 -15.678   0.867  1.00  0.00     0.050 C 
HETATM   13  C   UNL     1      39.615 -14.567  -1.346  1.00  0.00     0.009 A 
HETATM   14  C   UNL     1      39.754 -13.496  -2.221  1.00  0.00     0.001 A 
HETATM   15  C   UNL     1      40.294 -12.297  -1.766  1.00  0.00     0.009 A 
HETATM   16  C   UNL     1      40.702 -12.145  -0.429  1.00  0.00    -0.035 A 
HETATM   17  C   UNL     1      41.173 -10.776  -0.016  1.00  0.00     0.050 C 
ENDBRANCH   7  10
ENDBRANCH   5   6
ENDBRANCH   1   5
BRANCH   1  18
HETATM   18  C   UNL     1      42.669 -14.383   4.779  1.00  0.00     0.276 C 
BRANCH  18  19
HETATM   19  C   UNL     1      43.035 -15.675   4.089  1.00  0.00    -0.003 A 
HETATM   20  C   UNL     1      43.310 -16.863   4.807  1.00  0.00     0.069 A 
HETATM   21  C   UNL     1      43.624 -18.077   4.197  1.00  0.00     0.012 A 
HETATM   22  N   UNL     1      43.330 -17.150   6.154  1.00  0.00    -0.277 N 
HETATM   23  C   UNL     1      43.825 -18.984   5.262  1.00  0.00     0.152 A 
HETATM   24  C   UNL     1      43.669 -18.161   2.799  1.00  0.00     0.015 A 
HETATM   25  N   UNL     1      43.656 -18.411   6.453  1.00  0.00    -0.186 NA
HETATM   26  C   UNL     1      43.384 -17.019   2.053  1.00  0.00     0.002 A 
HETATM   27  C   UNL     1      43.069 -15.811   2.683  1.00  0.00     0.011 A 
HETATM   28  H   UNL     1      43.133 -16.537   6.936  1.00  0.00     0.189 HD
ENDBRANCH  18  19
ENDBRANCH   1  18
TORSDOF 6
ENDMDL
MODEL 7
REMARK VINA RESULT:      -7.7      4.131      7.566
REMARK  6 active torsions:
REMARK  status: ('A' for Active; 'I' for Inactive)
REMARK    1  A    between atoms: C_2  and  N_3 
REMARK    2  A    between atoms: N_3  and  C_5 
REMARK    3  A    between atoms: N_3  and  C_17 
REMARK    4  A    between atoms: C_5  and  C_6 
REMARK       I    between atoms: C_6  and  N_7 
REMARK    5  A    between atoms: N_7  and  C_8 
REMARK    6  A    between atoms: C_17  and  C_18 
ROOT
HETATM    1  N   UNL     1      42.295 -11.982   6.476  1.00  0.00    -0.059 N 
HETATM    2  H   UNL     1      41.741 -11.648   7.274  1.00  0.00     0.280 HD
ENDROOT
BRANCH   1   3
HETATM    3  C   UNL     1      42.487 -10.804   5.529  1.00  0.00     0.231 C 
HETATM    4  C   UNL     1      41.799  -9.560   6.055  1.00  0.00     0.034 C 
ENDBRANCH   1   3
BRANCH   1   5
HETATM    5  C   UNL     1      41.462 -13.131   5.875  1.00  0.00     0.337 C 
BRANCH   5   6
HETATM    6  C   UNL     1      42.243 -14.071   4.952  1.00  0.00     0.248 C 
HETATM    7  N   UNL     1      41.979 -15.416   5.153  1.00  0.00    -0.325 N 
HETATM    8  H   UNL     1      41.542 -15.698   6.017  1.00  0.00     0.169 HD
HETATM    9  O   UNL     1      43.098 -13.610   4.202  1.00  0.00    -0.271 OA
BRANCH   7  10
HETATM   10  C   UNL     1      42.652 -16.457   4.466  1.00  0.00     0.046 A 
HETATM   11  C   UNL     1      42.171 -16.819   3.184  1.00  0.00    -0.035 A 
HETATM   12  C   UNL     1      40.944 -16.196   2.572  1.00  0.00     0.050 C 
HETATM   13  C   UNL     1      42.815 -17.841   2.471  1.00  0.00     0.009 A 
HETATM   14  C   UNL     1      43.921 -18.493   3.004  1.00  0.00     0.001 A 
HETATM   15  C   UNL     1      44.409 -18.117   4.252  1.00  0.00     0.009 A 
HETATM   16  C   UNL     1      43.804 -17.082   4.987  1.00  0.00    -0.035 A 
HETATM   17  C   UNL     1      44.474 -16.685   6.276  1.00  0.00     0.050 C 
ENDBRANCH   7  10
ENDBRANCH   5   6
ENDBRANCH   1   5
BRANCH   1  18
HETATM   18  C   UNL     1      43.620 -12.453   7.042  1.00  0.00     0.276 C 
BRANCH  18  19
HETATM   19  C   UNL     1      44.527 -11.372   7.577  1.00  0.00    -0.003 A 
HETATM   20  C   UNL     1      44.229 -10.649   8.756  1.00  0.00     0.069 A 
HETATM   21  C   UNL     1      45.060  -9.665   9.289  1.00  0.00     0.012 A 
HETATM   22  N   UNL     1      43.169 -10.704   9.634  1.00  0.00    -0.277 N 
HETATM   23  C   UNL     1      44.393  -9.204  10.446  1.00  0.00     0.152 A 
HETATM   24  C   UNL     1      46.269  -9.357   8.651  1.00  0.00     0.015 A 
HETATM   25  N   UNL     1      43.234  -9.832  10.645  1.00  0.00    -0.186 NA
HETATM   26  C   UNL     1      46.613 -10.061   7.499  1.00  0.00     0.002 A 
HETATM   27  C   UNL     1      45.767 -11.046   6.981  1.00  0.00     0.011 A 
HETATM   28  H   UNL     1      42.358 -11.310   9.613  1.00  0.00     0.189 HD
ENDBRANCH  18  19
ENDBRANCH   1  18
TORSDOF 6
ENDMDL
MODEL 8
REMARK VINA RESULT:      -7.5      1.863      3.422
REMARK  6 active torsions:
REMARK  status: ('A' for Active; 'I' for Inactive)
REMARK    1  A    between atoms: C_2  and  N_3 
REMARK    2  A    between atoms: N_3  and  C_5 
REMARK    3  A    between atoms: N_3  and  C_17 
REMARK    4  A    between atoms: C_5  and  C_6 
REMARK       I    between atoms: C_6  and  N_7 
REMARK    5  A    between atoms: N_7  and  C_8 
REMARK    6  A    between atoms: C_17  and  C_18 
ROOT
HETATM    1  N   UNL     1      40.354 -14.739   3.893  1.00  0.00    -0.059 N 
HETATM    2  H   UNL     1      39.977 -15.325   4.649  1.00  0.00     0.280 HD
ENDROOT
BRANCH   1   3
HETATM    3  C   UNL     1      39.773 -13.342   4.068  1.00  0.00     0.231 C 
HETATM    4  C   UNL     1      40.859 -12.330   4.376  1.00  0.00     0.034 C 
ENDBRANCH   1   3
BRANCH   1   5
HETATM    5  C   UNL     1      39.907 -15.438   2.595  1.00  0.00     0.337 C 
BRANCH   5   6
HETATM    6  C   UNL     1      40.536 -14.876   1.318  1.00  0.00     0.248 C 
HETATM    7  N   UNL     1      39.735 -13.974   0.637  1.00  0.00    -0.325 N 
HETATM    8  H   UNL     1      38.748 -13.954   0.843  1.00  0.00     0.169 HD
HETATM    9  O   UNL     1      41.613 -15.318   0.929  1.00  0.00    -0.271 OA
BRANCH   7  10
HETATM   10  C   UNL     1      40.089 -13.398  -0.609  1.00  0.00     0.046 A 
HETATM   11  C   UNL     1      40.841 -12.198  -0.590  1.00  0.00    -0.035 A 
HETATM   12  C   UNL     1      41.206 -11.488   0.687  1.00  0.00     0.050 C 
HETATM   13  C   UNL     1      41.215 -11.602  -1.804  1.00  0.00     0.009 A 
HETATM   14  C   UNL     1      40.862 -12.178  -3.018  1.00  0.00     0.001 A 
HETATM   15  C   UNL     1      40.147 -13.372  -3.035  1.00  0.00     0.009 A 
HETATM   16  C   UNL     1      39.774 -14.012  -1.840  1.00  0.00    -0.035 A 
HETATM   17  C   UNL     1      39.096 -15.350  -1.970  1.00  0.00     0.050 C 
ENDBRANCH   7  10
ENDBRANCH   5   6
ENDBRANCH   1   5
BRANCH   1  18
HETATM   18  C   UNL     1      41.859 -14.734   4.068  1.00  0.00     0.276 C 
BRANCH  18  19
HETATM   19  C   UNL     1      42.441 -15.918   4.798  1.00  0.00    -0.003 A 
HETATM   20  C   UNL     1      43.018 -17.017   4.118  1.00  0.00     0.069 A 
HETATM   21  C   UNL     1      43.587 -18.113   4.765  1.00  0.00     0.012 A 
HETATM   22  N   UNL     1      43.186 -17.294   2.779  1.00  0.00    -0.277 N 
HETATM   23  C   UNL     1      44.031 -18.965   3.729  1.00  0.00     0.152 A 
HETATM   24  C   UNL     1      43.614 -18.155   6.165  1.00  0.00     0.015 A 
HETATM   25  N   UNL     1      43.773 -18.466   2.520  1.00  0.00    -0.186 NA
HETATM   26  C   UNL     1      43.077 -17.084   6.875  1.00  0.00     0.002 A 
HETATM   27  C   UNL     1      42.513 -15.992   6.208  1.00  0.00     0.011 A 
HETATM   28  H   UNL     1      42.926 -16.733   1.977  1.00  0.00     0.189 HD
ENDBRANCH  18  19
ENDBRANCH   1  18
TORSDOF 6
ENDMDL
MODEL 9
REMARK VINA RESULT:      -7.4      2.763      5.331
REMARK  6 active torsions:
REMARK  status: ('A' for Active; 'I' for Inactive)
REMARK    1  A    between atoms: C_2  and  N_3 
REMARK    2  A    between atoms: N_3  and  C_5 
REMARK    3  A    between atoms: N_3  and  C_17 
REMARK    4  A    between atoms: C_5  and  C_6 
REMARK       I    between atoms: C_6  and  N_7 
REMARK    5  A    between atoms: N_7  and  C_8 
REMARK    6  A    between atoms: C_17  and  C_18 
ROOT
HETATM    1  N   UNL     1      41.327 -14.448   2.970  1.00  0.00    -0.059 N 
HETATM    2  H   UNL     1      42.231 -14.316   3.439  1.00  0.00     0.280 HD
ENDROOT
BRANCH   1   3
HETATM    3  C   UNL     1      41.485 -13.962   1.534  1.00  0.00     0.231 C 
HETATM    4  C   UNL     1      40.539 -14.692   0.601  1.00  0.00     0.034 C 
ENDBRANCH   1   3
BRANCH   1   5
HETATM    5  C   UNL     1      40.329 -13.617   3.799  1.00  0.00     0.337 C 
BRANCH   5   6
HETATM    6  C   UNL     1      40.889 -13.077   5.118  1.00  0.00     0.248 C 
HETATM    7  N   UNL     1      41.879 -12.120   4.967  1.00  0.00    -0.325 N 
HETATM    8  H   UNL     1      42.345 -12.045   4.076  1.00  0.00     0.169 HD
HETATM    9  O   UNL     1      40.526 -13.577   6.179  1.00  0.00    -0.271 OA
BRANCH   7  10
HETATM   10  C   UNL     1      42.589 -11.551   6.054  1.00  0.00     0.046 A 
HETATM   11  C   UNL     1      42.146 -10.299   6.546  1.00  0.00    -0.035 A 
HETATM   12  C   UNL     1      41.013  -9.534   5.916  1.00  0.00     0.050 C 
HETATM   13  C   UNL     1      42.820  -9.707   7.625  1.00  0.00     0.009 A 
HETATM   14  C   UNL     1      43.908 -10.337   8.217  1.00  0.00     0.001 A 
HETATM   15  C   UNL     1      44.325 -11.580   7.750  1.00  0.00     0.009 A 
HETATM   16  C   UNL     1      43.661 -12.216   6.686  1.00  0.00    -0.035 A 
HETATM   17  C   UNL     1      44.126 -13.603   6.328  1.00  0.00     0.050 C 
ENDBRANCH   7  10
ENDBRANCH   5   6
ENDBRANCH   1   5
BRANCH   1  18
HETATM   18  C   UNL     1      41.034 -15.934   3.017  1.00  0.00     0.276 C 
BRANCH  18  19
HETATM   19  C   UNL     1      42.172 -16.815   3.472  1.00  0.00    -0.003 A 
HETATM   20  C   UNL     1      42.527 -16.945   4.836  1.00  0.00     0.069 A 
HETATM   21  C   UNL     1      43.555 -17.771   5.290  1.00  0.00     0.012 A 
HETATM   22  N   UNL     1      42.019 -16.381   5.985  1.00  0.00    -0.277 N 
HETATM   23  C   UNL     1      43.574 -17.600   6.692  1.00  0.00     0.152 A 
HETATM   24  C   UNL     1      44.289 -18.534   4.372  1.00  0.00     0.015 A 
HETATM   25  N   UNL     1      42.643 -16.743   7.110  1.00  0.00    -0.186 NA
HETATM   26  C   UNL     1      43.958 -18.452   3.021  1.00  0.00     0.002 A 
HETATM   27  C   UNL     1      42.922 -17.620   2.586  1.00  0.00     0.011 A 
HETATM   28  H   UNL     1      41.244 -15.736   6.087  1.00  0.00     0.189 HD
ENDBRANCH  18  19
ENDBRANCH   1  18
TORSDOF 6
ENDMDL
MODEL 10
REMARK VINA RESULT:      -7.4      2.262      7.056
REMARK  6 active torsions:
REMARK  status: ('A' for Active; 'I' for Inactive)
REMARK    1  A    between atoms: C_2  and  N_3 
REMARK    2  A    between atoms: N_3  and  C_5 
REMARK    3  A    between atoms: N_3  and  C_17 
REMARK    4  A    between atoms: C_5  and  C_6 
REMARK       I    between atoms: C_6  and  N_7 
REMARK    5  A    between atoms: N_7  and  C_8 
REMARK    6  A    between atoms: C_17  and  C_18 
ROOT
HETATM    1  N   UNL     1      41.268 -12.596   2.448  1.00  0.00    -0.059 N 
HETATM    2  H   UNL     1      41.783 -13.307   1.913  1.00  0.00     0.280 HD
ENDROOT
BRANCH   1   3
HETATM    3  C   UNL     1      42.243 -11.469   2.763  1.00  0.00     0.231 C 
HETATM    4  C   UNL     1      43.541 -12.009   3.330  1.00  0.00     0.034 C 
ENDBRANCH   1   3
BRANCH   1   5
HETATM    5  C   UNL     1      40.755 -13.340   3.697  1.00  0.00     0.337 C 
BRANCH   5   6
HETATM    6  C   UNL     1      41.090 -14.833   3.732  1.00  0.00     0.248 C 
HETATM    7  N   UNL     1      42.404 -15.115   4.067  1.00  0.00    -0.325 N 
HETATM    8  H   UNL     1      43.089 -14.379   3.992  1.00  0.00     0.169 HD
HETATM    9  O   UNL     1      40.247 -15.651   3.372  1.00  0.00    -0.271 OA
BRANCH   7  10
HETATM   10  C   UNL     1      42.945 -16.426   4.077  1.00  0.00     0.046 A 
HETATM   11  C   UNL     1      43.404 -16.957   2.847  1.00  0.00    -0.035 A 
HETATM   12  C   UNL     1      43.269 -16.218   1.542  1.00  0.00     0.050 C 
HETATM   13  C   UNL     1      43.952 -18.248   2.817  1.00  0.00     0.009 A 
HETATM   14  C   UNL     1      44.056 -19.004   3.979  1.00  0.00     0.001 A 
HETATM   15  C   UNL     1      43.630 -18.469   5.191  1.00  0.00     0.009 A 
HETATM   16  C   UNL     1      43.096 -17.171   5.265  1.00  0.00    -0.035 A 
HETATM   17  C   UNL     1      42.764 -16.650   6.639  1.00  0.00     0.050 C 
ENDBRANCH   7  10
ENDBRANCH   5   6
ENDBRANCH   1   5
BRANCH   1  18
HETATM   18  C   UNL     1      40.145 -12.116   1.550  1.00  0.00     0.276 C 
BRANCH  18  19
HETATM   19  C   UNL     1      40.448 -12.096   0.072  1.00  0.00    -0.003 A 
HETATM   20  C   UNL     1      40.029 -13.129  -0.800  1.00  0.00     0.069 A 
HETATM   21  C   UNL     1      40.270 -13.126  -2.173  1.00  0.00     0.012 A 
HETATM   22  N   UNL     1      39.328 -14.296  -0.586  1.00  0.00    -0.277 N 
HETATM   23  C   UNL     1      39.696 -14.324  -2.652  1.00  0.00     0.152 A 
HETATM   24  C   UNL     1      40.955 -12.050  -2.754  1.00  0.00     0.015 A 
HETATM   25  N   UNL     1      39.133 -15.040  -1.679  1.00  0.00    -0.186 NA
HETATM   26  C   UNL     1      41.367 -11.001  -1.936  1.00  0.00     0.002 A 
HETATM   27  C   UNL     1      41.113 -11.022  -0.561  1.00  0.00     0.011 A 
HETATM   28  H   UNL     1      38.947 -14.658   0.280  1.00  0.00     0.189 HD
ENDBRANCH  18  19
ENDBRANCH   1  18
TORSDOF 6
ENDMDL
