MODEL 1
REMARK VINA RESULT:      -9.4      0.000      0.000
REMARK  11 active torsions:
REMARK  status: ('A' for Active; 'I' for Inactive)
REMARK    1  A    between atoms: C_2  and  N_3 
REMARK    2  A    between atoms: N_3  and  C_4 
REMARK    3  A    between atoms: C_6  and  N_7 
REMARK    4  A    between atoms: N_10  and  C_12 
REMARK    5  A    between atoms: C_25  and  N_26 
REMARK    6  A    between atoms: N_26  and  C_27 
REMARK    7  A    between atoms: C_27  and  C_28 
REMARK    8  A    between atoms: C_28  and  C_29 
REMARK    9  A    between atoms: C_29  and  O_30 
REMARK   10  A    between atoms: C_34  and  O_35 
REMARK   11  A    between atoms: O_35  and  C_36 
ROOT
HETATM    1  C   UNL     1      40.591 -13.792   5.399  1.00  0.00     0.758 C 
HETATM    2  N   UNL     1      41.256 -13.088   4.488  1.00  0.00     0.131 NA
HETATM    3  C   UNL     1      41.130 -11.773   4.552  1.00  0.00     0.756 C 
HETATM    4  N   UNL     1      40.487 -11.150   5.526  1.00  0.00     0.131 NA
HETATM    5  C   UNL     1      39.824 -11.920   6.376  1.00  0.00     0.754 C 
HETATM    6  N   UNL     1      39.830 -13.247   6.338  1.00  0.00     0.131 NA
ENDROOT
BRANCH   3   7
HETATM    7  N   UNL     1      41.706 -10.993   3.548  1.00  0.00    -0.210 N 
HETATM    8  C   UNL     1      40.807 -10.054   2.871  1.00  0.00     0.169 C 
HETATM    9  C   UNL     1      40.013 -10.725   1.732  1.00  0.00     0.256 C 
HETATM   10  N   UNL     1      40.972 -11.442   0.747  1.00  0.00    -0.059 N 
HETATM   11  H   UNL     1      41.624 -10.716   0.426  1.00  0.00     0.281 HD
HETATM   12  C   UNL     1      41.836 -12.452   1.541  1.00  0.00     0.256 C 
HETATM   13  C   UNL     1      42.613 -11.739   2.675  1.00  0.00     0.169 C 
BRANCH  10  14
HETATM   14  C   UNL     1      40.301 -11.993  -0.529  1.00  0.00     0.129 C 
HETATM   15  C   UNL     1      38.990 -11.207  -0.804  1.00  0.00     0.043 C 
HETATM   16  C   UNL     1      38.318 -11.706  -2.095  1.00  0.00    -0.012 C 
HETATM   17  C   UNL     1      38.004 -13.205  -1.947  1.00  0.00     0.009 C 
HETATM   18  C   UNL     1      39.271 -11.496  -3.278  1.00  0.00     0.009 C 
HETATM   19  C   UNL     1      39.301 -13.996  -1.704  1.00  0.00    -0.012 C 
HETATM   20  C   UNL     1      39.971 -13.496  -0.407  1.00  0.00     0.043 C 
HETATM   21  C   UNL     1      40.251 -13.774  -2.892  1.00  0.00     0.009 C 
HETATM   22  C   UNL     1      40.571 -12.276  -3.041  1.00  0.00    -0.012 C 
HETATM   23  C   UNL     1      41.239 -11.777  -1.747  1.00  0.00     0.043 C 
ENDBRANCH  10  14
ENDBRANCH   3   7
BRANCH   1  24
HETATM   24  N   UNL     1      40.643 -15.185   5.366  1.00  0.00    -0.187 N 
HETATM   25  H   UNL     1      40.300 -15.590   6.229  1.00  0.00     0.184 HD
BRANCH  24  26
HETATM   26  C   UNL     1      41.477 -16.027   4.614  1.00  0.00     0.049 A 
HETATM   27  C   UNL     1      41.259 -16.294   3.259  1.00  0.00     0.033 A 
HETATM   28  C   UNL     1      42.089 -17.168   2.547  1.00  0.00     0.039 A 
HETATM   29  C   UNL     1      43.142 -17.816   3.187  1.00  0.00     0.076 A 
HETATM   30  C   UNL     1      43.373 -17.549   4.538  1.00  0.00     0.039 A 
HETATM   31  C   UNL     1      42.552 -16.661   5.244  1.00  0.00     0.033 A 
BRANCH  29  32
HETATM   32  O   UNL     1      44.006 -18.709   2.624  1.00  0.00    -0.270 OA
BRANCH  32  33
HETATM   33  C   UNL     1      43.563 -20.048   2.434  1.00  0.00     0.447 C 
HETATM   34 CL   UNL     1      43.762 -20.966   3.922  1.00  0.00    -0.014 Cl
HETATM   35  F   UNL     1      42.254 -20.049   2.062  1.00  0.00    -0.159 F 
HETATM   36  F   UNL     1      44.270 -20.625   1.429  1.00  0.00    -0.159 F 
ENDBRANCH  32  33
ENDBRANCH  29  32
ENDBRANCH  24  26
ENDBRANCH   1  24
BRANCH   5  37
HETATM   37  N   UNL     1      39.058 -11.258   7.316  1.00  0.00    -0.221 N 
HETATM   38  H   UNL     1      38.089 -11.543   7.227  1.00  0.00     0.177 HD
BRANCH  37  39
HETATM   39  C   UNL     1      39.291  -9.843   7.546  1.00  0.00     0.140 C 
BRANCH  39  40
HETATM   40  C   UNL     1      39.942  -9.607   8.908  1.00  0.00     0.046 C 
BRANCH  40  41
HETATM   41  C   UNL     1      39.028  -9.856  10.103  1.00  0.00     0.165 C 
BRANCH  41  42
HETATM   42  O   UNL     1      38.454 -11.156  10.049  1.00  0.00    -0.401 OA
HETATM   43  H   UNL     1      37.788 -11.114   9.336  1.00  0.00     0.209 HD
ENDBRANCH  41  42
ENDBRANCH  40  41
ENDBRANCH  39  40
ENDBRANCH  37  39
ENDBRANCH   5  37
TORSDOF 11
ENDMDL
MODEL 2
REMARK VINA RESULT:      -9.4      2.449      3.152
REMARK  11 active torsions:
REMARK  status: ('A' for Active; 'I' for Inactive)
REMARK    1  A    between atoms: C_2  and  N_3 
REMARK    2  A    between atoms: N_3  and  C_4 
REMARK    3  A    between atoms: C_6  and  N_7 
REMARK    4  A    between atoms: N_10  and  C_12 
REMARK    5  A    between atoms: C_25  and  N_26 
REMARK    6  A    between atoms: N_26  and  C_27 
REMARK    7  A    between atoms: C_27  and  C_28 
REMARK    8  A    between atoms: C_28  and  C_29 
REMARK    9  A    between atoms: C_29  and  O_30 
REMARK   10  A    between atoms: C_34  and  O_35 
REMARK   11  A    between atoms: O_35  and  C_36 
ROOT
HETATM    1  C   UNL     1      42.495 -13.438   5.251  1.00  0.00     0.758 C 
HETATM    2  N   UNL     1      41.560 -12.714   4.643  1.00  0.00     0.131 NA
HETATM    3  C   UNL     1      41.808 -11.420   4.514  1.00  0.00     0.756 C 
HETATM    4  N   UNL     1      42.961 -10.863   4.848  1.00  0.00     0.131 NA
HETATM    5  C   UNL     1      43.827 -11.643   5.477  1.00  0.00     0.754 C 
HETATM    6  N   UNL     1      43.628 -12.933   5.719  1.00  0.00     0.131 NA
ENDROOT
BRANCH   3   7
HETATM    7  N   UNL     1      40.810 -10.594   3.996  1.00  0.00    -0.210 N 
HETATM    8  C   UNL     1      39.496 -11.216   3.809  1.00  0.00     0.169 C 
HETATM    9  C   UNL     1      39.395 -11.977   2.473  1.00  0.00     0.256 C 
HETATM   10  N   UNL     1      39.788 -11.057   1.289  1.00  0.00    -0.059 N 
HETATM   11  H   UNL     1      39.158 -10.248   1.354  1.00  0.00     0.281 HD
HETATM   12  C   UNL     1      41.208 -10.496   1.546  1.00  0.00     0.256 C 
HETATM   13  C   UNL     1      41.267  -9.742   2.898  1.00  0.00     0.169 C 
BRANCH  10  14
HETATM   14  C   UNL     1      39.550 -11.660  -0.112  1.00  0.00     0.129 C 
HETATM   15  C   UNL     1      40.723 -11.266  -1.050  1.00  0.00     0.043 C 
HETATM   16  C   UNL     1      40.535 -11.887  -2.445  1.00  0.00    -0.012 C 
HETATM   17  C   UNL     1      39.205 -11.388  -3.038  1.00  0.00     0.009 C 
HETATM   18  C   UNL     1      40.499 -13.415  -2.320  1.00  0.00     0.009 C 
HETATM   19  C   UNL     1      38.034 -11.800  -2.129  1.00  0.00    -0.012 C 
HETATM   20  C   UNL     1      38.223 -11.173  -0.732  1.00  0.00     0.043 C 
HETATM   21  C   UNL     1      38.011 -13.332  -2.007  1.00  0.00     0.009 C 
HETATM   22  C   UNL     1      39.337 -13.835  -1.410  1.00  0.00    -0.012 C 
HETATM   23  C   UNL     1      39.527 -13.209  -0.017  1.00  0.00     0.043 C 
ENDBRANCH  10  14
ENDBRANCH   3   7
BRANCH   1  24
HETATM   24  N   UNL     1      42.283 -14.800   5.459  1.00  0.00    -0.187 N 
HETATM   25  H   UNL     1      42.045 -14.995   6.425  1.00  0.00     0.184 HD
BRANCH  24  26
HETATM   26  C   UNL     1      42.785 -15.899   4.747  1.00  0.00     0.049 A 
HETATM   27  C   UNL     1      43.566 -16.894   5.342  1.00  0.00     0.033 A 
HETATM   28  C   UNL     1      44.083 -17.959   4.595  1.00  0.00     0.039 A 
HETATM   29  C   UNL     1      43.849 -18.035   3.224  1.00  0.00     0.076 A 
HETATM   30  C   UNL     1      43.063 -17.051   2.622  1.00  0.00     0.039 A 
HETATM   31  C   UNL     1      42.534 -15.996   3.375  1.00  0.00     0.033 A 
BRANCH  29  32
HETATM   32  O   UNL     1      44.313 -18.996   2.375  1.00  0.00    -0.270 OA
BRANCH  32  33
HETATM   33  C   UNL     1      43.555 -20.192   2.230  1.00  0.00     0.447 C 
HETATM   34 CL   UNL     1      43.808 -21.238   3.623  1.00  0.00    -0.014 Cl
HETATM   35  F   UNL     1      42.234 -19.886   2.116  1.00  0.00    -0.159 F 
HETATM   36  F   UNL     1      43.923 -20.832   1.091  1.00  0.00    -0.159 F 
ENDBRANCH  32  33
ENDBRANCH  29  32
ENDBRANCH  24  26
ENDBRANCH   1  24
BRANCH   5  37
HETATM   37  N   UNL     1      44.976 -11.024   5.929  1.00  0.00    -0.221 N 
HETATM   38  H   UNL     1      45.678 -11.033   5.198  1.00  0.00     0.177 HD
BRANCH  37  39
HETATM   39  C   UNL     1      45.447 -11.307   7.273  1.00  0.00     0.140 C 
BRANCH  39  40
HETATM   40  C   UNL     1      44.953 -10.253   8.264  1.00  0.00     0.046 C 
BRANCH  40  41
HETATM   41  C   UNL     1      45.773  -8.968   8.288  1.00  0.00     0.165 C 
BRANCH  41  42
HETATM   42  O   UNL     1      46.941  -9.087   7.486  1.00  0.00    -0.401 OA
HETATM   43  H   UNL     1      46.614  -9.211   6.573  1.00  0.00     0.209 HD
ENDBRANCH  41  42
ENDBRANCH  40  41
ENDBRANCH  39  40
ENDBRANCH  37  39
ENDBRANCH   5  37
TORSDOF 11
ENDMDL
MODEL 3
REMARK VINA RESULT:      -9.2      3.901      9.329
REMARK  11 active torsions:
REMARK  status: ('A' for Active; 'I' for Inactive)
REMARK    1  A    between atoms: C_2  and  N_3 
REMARK    2  A    between atoms: N_3  and  C_4 
REMARK    3  A    between atoms: C_6  and  N_7 
REMARK    4  A    between atoms: N_10  and  C_12 
REMARK    5  A    between atoms: C_25  and  N_26 
REMARK    6  A    between atoms: N_26  and  C_27 
REMARK    7  A    between atoms: C_27  and  C_28 
REMARK    8  A    between atoms: C_28  and  C_29 
REMARK    9  A    between atoms: C_29  and  O_30 
REMARK   10  A    between atoms: C_34  and  O_35 
REMARK   11  A    between atoms: O_35  and  C_36 
ROOT
HETATM    1  C   UNL     1      43.457 -12.804   7.109  1.00  0.00     0.758 C 
HETATM    2  N   UNL     1      44.061 -11.998   7.977  1.00  0.00     0.131 NA
HETATM    3  C   UNL     1      44.281 -10.757   7.574  1.00  0.00     0.756 C 
HETATM    4  N   UNL     1      43.832 -10.274   6.428  1.00  0.00     0.131 NA
HETATM    5  C   UNL     1      43.269 -11.146   5.604  1.00  0.00     0.754 C 
HETATM    6  N   UNL     1      43.080 -12.427   5.895  1.00  0.00     0.131 NA
ENDROOT
BRANCH   3   7
HETATM    7  N   UNL     1      45.020  -9.905   8.396  1.00  0.00    -0.210 N 
HETATM    8  C   UNL     1      45.384 -10.440   9.712  1.00  0.00     0.169 C 
HETATM    9  C   UNL     1      44.253 -10.264  10.745  1.00  0.00     0.256 C 
HETATM   10  N   UNL     1      43.800  -8.783  10.812  1.00  0.00    -0.059 N 
HETATM   11  H   UNL     1      44.650  -8.249  11.032  1.00  0.00     0.281 HD
HETATM   12  C   UNL     1      43.382  -8.326   9.393  1.00  0.00     0.256 C 
HETATM   13  C   UNL     1      44.543  -8.522   8.387  1.00  0.00     0.169 C 
BRANCH  10  14
HETATM   14  C   UNL     1      42.800  -8.458  11.942  1.00  0.00     0.129 C 
HETATM   15  C   UNL     1      41.668  -7.552  11.385  1.00  0.00     0.043 C 
HETATM   16  C   UNL     1      40.631  -7.244  12.479  1.00  0.00    -0.012 C 
HETATM   17  C   UNL     1      41.336  -6.535  13.649  1.00  0.00     0.009 C 
HETATM   18  C   UNL     1      40.009  -8.556  12.974  1.00  0.00     0.009 C 
HETATM   19  C   UNL     1      42.440  -7.438  14.226  1.00  0.00    -0.012 C 
HETATM   20  C   UNL     1      43.480  -7.742  13.128  1.00  0.00     0.043 C 
HETATM   21  C   UNL     1      41.807  -8.751  14.714  1.00  0.00     0.009 C 
HETATM   22  C   UNL     1      41.105  -9.466  13.546  1.00  0.00    -0.012 C 
HETATM   23  C   UNL     1      42.142  -9.769  12.450  1.00  0.00     0.043 C 
ENDBRANCH  10  14
ENDBRANCH   3   7
BRANCH   1  24
HETATM   24  N   UNL     1      43.231 -14.136   7.450  1.00  0.00    -0.187 N 
HETATM   25  H   UNL     1      43.384 -14.297   8.439  1.00  0.00     0.184 HD
BRANCH  24  26
HETATM   26  C   UNL     1      43.311 -15.286   6.651  1.00  0.00     0.049 A 
HETATM   27  C   UNL     1      44.513 -15.959   6.411  1.00  0.00     0.033 A 
HETATM   28  C   UNL     1      44.565 -17.083   5.578  1.00  0.00     0.039 A 
HETATM   29  C   UNL     1      43.412 -17.542   4.945  1.00  0.00     0.076 A 
HETATM   30  C   UNL     1      42.206 -16.883   5.185  1.00  0.00     0.039 A 
HETATM   31  C   UNL     1      42.155 -15.769   6.032  1.00  0.00     0.033 A 
BRANCH  29  32
HETATM   32  O   UNL     1      43.325 -18.602   4.090  1.00  0.00    -0.270 OA
BRANCH  32  33
HETATM   33  C   UNL     1      43.206 -18.338   2.697  1.00  0.00     0.447 C 
HETATM   34 CL   UNL     1      43.524 -19.804   1.776  1.00  0.00    -0.014 Cl
HETATM   35  F   UNL     1      41.953 -17.883   2.423  1.00  0.00    -0.159 F 
HETATM   36  F   UNL     1      44.079 -17.362   2.340  1.00  0.00    -0.159 F 
ENDBRANCH  32  33
ENDBRANCH  29  32
ENDBRANCH  24  26
ENDBRANCH   1  24
BRANCH   5  37
HETATM   37  N   UNL     1      42.914 -10.658   4.362  1.00  0.00    -0.221 N 
HETATM   38  H   UNL     1      43.532  -9.897   4.105  1.00  0.00     0.177 HD
BRANCH  37  39
HETATM   39  C   UNL     1      41.506 -10.472   4.055  1.00  0.00     0.140 C 
BRANCH  39  40
HETATM   40  C   UNL     1      41.021 -11.507   3.041  1.00  0.00     0.046 C 
BRANCH  40  41
HETATM   41  C   UNL     1      41.550 -11.308   1.625  1.00  0.00     0.165 C 
BRANCH  41  42
HETATM   42  O   UNL     1      42.150 -10.027   1.475  1.00  0.00    -0.401 OA
HETATM   43  H   UNL     1      41.782  -9.667   0.644  1.00  0.00     0.209 HD
ENDBRANCH  41  42
ENDBRANCH  40  41
ENDBRANCH  39  40
ENDBRANCH  37  39
ENDBRANCH   5  37
TORSDOF 11
ENDMDL
MODEL 4
REMARK VINA RESULT:      -8.9      2.534      7.944
REMARK  11 active torsions:
REMARK  status: ('A' for Active; 'I' for Inactive)
REMARK    1  A    between atoms: C_2  and  N_3 
REMARK    2  A    between atoms: N_3  and  C_4 
REMARK    3  A    between atoms: C_6  and  N_7 
REMARK    4  A    between atoms: N_10  and  C_12 
REMARK    5  A    between atoms: C_25  and  N_26 
REMARK    6  A    between atoms: N_26  and  C_27 
REMARK    7  A    between atoms: C_27  and  C_28 
REMARK    8  A    between atoms: C_28  and  C_29 
REMARK    9  A    between atoms: C_29  and  O_30 
REMARK   10  A    between atoms: C_34  and  O_35 
REMARK   11  A    between atoms: O_35  and  C_36 
ROOT
HETATM    1  C   UNL     1      41.234 -13.709   5.024  1.00  0.00     0.758 C 
HETATM    2  N   UNL     1      42.044 -12.729   5.415  1.00  0.00     0.131 NA
HETATM    3  C   UNL     1      41.782 -11.523   4.939  1.00  0.00     0.756 C 
HETATM    4  N   UNL     1      40.712 -11.245   4.211  1.00  0.00     0.131 NA
HETATM    5  C   UNL     1      39.974 -12.278   3.836  1.00  0.00     0.754 C 
HETATM    6  N   UNL     1      40.210 -13.532   4.201  1.00  0.00     0.131 NA
ENDROOT
BRANCH   3   7
HETATM    7  N   UNL     1      42.670 -10.484   5.217  1.00  0.00    -0.210 N 
HETATM    8  C   UNL     1      43.802 -10.823   6.084  1.00  0.00     0.169 C 
HETATM    9  C   UNL     1      43.433 -10.751   7.580  1.00  0.00     0.256 C 
HETATM   10  N   UNL     1      42.816  -9.371   7.924  1.00  0.00    -0.059 N 
HETATM   11  H   UNL     1      43.520  -8.680   7.636  1.00  0.00     0.281 HD
HETATM   12  C   UNL     1      41.597  -9.127   7.000  1.00  0.00     0.256 C 
HETATM   13  C   UNL     1      42.010  -9.211   5.510  1.00  0.00     0.169 C 
BRANCH  10  14
HETATM   14  C   UNL     1      42.577  -9.122   9.428  1.00  0.00     0.129 C 
HETATM   15  C   UNL     1      43.093  -7.706   9.805  1.00  0.00     0.043 C 
HETATM   16  C   UNL     1      42.831  -7.411  11.293  1.00  0.00    -0.012 C 
HETATM   17  C   UNL     1      43.550  -8.470  12.145  1.00  0.00     0.009 C 
HETATM   18  C   UNL     1      41.323  -7.471  11.565  1.00  0.00     0.009 C 
HETATM   19  C   UNL     1      43.024  -9.874  11.799  1.00  0.00    -0.012 C 
HETATM   20  C   UNL     1      43.291 -10.169  10.308  1.00  0.00     0.043 C 
HETATM   21  C   UNL     1      41.512  -9.921  12.071  1.00  0.00     0.009 C 
HETATM   22  C   UNL     1      40.788  -8.866  11.216  1.00  0.00    -0.012 C 
HETATM   23  C   UNL     1      41.054  -9.160   9.729  1.00  0.00     0.043 C 
ENDBRANCH  10  14
ENDBRANCH   3   7
BRANCH   1  24
HETATM   24  N   UNL     1      41.476 -15.014   5.452  1.00  0.00    -0.187 N 
HETATM   25  H   UNL     1      41.453 -15.082   6.463  1.00  0.00     0.184 HD
BRANCH  24  26
HETATM   26  C   UNL     1      42.175 -16.047   4.811  1.00  0.00     0.049 A 
HETATM   27  C   UNL     1      42.895 -17.021   5.510  1.00  0.00     0.033 A 
HETATM   28  C   UNL     1      43.614 -18.017   4.838  1.00  0.00     0.039 A 
HETATM   29  C   UNL     1      43.647 -18.043   3.446  1.00  0.00     0.076 A 
HETATM   30  C   UNL     1      42.924 -17.080   2.740  1.00  0.00     0.039 A 
HETATM   31  C   UNL     1      42.193 -16.094   3.414  1.00  0.00     0.033 A 
BRANCH  29  32
HETATM   32  O   UNL     1      44.325 -18.934   2.668  1.00  0.00    -0.270 OA
BRANCH  32  33
HETATM   33  C   UNL     1      43.724 -20.198   2.409  1.00  0.00     0.447 C 
HETATM   34 CL   UNL     1      43.833 -21.221   3.838  1.00  0.00    -0.014 Cl
HETATM   35  F   UNL     1      42.420 -20.024   2.065  1.00  0.00    -0.159 F 
HETATM   36  F   UNL     1      44.346 -20.793   1.360  1.00  0.00    -0.159 F 
ENDBRANCH  32  33
ENDBRANCH  29  32
ENDBRANCH  24  26
ENDBRANCH   1  24
BRANCH   5  37
HETATM   37  N   UNL     1      38.930 -11.992   2.977  1.00  0.00    -0.221 N 
HETATM   38  H   UNL     1      38.282 -12.771   2.958  1.00  0.00     0.177 HD
BRANCH  37  39
HETATM   39  C   UNL     1      39.222 -11.371   1.697  1.00  0.00     0.140 C 
BRANCH  39  40
HETATM   40  C   UNL     1      40.287 -12.157   0.932  1.00  0.00     0.046 C 
BRANCH  40  41
HETATM   41  C   UNL     1      39.781 -13.432   0.267  1.00  0.00     0.165 C 
BRANCH  41  42
HETATM   42  O   UNL     1      39.542 -14.454   1.226  1.00  0.00    -0.401 OA
HETATM   43  H   UNL     1      39.780 -14.059   2.087  1.00  0.00     0.209 HD
ENDBRANCH  41  42
ENDBRANCH  40  41
ENDBRANCH  39  40
ENDBRANCH  37  39
ENDBRANCH   5  37
TORSDOF 11
ENDMDL
MODEL 5
REMARK VINA RESULT:      -8.9      4.005      9.359
REMARK  11 active torsions:
REMARK  status: ('A' for Active; 'I' for Inactive)
REMARK    1  A    between atoms: C_2  and  N_3 
REMARK    2  A    between atoms: N_3  and  C_4 
REMARK    3  A    between atoms: C_6  and  N_7 
REMARK    4  A    between atoms: N_10  and  C_12 
REMARK    5  A    between atoms: C_25  and  N_26 
REMARK    6  A    between atoms: N_26  and  C_27 
REMARK    7  A    between atoms: C_27  and  C_28 
REMARK    8  A    between atoms: C_28  and  C_29 
REMARK    9  A    between atoms: C_29  and  O_30 
REMARK   10  A    between atoms: C_34  and  O_35 
REMARK   11  A    between atoms: O_35  and  C_36 
ROOT
HETATM    1  C   UNL     1      41.078 -11.687   6.440  1.00  0.00     0.758 C 
HETATM    2  N   UNL     1      40.463 -10.547   6.742  1.00  0.00     0.131 NA
HETATM    3  C   UNL     1      41.239  -9.497   6.959  1.00  0.00     0.756 C 
HETATM    4  N   UNL     1      42.549  -9.512   6.775  1.00  0.00     0.131 NA
HETATM    5  C   UNL     1      43.090 -10.691   6.507  1.00  0.00     0.754 C 
HETATM    6  N   UNL     1      42.394 -11.810   6.352  1.00  0.00     0.131 NA
ENDROOT
BRANCH   3   7
HETATM    7  N   UNL     1      40.654  -8.309   7.399  1.00  0.00    -0.210 N 
HETATM    8  C   UNL     1      41.582  -7.235   7.763  1.00  0.00     0.169 C 
HETATM    9  C   UNL     1      42.100  -7.376   9.208  1.00  0.00     0.256 C 
HETATM   10  N   UNL     1      40.918  -7.500  10.202  1.00  0.00    -0.059 N 
HETATM   11  H   UNL     1      40.344  -6.661  10.047  1.00  0.00     0.281 HD
HETATM   12  C   UNL     1      40.029  -8.693   9.771  1.00  0.00     0.256 C 
HETATM   13  C   UNL     1      39.533  -8.513   8.316  1.00  0.00     0.169 C 
BRANCH  10  14
HETATM   14  C   UNL     1      41.314  -7.465  11.693  1.00  0.00     0.129 C 
HETATM   15  C   UNL     1      40.046  -7.658  12.569  1.00  0.00     0.043 C 
HETATM   16  C   UNL     1      40.415  -7.668  14.064  1.00  0.00    -0.012 C 
HETATM   17  C   UNL     1      41.094  -6.334  14.419  1.00  0.00     0.009 C 
HETATM   18  C   UNL     1      41.382  -8.826  14.340  1.00  0.00     0.009 C 
HETATM   19  C   UNL     1      42.368  -6.148  13.576  1.00  0.00    -0.012 C 
HETATM   20  C   UNL     1      41.995  -6.134  12.079  1.00  0.00     0.043 C 
HETATM   21  C   UNL     1      43.327  -7.316  13.857  1.00  0.00     0.009 C 
HETATM   22  C   UNL     1      42.653  -8.652  13.499  1.00  0.00    -0.012 C 
HETATM   23  C   UNL     1      42.281  -8.639  12.005  1.00  0.00     0.043 C 
ENDBRANCH  10  14
ENDBRANCH   3   7
BRANCH   1  24
HETATM   24  N   UNL     1      40.325 -12.843   6.241  1.00  0.00    -0.187 N 
HETATM   25  H   UNL     1      39.713 -13.027   7.028  1.00  0.00     0.184 HD
BRANCH  24  26
HETATM   26  C   UNL     1      40.604 -13.961   5.441  1.00  0.00     0.049 A 
HETATM   27  C   UNL     1      40.949 -15.206   5.976  1.00  0.00     0.033 A 
HETATM   28  C   UNL     1      41.259 -16.293   5.149  1.00  0.00     0.039 A 
HETATM   29  C   UNL     1      41.254 -16.147   3.765  1.00  0.00     0.076 A 
HETATM   30  C   UNL     1      40.902 -14.910   3.222  1.00  0.00     0.039 A 
HETATM   31  C   UNL     1      40.577 -13.829   4.050  1.00  0.00     0.033 A 
BRANCH  29  32
HETATM   32  O   UNL     1      41.561 -17.109   2.847  1.00  0.00    -0.270 OA
BRANCH  32  33
HETATM   33  C   UNL     1      42.927 -17.293   2.494  1.00  0.00     0.447 C 
HETATM   34 CL   UNL     1      43.454 -15.995   1.429  1.00  0.00    -0.014 Cl
HETATM   35  F   UNL     1      43.693 -17.307   3.619  1.00  0.00    -0.159 F 
HETATM   36  F   UNL     1      43.083 -18.494   1.882  1.00  0.00    -0.159 F 
ENDBRANCH  32  33
ENDBRANCH  29  32
ENDBRANCH  24  26
ENDBRANCH   1  24
BRANCH   5  37
HETATM   37  N   UNL     1      44.470 -10.718   6.438  1.00  0.00    -0.221 N 
HETATM   38  H   UNL     1      44.758 -10.994   5.506  1.00  0.00     0.177 HD
BRANCH  37  39
HETATM   39  C   UNL     1      45.219 -11.297   7.538  1.00  0.00     0.140 C 
BRANCH  39  40
HETATM   40  C   UNL     1      45.248 -10.356   8.742  1.00  0.00     0.046 C 
BRANCH  40  41
HETATM   41  C   UNL     1      45.747  -8.947   8.438  1.00  0.00     0.165 C 
BRANCH  41  42
HETATM   42  O   UNL     1      46.817  -8.971   7.502  1.00  0.00    -0.401 OA
HETATM   43  H   UNL     1      46.727  -8.146   6.986  1.00  0.00     0.209 HD
ENDBRANCH  41  42
ENDBRANCH  40  41
ENDBRANCH  39  40
ENDBRANCH  37  39
ENDBRANCH   5  37
TORSDOF 11
ENDMDL
MODEL 6
REMARK VINA RESULT:      -8.7      2.715      8.197
REMARK  11 active torsions:
REMARK  status: ('A' for Active; 'I' for Inactive)
REMARK    1  A    between atoms: C_2  and  N_3 
REMARK    2  A    between atoms: N_3  and  C_4 
REMARK    3  A    between atoms: C_6  and  N_7 
REMARK    4  A    between atoms: N_10  and  C_12 
REMARK    5  A    between atoms: C_25  and  N_26 
REMARK    6  A    between atoms: N_26  and  C_27 
REMARK    7  A    between atoms: C_27  and  C_28 
REMARK    8  A    between atoms: C_28  and  C_29 
REMARK    9  A    between atoms: C_29  and  O_30 
REMARK   10  A    between atoms: C_34  and  O_35 
REMARK   11  A    between atoms: O_35  and  C_36 
ROOT
HETATM    1  C   UNL     1      41.406 -13.625   5.304  1.00  0.00     0.758 C 
HETATM    2  N   UNL     1      42.257 -12.720   5.779  1.00  0.00     0.131 NA
HETATM    3  C   UNL     1      42.003 -11.457   5.477  1.00  0.00     0.756 C 
HETATM    4  N   UNL     1      40.908 -11.067   4.844  1.00  0.00     0.131 NA
HETATM    5  C   UNL     1      40.128 -12.029   4.375  1.00  0.00     0.754 C 
HETATM    6  N   UNL     1      40.350 -13.324   4.563  1.00  0.00     0.131 NA
ENDROOT
BRANCH   3   7
HETATM    7  N   UNL     1      42.929 -10.479   5.844  1.00  0.00    -0.210 N 
HETATM    8  C   UNL     1      43.936 -10.888   6.827  1.00  0.00     0.169 C 
HETATM    9  C   UNL     1      43.419 -10.773   8.274  1.00  0.00     0.256 C 
HETATM   10  N   UNL     1      42.868  -9.350   8.546  1.00  0.00    -0.059 N 
HETATM   11  H   UNL     1      43.646  -8.713   8.332  1.00  0.00     0.281 HD
HETATM   12  C   UNL     1      41.773  -9.032   7.499  1.00  0.00     0.256 C 
HETATM   13  C   UNL     1      42.333  -9.161   6.061  1.00  0.00     0.169 C 
BRANCH  10  14
HETATM   14  C   UNL     1      42.491  -9.068  10.016  1.00  0.00     0.129 C 
HETATM   15  C   UNL     1      43.316  -9.997  10.948  1.00  0.00     0.043 C 
HETATM   16  C   UNL     1      42.992  -9.711  12.425  1.00  0.00    -0.012 C 
HETATM   17  C   UNL     1      41.489  -9.941  12.660  1.00  0.00     0.009 C 
HETATM   18  C   UNL     1      43.345  -8.254  12.750  1.00  0.00     0.009 C 
HETATM   19  C   UNL     1      40.664  -9.003  11.761  1.00  0.00    -0.012 C 
HETATM   20  C   UNL     1      40.988  -9.295  10.281  1.00  0.00     0.043 C 
HETATM   21  C   UNL     1      41.029  -7.547  12.092  1.00  0.00     0.009 C 
HETATM   22  C   UNL     1      42.531  -7.311  11.853  1.00  0.00    -0.012 C 
HETATM   23  C   UNL     1      42.855  -7.602  10.377  1.00  0.00     0.043 C 
ENDBRANCH  10  14
ENDBRANCH   3   7
BRANCH   1  24
HETATM   24  N   UNL     1      41.636 -14.979   5.548  1.00  0.00    -0.187 N 
HETATM   25  H   UNL     1      41.632 -15.183   6.541  1.00  0.00     0.184 HD
BRANCH  24  26
HETATM   26  C   UNL     1      42.306 -15.925   4.758  1.00  0.00     0.049 A 
HETATM   27  C   UNL     1      41.968 -16.173   3.424  1.00  0.00     0.033 A 
HETATM   28  C   UNL     1      42.632 -17.151   2.674  1.00  0.00     0.039 A 
HETATM   29  C   UNL     1      43.636 -17.921   3.256  1.00  0.00     0.076 A 
HETATM   30  C   UNL     1      43.987 -17.675   4.584  1.00  0.00     0.039 A 
HETATM   31  C   UNL     1      43.331 -16.685   5.327  1.00  0.00     0.033 A 
BRANCH  29  32
HETATM   32  O   UNL     1      44.342 -18.920   2.653  1.00  0.00    -0.270 OA
BRANCH  32  33
HETATM   33  C   UNL     1      43.711 -20.185   2.483  1.00  0.00     0.447 C 
HETATM   34 CL   UNL     1      43.768 -21.094   3.989  1.00  0.00    -0.014 Cl
HETATM   35  F   UNL     1      42.417 -20.004   2.102  1.00  0.00    -0.159 F 
HETATM   36  F   UNL     1      44.332 -20.876   1.494  1.00  0.00    -0.159 F 
ENDBRANCH  32  33
ENDBRANCH  29  32
ENDBRANCH  24  26
ENDBRANCH   1  24
BRANCH   5  37
HETATM   37  N   UNL     1      39.053 -11.614   3.613  1.00  0.00    -0.221 N 
HETATM   38  H   UNL     1      38.320 -11.265   4.220  1.00  0.00     0.177 HD
BRANCH  37  39
HETATM   39  C   UNL     1      38.624 -12.435   2.495  1.00  0.00     0.140 C 
BRANCH  39  40
HETATM   40  C   UNL     1      39.483 -12.175   1.258  1.00  0.00     0.046 C 
BRANCH  40  41
HETATM   41  C   UNL     1      40.356 -13.349   0.830  1.00  0.00     0.165 C 
BRANCH  41  42
HETATM   42  O   UNL     1      39.573 -14.396   0.270  1.00  0.00    -0.401 OA
HETATM   43  H   UNL     1      40.079 -14.709  -0.505  1.00  0.00     0.209 HD
ENDBRANCH  41  42
ENDBRANCH  40  41
ENDBRANCH  39  40
ENDBRANCH  37  39
ENDBRANCH   5  37
TORSDOF 11
ENDMDL
MODEL 7
REMARK VINA RESULT:      -8.6      3.963      9.265
REMARK  11 active torsions:
REMARK  status: ('A' for Active; 'I' for Inactive)
REMARK    1  A    between atoms: C_2  and  N_3 
REMARK    2  A    between atoms: N_3  and  C_4 
REMARK    3  A    between atoms: C_6  and  N_7 
REMARK    4  A    between atoms: N_10  and  C_12 
REMARK    5  A    between atoms: C_25  and  N_26 
REMARK    6  A    between atoms: N_26  and  C_27 
REMARK    7  A    between atoms: C_27  and  C_28 
REMARK    8  A    between atoms: C_28  and  C_29 
REMARK    9  A    between atoms: C_29  and  O_30 
REMARK   10  A    between atoms: C_34  and  O_35 
REMARK   11  A    between atoms: O_35  and  C_36 
ROOT
HETATM    1  C   UNL     1      41.372 -13.116   5.045  1.00  0.00     0.758 C 
HETATM    2  N   UNL     1      41.965 -11.938   5.219  1.00  0.00     0.131 NA
HETATM    3  C   UNL     1      42.914 -11.886   6.139  1.00  0.00     0.756 C 
HETATM    4  N   UNL     1      43.361 -12.951   6.785  1.00  0.00     0.131 NA
HETATM    5  C   UNL     1      42.699 -14.080   6.582  1.00  0.00     0.754 C 
HETATM    6  N   UNL     1      41.683 -14.204   5.736  1.00  0.00     0.131 NA
ENDROOT
BRANCH   3   7
HETATM    7  N   UNL     1      43.482 -10.649   6.448  1.00  0.00    -0.210 N 
HETATM    8  C   UNL     1      44.517 -10.660   7.486  1.00  0.00     0.169 C 
HETATM    9  C   UNL     1      43.920 -10.608   8.906  1.00  0.00     0.256 C 
HETATM   10  N   UNL     1      42.952  -9.405   9.047  1.00  0.00    -0.059 N 
HETATM   11  H   UNL     1      43.510  -8.578   8.801  1.00  0.00     0.281 HD
HETATM   12  C   UNL     1      41.864  -9.510   7.950  1.00  0.00     0.256 C 
HETATM   13  C   UNL     1      42.506  -9.563   6.542  1.00  0.00     0.169 C 
BRANCH  10  14
HETATM   14  C   UNL     1      42.437  -9.149  10.479  1.00  0.00     0.129 C 
HETATM   15  C   UNL     1      42.788  -7.696  10.902  1.00  0.00     0.043 C 
HETATM   16  C   UNL     1      42.251  -7.396  12.313  1.00  0.00    -0.012 C 
HETATM   17  C   UNL     1      42.874  -8.392  13.306  1.00  0.00     0.009 C 
HETATM   18  C   UNL     1      40.725  -7.551  12.318  1.00  0.00     0.009 C 
HETATM   19  C   UNL     1      42.505  -9.833  12.911  1.00  0.00    -0.012 C 
HETATM   20  C   UNL     1      43.049 -10.133  11.499  1.00  0.00     0.043 C 
HETATM   21  C   UNL     1      40.975  -9.976  12.916  1.00  0.00     0.009 C 
HETATM   22  C   UNL     1      40.348  -8.984  11.919  1.00  0.00    -0.012 C 
HETATM   23  C   UNL     1      40.890  -9.282  10.510  1.00  0.00     0.043 C 
ENDBRANCH  10  14
ENDBRANCH   3   7
BRANCH   1  24
HETATM   24  N   UNL     1      40.334 -13.235   4.123  1.00  0.00    -0.187 N 
HETATM   25  H   UNL     1      39.490 -13.588   4.557  1.00  0.00     0.184 HD
BRANCH  24  26
HETATM   26  C   UNL     1      40.395 -13.410   2.732  1.00  0.00     0.049 A 
HETATM   27  C   UNL     1      40.715 -12.372   1.852  1.00  0.00     0.033 A 
HETATM   28  C   UNL     1      40.730 -12.571   0.466  1.00  0.00     0.039 A 
HETATM   29  C   UNL     1      40.399 -13.814  -0.069  1.00  0.00     0.076 A 
HETATM   30  C   UNL     1      40.086 -14.858   0.802  1.00  0.00     0.039 A 
HETATM   31  C   UNL     1      40.087 -14.660   2.188  1.00  0.00     0.033 A 
BRANCH  29  32
HETATM   32  O   UNL     1      40.346 -14.137  -1.394  1.00  0.00    -0.270 OA
BRANCH  32  33
HETATM   33  C   UNL     1      39.139 -13.881  -2.104  1.00  0.00     0.447 C 
HETATM   34 CL   UNL     1      38.548 -15.366  -2.841  1.00  0.00    -0.014 Cl
HETATM   35  F   UNL     1      38.202 -13.385  -1.251  1.00  0.00    -0.159 F 
HETATM   36  F   UNL     1      39.360 -12.941  -3.057  1.00  0.00    -0.159 F 
ENDBRANCH  32  33
ENDBRANCH  29  32
ENDBRANCH  24  26
ENDBRANCH   1  24
BRANCH   5  37
HETATM   37  N   UNL     1      43.096 -15.157   7.350  1.00  0.00    -0.221 N 
HETATM   38  H   UNL     1      44.108 -15.195   7.386  1.00  0.00     0.177 HD
BRANCH  37  39
HETATM   39  C   UNL     1      42.412 -16.428   7.189  1.00  0.00     0.140 C 
BRANCH  39  40
HETATM   40  C   UNL     1      43.400 -17.547   6.863  1.00  0.00     0.046 C 
BRANCH  40  41
HETATM   41  C   UNL     1      43.671 -17.745   5.376  1.00  0.00     0.165 C 
BRANCH  41  42
HETATM   42  O   UNL     1      42.860 -16.885   4.586  1.00  0.00    -0.401 OA
HETATM   43  H   UNL     1      42.173 -16.549   5.193  1.00  0.00     0.209 HD
ENDBRANCH  41  42
ENDBRANCH  40  41
ENDBRANCH  39  40
ENDBRANCH  37  39
ENDBRANCH   5  37
TORSDOF 11
ENDMDL
MODEL 8
REMARK VINA RESULT:      -8.5      3.980      8.085
REMARK  11 active torsions:
REMARK  status: ('A' for Active; 'I' for Inactive)
REMARK    1  A    between atoms: C_2  and  N_3 
REMARK    2  A    between atoms: N_3  and  C_4 
REMARK    3  A    between atoms: C_6  and  N_7 
REMARK    4  A    between atoms: N_10  and  C_12 
REMARK    5  A    between atoms: C_25  and  N_26 
REMARK    6  A    between atoms: N_26  and  C_27 
REMARK    7  A    between atoms: C_27  and  C_28 
REMARK    8  A    between atoms: C_28  and  C_29 
REMARK    9  A    between atoms: C_29  and  O_30 
REMARK   10  A    between atoms: C_34  and  O_35 
REMARK   11  A    between atoms: O_35  and  C_36 
ROOT
HETATM    1  C   UNL     1      41.568 -16.496   2.696  1.00  0.00     0.758 C 
HETATM    2  N   UNL     1      41.480 -15.848   3.854  1.00  0.00     0.131 NA
HETATM    3  C   UNL     1      42.331 -16.211   4.799  1.00  0.00     0.756 C 
HETATM    4  N   UNL     1      43.309 -17.080   4.602  1.00  0.00     0.131 NA
HETATM    5  C   UNL     1      43.310 -17.706   3.435  1.00  0.00     0.754 C 
HETATM    6  N   UNL     1      42.445 -17.461   2.459  1.00  0.00     0.131 NA
ENDROOT
BRANCH   3   7
HETATM    7  N   UNL     1      42.201 -15.651   6.071  1.00  0.00    -0.210 N 
HETATM    8  C   UNL     1      40.834 -15.338   6.497  1.00  0.00     0.169 C 
HETATM    9  C   UNL     1      40.360 -13.967   5.974  1.00  0.00     0.256 C 
HETATM   10  N   UNL     1      41.370 -12.857   6.359  1.00  0.00    -0.059 N 
HETATM   11  H   UNL     1      41.449 -12.905   7.383  1.00  0.00     0.281 HD
HETATM   12  C   UNL     1      42.768 -13.246   5.818  1.00  0.00     0.256 C 
HETATM   13  C   UNL     1      43.204 -14.627   6.365  1.00  0.00     0.169 C 
BRANCH  10  14
HETATM   14  C   UNL     1      40.907 -11.418   6.045  1.00  0.00     0.129 C 
HETATM   15  C   UNL     1      39.490 -11.190   6.640  1.00  0.00     0.043 C 
HETATM   16  C   UNL     1      39.017  -9.749   6.379  1.00  0.00    -0.012 C 
HETATM   17  C   UNL     1      38.989  -9.501   4.860  1.00  0.00     0.009 C 
HETATM   18  C   UNL     1      39.990  -8.767   7.042  1.00  0.00     0.009 C 
HETATM   19  C   UNL     1      40.396  -9.696   4.267  1.00  0.00    -0.012 C 
HETATM   20  C   UNL     1      40.867 -11.142   4.527  1.00  0.00     0.043 C 
HETATM   21  C   UNL     1      41.363  -8.710   4.943  1.00  0.00     0.009 C 
HETATM   22  C   UNL     1      41.397  -8.958   6.461  1.00  0.00    -0.012 C 
HETATM   23  C   UNL     1      41.866 -10.401   6.721  1.00  0.00     0.043 C 
ENDBRANCH  10  14
ENDBRANCH   3   7
BRANCH   1  24
HETATM   24  N   UNL     1      40.675 -16.194   1.669  1.00  0.00    -0.187 N 
HETATM   25  H   UNL     1      40.313 -17.034   1.233  1.00  0.00     0.184 HD
BRANCH  24  26
HETATM   26  C   UNL     1      40.585 -15.039   0.878  1.00  0.00     0.049 A 
HETATM   27  C   UNL     1      41.308 -13.875   1.153  1.00  0.00     0.033 A 
HETATM   28  C   UNL     1      41.167 -12.726   0.364  1.00  0.00     0.039 A 
HETATM   29  C   UNL     1      40.275 -12.713  -0.704  1.00  0.00     0.076 A 
HETATM   30  C   UNL     1      39.554 -13.873  -0.992  1.00  0.00     0.039 A 
HETATM   31  C   UNL     1      39.709 -15.025  -0.212  1.00  0.00     0.033 A 
BRANCH  29  32
HETATM   32  O   UNL     1      40.019 -11.659  -1.532  1.00  0.00    -0.270 OA
BRANCH  32  33
HETATM   33  C   UNL     1      40.475 -11.733  -2.879  1.00  0.00     0.447 C 
HETATM   34 CL   UNL     1      40.731 -10.112  -3.517  1.00  0.00    -0.014 Cl
HETATM   35  F   UNL     1      41.637 -12.438  -2.931  1.00  0.00    -0.159 F 
HETATM   36  F   UNL     1      39.563 -12.395  -3.635  1.00  0.00    -0.159 F 
ENDBRANCH  32  33
ENDBRANCH  29  32
ENDBRANCH  24  26
ENDBRANCH   1  24
BRANCH   5  37
HETATM   37  N   UNL     1      44.261 -18.698   3.285  1.00  0.00    -0.221 N 
HETATM   38  H   UNL     1      45.109 -18.300   2.897  1.00  0.00     0.177 HD
BRANCH  37  39
HETATM   39  C   UNL     1      43.856 -19.987   2.753  1.00  0.00     0.140 C 
BRANCH  39  40
HETATM   40  C   UNL     1      43.725 -21.026   3.867  1.00  0.00     0.046 C 
BRANCH  40  41
HETATM   41  C   UNL     1      44.448 -20.667   5.161  1.00  0.00     0.165 C 
BRANCH  41  42
HETATM   42  O   UNL     1      43.594 -19.957   6.048  1.00  0.00    -0.401 OA
HETATM   43  H   UNL     1      44.027 -20.012   6.922  1.00  0.00     0.209 HD
ENDBRANCH  41  42
ENDBRANCH  40  41
ENDBRANCH  39  40
ENDBRANCH  37  39
ENDBRANCH   5  37
TORSDOF 11
ENDMDL
MODEL 9
REMARK VINA RESULT:      -8.4      3.743      8.991
REMARK  11 active torsions:
REMARK  status: ('A' for Active; 'I' for Inactive)
REMARK    1  A    between atoms: C_2  and  N_3 
REMARK    2  A    between atoms: N_3  and  C_4 
REMARK    3  A    between atoms: C_6  and  N_7 
REMARK    4  A    between atoms: N_10  and  C_12 
REMARK    5  A    between atoms: C_25  and  N_26 
REMARK    6  A    between atoms: N_26  and  C_27 
REMARK    7  A    between atoms: C_27  and  C_28 
REMARK    8  A    between atoms: C_28  and  C_29 
REMARK    9  A    between atoms: C_29  and  O_30 
REMARK   10  A    between atoms: C_34  and  O_35 
REMARK   11  A    between atoms: O_35  and  C_36 
ROOT
HETATM    1  C   UNL     1      42.971 -11.534   5.244  1.00  0.00     0.758 C 
HETATM    2  N   UNL     1      43.885 -11.183   6.144  1.00  0.00     0.131 NA
HETATM    3  C   UNL     1      43.464 -10.431   7.149  1.00  0.00     0.756 C 
HETATM    4  N   UNL     1      42.192 -10.128   7.347  1.00  0.00     0.131 NA
HETATM    5  C   UNL     1      41.348 -10.485   6.391  1.00  0.00     0.754 C 
HETATM    6  N   UNL     1      41.698 -11.172   5.310  1.00  0.00     0.131 NA
ENDROOT
BRANCH   3   7
HETATM    7  N   UNL     1      44.403  -9.933   8.053  1.00  0.00    -0.210 N 
HETATM    8  C   UNL     1      44.616 -10.734   9.262  1.00  0.00     0.169 C 
HETATM    9  C   UNL     1      43.574 -10.427  10.356  1.00  0.00     0.256 C 
HETATM   10  N   UNL     1      43.526  -8.906  10.653  1.00  0.00    -0.059 N 
HETATM   11  H   UNL     1      44.487  -8.650  10.912  1.00  0.00     0.281 HD
HETATM   12  C   UNL     1      43.239  -8.150   9.333  1.00  0.00     0.256 C 
HETATM   13  C   UNL     1      44.306  -8.488   8.262  1.00  0.00     0.169 C 
BRANCH  10  14
HETATM   14  C   UNL     1      42.650  -8.506  11.858  1.00  0.00     0.129 C 
HETATM   15  C   UNL     1      41.556  -7.506  11.392  1.00  0.00     0.043 C 
HETATM   16  C   UNL     1      40.638  -7.119  12.565  1.00  0.00    -0.012 C 
HETATM   17  C   UNL     1      41.490  -6.477  13.674  1.00  0.00     0.009 C 
HETATM   18  C   UNL     1      39.951  -8.377  13.109  1.00  0.00     0.009 C 
HETATM   19  C   UNL     1      42.558  -7.471  14.163  1.00  0.00    -0.012 C 
HETATM   20  C   UNL     1      43.479  -7.855  12.986  1.00  0.00     0.043 C 
HETATM   21  C   UNL     1      41.858  -8.730  14.701  1.00  0.00     0.009 C 
HETATM   22  C   UNL     1      41.009  -9.378  13.594  1.00  0.00    -0.012 C 
HETATM   23  C   UNL     1      41.927  -9.760  12.419  1.00  0.00     0.043 C 
ENDBRANCH  10  14
ENDBRANCH   3   7
BRANCH   1  24
HETATM   24  N   UNL     1      43.351 -12.290   4.137  1.00  0.00    -0.187 N 
HETATM   25  H   UNL     1      43.525 -11.704   3.329  1.00  0.00     0.184 HD
BRANCH  24  26
HETATM   26  C   UNL     1      43.075 -13.632   3.837  1.00  0.00     0.049 A 
HETATM   27  C   UNL     1      42.819 -14.591   4.823  1.00  0.00     0.033 A 
HETATM   28  C   UNL     1      42.583 -15.931   4.492  1.00  0.00     0.039 A 
HETATM   29  C   UNL     1      42.624 -16.344   3.163  1.00  0.00     0.076 A 
HETATM   30  C   UNL     1      42.869 -15.393   2.171  1.00  0.00     0.039 A 
HETATM   31  C   UNL     1      43.089 -14.051   2.504  1.00  0.00     0.033 A 
BRANCH  29  32
HETATM   32  O   UNL     1      42.441 -17.616   2.704  1.00  0.00    -0.270 OA
BRANCH  32  33
HETATM   33  C   UNL     1      43.462 -18.576   2.953  1.00  0.00     0.447 C 
HETATM   34 CL   UNL     1      43.203 -20.002   1.954  1.00  0.00    -0.014 Cl
HETATM   35  F   UNL     1      44.679 -18.034   2.677  1.00  0.00    -0.159 F 
HETATM   36  F   UNL     1      43.458 -18.918   4.266  1.00  0.00    -0.159 F 
ENDBRANCH  32  33
ENDBRANCH  29  32
ENDBRANCH  24  26
ENDBRANCH   1  24
BRANCH   5  37
HETATM   37  N   UNL     1      40.044 -10.058   6.548  1.00  0.00    -0.221 N 
HETATM   38  H   UNL     1      39.540 -10.173   5.676  1.00  0.00     0.177 HD
BRANCH  37  39
HETATM   39  C   UNL     1      39.788  -8.829   7.278  1.00  0.00     0.140 C 
BRANCH  39  40
HETATM   40  C   UNL     1      38.887  -7.889   6.476  1.00  0.00     0.046 C 
BRANCH  40  41
HETATM   41  C   UNL     1      38.391  -8.459   5.152  1.00  0.00     0.165 C 
BRANCH  41  42
HETATM   42  O   UNL     1      37.361  -9.418   5.357  1.00  0.00    -0.401 OA
HETATM   43  H   UNL     1      37.348  -9.960   4.545  1.00  0.00     0.209 HD
ENDBRANCH  41  42
ENDBRANCH  40  41
ENDBRANCH  39  40
ENDBRANCH  37  39
ENDBRANCH   5  37
TORSDOF 11
ENDMDL
MODEL 10
REMARK VINA RESULT:      -8.4      4.575      7.394
REMARK  11 active torsions:
REMARK  status: ('A' for Active; 'I' for Inactive)
REMARK    1  A    between atoms: C_2  and  N_3 
REMARK    2  A    between atoms: N_3  and  C_4 
REMARK    3  A    between atoms: C_6  and  N_7 
REMARK    4  A    between atoms: N_10  and  C_12 
REMARK    5  A    between atoms: C_25  and  N_26 
REMARK    6  A    between atoms: N_26  and  C_27 
REMARK    7  A    between atoms: C_27  and  C_28 
REMARK    8  A    between atoms: C_28  and  C_29 
REMARK    9  A    between atoms: C_29  and  O_30 
REMARK   10  A    between atoms: C_34  and  O_35 
REMARK   11  A    between atoms: O_35  and  C_36 
ROOT
HETATM    1  C   UNL     1      43.052 -13.243   4.867  1.00  0.00     0.758 C 
HETATM    2  N   UNL     1      41.767 -13.238   4.522  1.00  0.00     0.131 NA
HETATM    3  C   UNL     1      41.232 -14.410   4.222  1.00  0.00     0.756 C 
HETATM    4  N   UNL     1      41.873 -15.560   4.364  1.00  0.00     0.131 NA
HETATM    5  C   UNL     1      43.157 -15.480   4.679  1.00  0.00     0.754 C 
HETATM    6  N   UNL     1      43.794 -14.340   4.919  1.00  0.00     0.131 NA
ENDROOT
BRANCH   3   7
HETATM    7  N   UNL     1      39.925 -14.447   3.736  1.00  0.00    -0.210 N 
HETATM    8  C   UNL     1      39.647 -15.469   2.723  1.00  0.00     0.169 C 
HETATM    9  C   UNL     1      40.035 -15.006   1.305  1.00  0.00     0.256 C 
HETATM   10  N   UNL     1      39.370 -13.646   0.973  1.00  0.00    -0.059 N 
HETATM   11  H   UNL     1      38.362 -13.801   1.097  1.00  0.00     0.281 HD
HETATM   12  C   UNL     1      39.767 -12.619   2.062  1.00  0.00     0.256 C 
HETATM   13  C   UNL     1      39.362 -13.124   3.468  1.00  0.00     0.169 C 
BRANCH  10  14
HETATM   14  C   UNL     1      39.543 -13.176  -0.487  1.00  0.00     0.129 C 
HETATM   15  C   UNL     1      38.365 -12.238  -0.870  1.00  0.00     0.043 C 
HETATM   16  C   UNL     1      38.531 -11.719  -2.309  1.00  0.00    -0.012 C 
HETATM   17  C   UNL     1      38.574 -12.919  -3.271  1.00  0.00     0.009 C 
HETATM   18  C   UNL     1      39.841 -10.928  -2.416  1.00  0.00     0.009 C 
HETATM   19  C   UNL     1      39.756 -13.838  -2.917  1.00  0.00    -0.012 C 
HETATM   20  C   UNL     1      39.586 -14.360  -1.475  1.00  0.00     0.043 C 
HETATM   21  C   UNL     1      41.062 -13.034  -3.022  1.00  0.00     0.009 C 
HETATM   22  C   UNL     1      41.025 -11.835  -2.058  1.00  0.00    -0.012 C 
HETATM   23  C   UNL     1      40.855 -12.356  -0.620  1.00  0.00     0.043 C 
ENDBRANCH  10  14
ENDBRANCH   3   7
BRANCH   1  24
HETATM   24  N   UNL     1      43.692 -12.039   5.155  1.00  0.00    -0.187 N 
HETATM   25  H   UNL     1      44.485 -11.885   4.543  1.00  0.00     0.184 HD
BRANCH  24  26
HETATM   26  C   UNL     1      43.729 -11.315   6.355  1.00  0.00     0.049 A 
HETATM   27  C   UNL     1      42.727 -10.412   6.726  1.00  0.00     0.033 A 
HETATM   28  C   UNL     1      42.812  -9.677   7.914  1.00  0.00     0.039 A 
HETATM   29  C   UNL     1      43.920  -9.812   8.747  1.00  0.00     0.076 A 
HETATM   30  C   UNL     1      44.921 -10.717   8.390  1.00  0.00     0.039 A 
HETATM   31  C   UNL     1      44.826 -11.463   7.209  1.00  0.00     0.033 A 
BRANCH  29  32
HETATM   32  O   UNL     1      44.144  -9.141   9.912  1.00  0.00    -0.270 OA
BRANCH  32  33
HETATM   33  C   UNL     1      43.596  -9.672  11.114  1.00  0.00     0.447 C 
HETATM   34 CL   UNL     1      43.560  -8.430  12.360  1.00  0.00    -0.014 Cl
HETATM   35  F   UNL     1      42.335 -10.128  10.880  1.00  0.00    -0.159 F 
HETATM   36  F   UNL     1      44.339 -10.729  11.527  1.00  0.00    -0.159 F 
ENDBRANCH  32  33
ENDBRANCH  29  32
ENDBRANCH  24  26
ENDBRANCH   1  24
BRANCH   5  37
HETATM   37  N   UNL     1      43.845 -16.677   4.706  1.00  0.00    -0.221 N 
HETATM   38  H   UNL     1      44.787 -16.536   4.356  1.00  0.00     0.177 HD
BRANCH  37  39
HETATM   39  C   UNL     1      43.173 -17.886   4.265  1.00  0.00     0.140 C 
BRANCH  39  40
HETATM   40  C   UNL     1      43.883 -18.503   3.060  1.00  0.00     0.046 C 
BRANCH  40  41
HETATM   41  C   UNL     1      43.862 -20.027   3.020  1.00  0.00     0.165 C 
BRANCH  41  42
HETATM   42  O   UNL     1      43.275 -20.503   1.816  1.00  0.00    -0.401 OA
HETATM   43  H   UNL     1      43.772 -20.067   1.097  1.00  0.00     0.209 HD
ENDBRANCH  41  42
ENDBRANCH  40  41
ENDBRANCH  39  40
ENDBRANCH  37  39
ENDBRANCH   5  37
TORSDOF 11
ENDMDL
