MODEL 1
REMARK VINA RESULT:     -11.0      0.000      0.000
REMARK  7 active torsions:
REMARK  status: ('A' for Active; 'I' for Inactive)
REMARK    1  A    between atoms: C_2  and  C_3 
REMARK    2  A    between atoms: N_16  and  C_17 
REMARK    3  A    between atoms: C_17  and  C_18 
REMARK       I    between atoms: C_18  and  N_19 
REMARK    4  A    between atoms: N_19  and  C_20 
REMARK    5  A    between atoms: C_21  and  C_22 
REMARK       I    between atoms: C_22  and  N_23 
REMARK    6  A    between atoms: N_23  and  C_24 
REMARK    7  A    between atoms: C_24  and  C_25 
ROOT
HETATM    1  C   UNL     1      40.866 -11.248   4.341  1.00  0.00     0.240 C 
ENDROOT
BRANCH   1   2
HETATM    2  N   UNL     1      40.513 -12.645   4.351  1.00  0.00    -0.259 N 
HETATM    3  C   UNL     1      39.961 -13.249   5.426  1.00  0.00     0.326 C 
HETATM    4  N   UNL     1      40.058 -14.606   5.282  1.00  0.00    -0.321 N 
HETATM    5  O   UNL     1      39.513 -12.713   6.427  1.00  0.00    -0.247 OA
HETATM    6  C   UNL     1      40.918 -15.008   4.178  1.00  0.00     0.140 C 
HETATM    7  H   UNL     1      39.867 -15.155   6.107  1.00  0.00     0.165 HD
HETATM    8  C   UNL     1      40.170 -15.883   3.175  1.00  0.00     0.055 C 
HETATM    9  C   UNL     1      41.126 -13.581   3.567  1.00  0.00     0.261 C 
HETATM   10  O   UNL     1      41.784 -13.310   2.570  1.00  0.00    -0.270 OA
BRANCH   6  11
HETATM   11  C   UNL     1      42.230 -15.671   4.662  1.00  0.00    -0.010 C 
HETATM   12  C   UNL     1      42.841 -16.805   4.019  1.00  0.00    -0.017 A 
HETATM   13  C   UNL     1      43.962 -17.424   4.643  1.00  0.00    -0.025 A 
HETATM   14  C   UNL     1      42.434 -17.372   2.783  1.00  0.00     0.013 A 
HETATM   15  C   UNL     1      44.543 -18.584   4.104  1.00  0.00     0.012 A 
HETATM   16  C   UNL     1      44.523 -16.883   5.803  1.00  0.00     0.012 C 
HETATM   17  C   UNL     1      44.066 -19.143   2.924  1.00  0.00     0.001 A 
HETATM   18  C   UNL     1      43.023 -18.526   2.253  1.00  0.00     0.001 A 
HETATM   19  C   UNL     1      44.008 -15.724   6.358  1.00  0.00     0.002 C 
HETATM   20  C   UNL     1      42.885 -15.130   5.793  1.00  0.00     0.011 C 
ENDBRANCH   6  11
ENDBRANCH   1   2
BRANCH   1  21
HETATM   21  C   UNL     1      42.287 -10.881   4.773  1.00  0.00     0.240 C 
HETATM   22  N   UNL     1      42.410 -10.976   6.156  1.00  0.00    -0.325 N 
HETATM   23  H   UNL     1      41.558 -10.805   6.676  1.00  0.00     0.169 HD
HETATM   24  O   UNL     1      43.161 -10.470   4.017  1.00  0.00    -0.271 OA
BRANCH  22  25
HETATM   25  C   UNL     1      43.606 -10.871   6.897  1.00  0.00     0.050 A 
HETATM   26  C   UNL     1      43.738 -10.307   8.175  1.00  0.00     0.058 A 
HETATM   27  C   UNL     1      45.007 -10.199   8.769  1.00  0.00     0.019 A 
HETATM   28  C   UNL     1      46.145 -10.653   8.106  1.00  0.00     0.001 A 
HETATM   29  C   UNL     1      46.026 -11.194   6.832  1.00  0.00     0.002 A 
HETATM   30  C   UNL     1      44.769 -11.290   6.228  1.00  0.00     0.030 A 
BRANCH  26  31
HETATM   31  C   UNL     1      42.675  -9.554   8.873  1.00  0.00     0.254 C 
HETATM   32  N   UNL     1      42.358 -10.005  10.129  1.00  0.00    -0.351 N 
HETATM   33  H   UNL     1      42.412 -11.017  10.247  1.00  0.00     0.163 HD
HETATM   34  O   UNL     1      42.226  -8.537   8.357  1.00  0.00    -0.268 OA
BRANCH  32  35
HETATM   35  C   UNL     1      41.326  -9.337  10.887  1.00  0.00     0.187 C 
BRANCH  35  36
HETATM   36  C   UNL     1      41.940  -8.674  12.064  1.00  0.00     0.070 A 
HETATM   37  O   UNL     1      41.176  -8.591  13.192  1.00  0.00    -0.325 OA
HETATM   38  C   UNL     1      41.920  -7.951  14.131  1.00  0.00     0.142 A 
HETATM   39  C   UNL     1      43.154  -7.619  13.623  1.00  0.00     0.027 A 
HETATM   40  C   UNL     1      43.167  -8.082  12.286  1.00  0.00     0.036 A 
ENDBRANCH  35  36
ENDBRANCH  32  35
ENDBRANCH  26  31
ENDBRANCH  22  25
ENDBRANCH   1  21
TORSDOF 7
ENDMDL
MODEL 2
REMARK VINA RESULT:     -10.6      1.317      2.337
REMARK  7 active torsions:
REMARK  status: ('A' for Active; 'I' for Inactive)
REMARK    1  A    between atoms: C_2  and  C_3 
REMARK    2  A    between atoms: N_16  and  C_17 
REMARK    3  A    between atoms: C_17  and  C_18 
REMARK       I    between atoms: C_18  and  N_19 
REMARK    4  A    between atoms: N_19  and  C_20 
REMARK    5  A    between atoms: C_21  and  C_22 
REMARK       I    between atoms: C_22  and  N_23 
REMARK    6  A    between atoms: N_23  and  C_24 
REMARK    7  A    between atoms: C_24  and  C_25 
ROOT
HETATM    1  C   UNL     1      41.613 -11.395   2.965  1.00  0.00     0.240 C 
ENDROOT
BRANCH   1   2
HETATM    2  N   UNL     1      40.948 -12.673   2.921  1.00  0.00    -0.259 N 
HETATM    3  C   UNL     1      40.209 -13.145   3.949  1.00  0.00     0.326 C 
HETATM    4  N   UNL     1      40.000 -14.486   3.779  1.00  0.00    -0.321 N 
HETATM    5  O   UNL     1      39.838 -12.530   4.936  1.00  0.00    -0.247 OA
HETATM    6  C   UNL     1      40.810 -15.064   2.715  1.00  0.00     0.140 C 
HETATM    7  H   UNL     1      39.639 -14.984   4.579  1.00  0.00     0.165 HD
HETATM    8  C   UNL     1      39.941 -15.732   1.651  1.00  0.00     0.055 C 
HETATM    9  C   UNL     1      41.376 -13.717   2.151  1.00  0.00     0.261 C 
HETATM   10  O   UNL     1      42.137 -13.596   1.199  1.00  0.00    -0.270 OA
BRANCH   6  11
HETATM   11  C   UNL     1      41.903 -16.017   3.255  1.00  0.00    -0.010 C 
HETATM   12  C   UNL     1      42.632 -15.791   4.475  1.00  0.00    -0.017 A 
HETATM   13  C   UNL     1      43.721 -16.654   4.792  1.00  0.00    -0.025 A 
HETATM   14  C   UNL     1      42.357 -14.774   5.427  1.00  0.00     0.013 A 
HETATM   15  C   UNL     1      44.519 -16.428   5.925  1.00  0.00     0.012 A 
HETATM   16  C   UNL     1      44.012 -17.760   3.989  1.00  0.00     0.012 C 
HETATM   17  C   UNL     1      44.252 -15.376   6.794  1.00  0.00     0.001 A 
HETATM   18  C   UNL     1      43.158 -14.560   6.555  1.00  0.00     0.001 A 
HETATM   19  C   UNL     1      43.237 -18.046   2.878  1.00  0.00     0.002 C 
HETATM   20  C   UNL     1      42.201 -17.190   2.523  1.00  0.00     0.011 C 
ENDBRANCH   6  11
ENDBRANCH   1   2
BRANCH   1  21
HETATM   21  C   UNL     1      42.924 -11.313   3.750  1.00  0.00     0.240 C 
HETATM   22  N   UNL     1      42.670 -10.958   5.072  1.00  0.00    -0.325 N 
HETATM   23  H   UNL     1      41.844 -10.389   5.214  1.00  0.00     0.169 HD
HETATM   24  O   UNL     1      44.040 -11.446   3.261  1.00  0.00    -0.271 OA
BRANCH  22  25
HETATM   25  C   UNL     1      43.607 -10.942   6.126  1.00  0.00     0.050 A 
HETATM   26  C   UNL     1      43.369 -10.498   7.436  1.00  0.00     0.058 A 
HETATM   27  C   UNL     1      44.418 -10.466   8.371  1.00  0.00     0.019 A 
HETATM   28  C   UNL     1      45.701 -10.878   8.016  1.00  0.00     0.001 A 
HETATM   29  C   UNL     1      45.950 -11.299   6.715  1.00  0.00     0.002 A 
HETATM   30  C   UNL     1      44.916 -11.318   5.776  1.00  0.00     0.030 A 
BRANCH  26  31
HETATM   31  C   UNL     1      42.146  -9.792   7.872  1.00  0.00     0.254 C 
HETATM   32  N   UNL     1      41.924  -9.777   9.226  1.00  0.00    -0.351 N 
HETATM   33  H   UNL     1      42.215 -10.622   9.717  1.00  0.00     0.163 HD
HETATM   34  O   UNL     1      41.477  -9.187   7.043  1.00  0.00    -0.268 OA
BRANCH  32  35
HETATM   35  C   UNL     1      40.750  -9.117   9.748  1.00  0.00     0.187 C 
BRANCH  35  36
HETATM   36  C   UNL     1      40.597  -9.462  11.183  1.00  0.00     0.070 A 
HETATM   37  O   UNL     1      39.563 -10.291  11.511  1.00  0.00    -0.325 OA
HETATM   38  C   UNL     1      39.606 -10.467  12.857  1.00  0.00     0.142 A 
HETATM   39  C   UNL     1      40.652  -9.762  13.402  1.00  0.00     0.027 A 
HETATM   40  C   UNL     1      41.292  -9.108  12.322  1.00  0.00     0.036 A 
ENDBRANCH  35  36
ENDBRANCH  32  35
ENDBRANCH  26  31
ENDBRANCH  22  25
ENDBRANCH   1  21
TORSDOF 7
ENDMDL
MODEL 3
REMARK VINA RESULT:     -10.3      1.826      2.074
REMARK  7 active torsions:
REMARK  status: ('A' for Active; 'I' for Inactive)
REMARK    1  A    between atoms: C_2  and  C_3 
REMARK    2  A    between atoms: N_16  and  C_17 
REMARK    3  A    between atoms: C_17  and  C_18 
REMARK       I    between atoms: C_18  and  N_19 
REMARK    4  A    between atoms: N_19  and  C_20 
REMARK    5  A    between atoms: C_21  and  C_22 
REMARK       I    between atoms: C_22  and  N_23 
REMARK    6  A    between atoms: N_23  and  C_24 
REMARK    7  A    between atoms: C_24  and  C_25 
ROOT
HETATM    1  C   UNL     1      41.526 -12.043   3.924  1.00  0.00     0.240 C 
ENDROOT
BRANCH   1   2
HETATM    2  N   UNL     1      41.588 -13.282   3.190  1.00  0.00    -0.259 N 
HETATM    3  C   UNL     1      40.577 -14.178   3.188  1.00  0.00     0.326 C 
HETATM    4  N   UNL     1      41.036 -15.376   2.715  1.00  0.00    -0.321 N 
HETATM    5  O   UNL     1      39.443 -14.015   3.610  1.00  0.00    -0.247 OA
HETATM    6  C   UNL     1      42.486 -15.428   2.587  1.00  0.00     0.140 C 
HETATM    7  H   UNL     1      40.431 -16.171   2.858  1.00  0.00     0.165 HD
HETATM    8  C   UNL     1      42.910 -15.751   1.156  1.00  0.00     0.055 C 
HETATM    9  C   UNL     1      42.758 -13.913   2.879  1.00  0.00     0.261 C 
HETATM   10  O   UNL     1      43.854 -13.366   2.891  1.00  0.00    -0.270 OA
BRANCH   6  11
HETATM   11  C   UNL     1      43.137 -16.384   3.616  1.00  0.00    -0.010 C 
HETATM   12  C   UNL     1      43.355 -17.787   3.381  1.00  0.00    -0.017 A 
HETATM   13  C   UNL     1      43.820 -18.597   4.457  1.00  0.00    -0.025 A 
HETATM   14  C   UNL     1      43.164 -18.458   2.146  1.00  0.00     0.013 A 
HETATM   15  C   UNL     1      43.969 -19.985   4.308  1.00  0.00     0.012 A 
HETATM   16  C   UNL     1      44.155 -18.025   5.688  1.00  0.00     0.012 C 
HETATM   17  C   UNL     1      43.704 -20.609   3.094  1.00  0.00     0.001 A 
HETATM   18  C   UNL     1      43.319 -19.842   2.007  1.00  0.00     0.001 A 
HETATM   19  C   UNL     1      44.056 -16.658   5.879  1.00  0.00     0.002 C 
HETATM   20  C   UNL     1      43.558 -15.855   4.859  1.00  0.00     0.011 C 
ENDBRANCH   6  11
ENDBRANCH   1   2
BRANCH   1  21
HETATM   21  C   UNL     1      42.137 -12.028   5.327  1.00  0.00     0.240 C 
HETATM   22  N   UNL     1      43.293 -11.253   5.340  1.00  0.00    -0.325 N 
HETATM   23  H   UNL     1      43.796 -11.216   4.461  1.00  0.00     0.169 HD
HETATM   24  O   UNL     1      41.721 -12.684   6.276  1.00  0.00    -0.271 OA
BRANCH  22  25
HETATM   25  C   UNL     1      44.034 -10.877   6.480  1.00  0.00     0.050 A 
HETATM   26  C   UNL     1      43.540 -10.174   7.590  1.00  0.00     0.058 A 
HETATM   27  C   UNL     1      44.410  -9.797   8.629  1.00  0.00     0.019 A 
HETATM   28  C   UNL     1      45.764 -10.120   8.575  1.00  0.00     0.001 A 
HETATM   29  C   UNL     1      46.265 -10.797   7.470  1.00  0.00     0.002 A 
HETATM   30  C   UNL     1      45.409 -11.161   6.427  1.00  0.00     0.030 A 
BRANCH  26  31
HETATM   31  C   UNL     1      42.206  -9.543   7.657  1.00  0.00     0.254 C 
HETATM   32  N   UNL     1      41.500  -9.772   8.811  1.00  0.00    -0.351 N 
HETATM   33  H   UNL     1      41.636 -10.698   9.218  1.00  0.00     0.163 HD
HETATM   34  O   UNL     1      41.857  -8.786   6.758  1.00  0.00    -0.268 OA
BRANCH  32  35
HETATM   35  C   UNL     1      40.182  -9.203   8.966  1.00  0.00     0.187 C 
BRANCH  35  36
HETATM   36  C   UNL     1      39.889  -9.045  10.412  1.00  0.00     0.070 A 
HETATM   37  O   UNL     1      39.728  -7.771  10.873  1.00  0.00    -0.325 OA
HETATM   38  C   UNL     1      39.475  -7.858  12.204  1.00  0.00     0.142 A 
HETATM   39  C   UNL     1      39.474  -9.171  12.609  1.00  0.00     0.027 A 
HETATM   40  C   UNL     1      39.745  -9.940  11.453  1.00  0.00     0.036 A 
ENDBRANCH  35  36
ENDBRANCH  32  35
ENDBRANCH  26  31
ENDBRANCH  22  25
ENDBRANCH   1  21
TORSDOF 7
ENDMDL
MODEL 4
REMARK VINA RESULT:     -10.2      5.253      7.752
REMARK  7 active torsions:
REMARK  status: ('A' for Active; 'I' for Inactive)
REMARK    1  A    between atoms: C_2  and  C_3 
REMARK    2  A    between atoms: N_16  and  C_17 
REMARK    3  A    between atoms: C_17  and  C_18 
REMARK       I    between atoms: C_18  and  N_19 
REMARK    4  A    between atoms: N_19  and  C_20 
REMARK    5  A    between atoms: C_21  and  C_22 
REMARK       I    between atoms: C_22  and  N_23 
REMARK    6  A    between atoms: N_23  and  C_24 
REMARK    7  A    between atoms: C_24  and  C_25 
ROOT
HETATM    1  C   UNL     1      40.040 -13.308   3.823  1.00  0.00     0.240 C 
ENDROOT
BRANCH   1   2
HETATM    2  N   UNL     1      40.850 -14.212   3.045  1.00  0.00    -0.259 N 
HETATM    3  C   UNL     1      40.356 -15.339   2.489  1.00  0.00     0.326 C 
HETATM    4  N   UNL     1      41.391 -16.155   2.124  1.00  0.00    -0.321 N 
HETATM    5  O   UNL     1      39.183 -15.659   2.386  1.00  0.00    -0.247 OA
HETATM    6  C   UNL     1      42.680 -15.718   2.642  1.00  0.00     0.140 C 
HETATM    7  H   UNL     1      41.145 -17.105   1.888  1.00  0.00     0.165 HD
HETATM    8  C   UNL     1      43.685 -15.483   1.517  1.00  0.00     0.055 C 
HETATM    9  C   UNL     1      42.201 -14.337   3.207  1.00  0.00     0.261 C 
HETATM   10  O   UNL     1      42.903 -13.504   3.766  1.00  0.00    -0.270 OA
BRANCH   6  11
HETATM   11  C   UNL     1      43.235 -16.671   3.727  1.00  0.00    -0.010 C 
HETATM   12  C   UNL     1      43.470 -18.076   3.517  1.00  0.00    -0.017 A 
HETATM   13  C   UNL     1      43.837 -18.883   4.632  1.00  0.00    -0.025 A 
HETATM   14  C   UNL     1      43.385 -18.751   2.271  1.00  0.00     0.013 A 
HETATM   15  C   UNL     1      43.995 -20.272   4.501  1.00  0.00     0.012 A 
HETATM   16  C   UNL     1      44.064 -18.308   5.886  1.00  0.00     0.012 C 
HETATM   17  C   UNL     1      43.835 -20.900   3.271  1.00  0.00     0.001 A 
HETATM   18  C   UNL     1      43.549 -20.136   2.152  1.00  0.00     0.001 A 
HETATM   19  C   UNL     1      43.953 -16.940   6.062  1.00  0.00     0.002 C 
HETATM   20  C   UNL     1      43.548 -16.140   5.000  1.00  0.00     0.011 C 
ENDBRANCH   6  11
ENDBRANCH   1   2
BRANCH   1  21
HETATM   21  C   UNL     1      39.384 -12.141   3.083  1.00  0.00     0.240 C 
HETATM   22  N   UNL     1      39.953 -10.936   3.486  1.00  0.00    -0.325 N 
HETATM   23  H   UNL     1      40.313 -10.925   4.433  1.00  0.00     0.169 HD
HETATM   24  O   UNL     1      38.432 -12.246   2.319  1.00  0.00    -0.271 OA
BRANCH  22  25
HETATM   25  C   UNL     1      39.721  -9.669   2.910  1.00  0.00     0.050 A 
HETATM   26  C   UNL     1      40.113  -9.262   1.626  1.00  0.00     0.058 A 
HETATM   27  C   UNL     1      39.882  -7.940   1.205  1.00  0.00     0.019 A 
HETATM   28  C   UNL     1      39.259  -7.023   2.049  1.00  0.00     0.001 A 
HETATM   29  C   UNL     1      38.887  -7.412   3.330  1.00  0.00     0.002 A 
HETATM   30  C   UNL     1      39.127  -8.720   3.760  1.00  0.00     0.030 A 
BRANCH  26  31
HETATM   31  C   UNL     1      41.006 -10.034   0.737  1.00  0.00     0.254 C 
HETATM   32  N   UNL     1      40.531 -10.258  -0.530  1.00  0.00    -0.351 N 
HETATM   33  H   UNL     1      39.522 -10.400  -0.590  1.00  0.00     0.163 HD
HETATM   34  O   UNL     1      42.129 -10.330   1.129  1.00  0.00    -0.268 OA
BRANCH  32  35
HETATM   35  C   UNL     1      41.329 -11.010  -1.469  1.00  0.00     0.187 C 
BRANCH  35  36
HETATM   36  C   UNL     1      40.695 -12.331  -1.697  1.00  0.00     0.070 A 
HETATM   37  O   UNL     1      40.325 -13.037  -0.589  1.00  0.00    -0.325 OA
HETATM   38  C   UNL     1      39.778 -14.202  -1.022  1.00  0.00     0.142 A 
HETATM   39  C   UNL     1      39.793 -14.259  -2.396  1.00  0.00     0.027 A 
HETATM   40  C   UNL     1      40.388 -13.052  -2.834  1.00  0.00     0.036 A 
ENDBRANCH  35  36
ENDBRANCH  32  35
ENDBRANCH  26  31
ENDBRANCH  22  25
ENDBRANCH   1  21
TORSDOF 7
ENDMDL
MODEL 5
REMARK VINA RESULT:     -10.0      4.734      8.622
REMARK  7 active torsions:
REMARK  status: ('A' for Active; 'I' for Inactive)
REMARK    1  A    between atoms: C_2  and  C_3 
REMARK    2  A    between atoms: N_16  and  C_17 
REMARK    3  A    between atoms: C_17  and  C_18 
REMARK       I    between atoms: C_18  and  N_19 
REMARK    4  A    between atoms: N_19  and  C_20 
REMARK    5  A    between atoms: C_21  and  C_22 
REMARK       I    between atoms: C_22  and  N_23 
REMARK    6  A    between atoms: N_23  and  C_24 
REMARK    7  A    between atoms: C_24  and  C_25 
ROOT
HETATM    1  C   UNL     1      41.688 -11.033   2.927  1.00  0.00     0.240 C 
ENDROOT
BRANCH   1   2
HETATM    2  N   UNL     1      41.097 -12.306   3.255  1.00  0.00    -0.259 N 
HETATM    3  C   UNL     1      40.439 -12.526   4.414  1.00  0.00     0.326 C 
HETATM    4  N   UNL     1      40.299 -13.872   4.607  1.00  0.00    -0.321 N 
HETATM    5  O   UNL     1      40.083 -11.693   5.232  1.00  0.00    -0.247 OA
HETATM    6  C   UNL     1      41.086 -14.672   3.678  1.00  0.00     0.140 C 
HETATM    7  H   UNL     1      40.009 -14.162   5.529  1.00  0.00     0.165 HD
HETATM    8  C   UNL     1      40.205 -15.630   2.879  1.00  0.00     0.055 C 
HETATM    9  C   UNL     1      41.544 -13.494   2.752  1.00  0.00     0.261 C 
HETATM   10  O   UNL     1      42.248 -13.592   1.754  1.00  0.00    -0.270 OA
BRANCH   6  11
HETATM   11  C   UNL     1      42.258 -15.404   4.374  1.00  0.00    -0.010 C 
HETATM   12  C   UNL     1      42.859 -16.613   3.874  1.00  0.00    -0.017 A 
HETATM   13  C   UNL     1      43.827 -17.281   4.679  1.00  0.00    -0.025 A 
HETATM   14  C   UNL     1      42.585 -17.213   2.617  1.00  0.00     0.013 A 
HETATM   15  C   UNL     1      44.381 -18.507   4.278  1.00  0.00     0.012 A 
HETATM   16  C   UNL     1      44.261 -16.722   5.883  1.00  0.00     0.012 C 
HETATM   17  C   UNL     1      44.031 -19.092   3.067  1.00  0.00     0.001 A 
HETATM   18  C   UNL     1      43.147 -18.435   2.227  1.00  0.00     0.001 A 
HETATM   19  C   UNL     1      43.770 -15.499   6.309  1.00  0.00     0.002 C 
HETATM   20  C   UNL     1      42.789 -14.855   5.564  1.00  0.00     0.011 C 
ENDBRANCH   6  11
ENDBRANCH   1   2
BRANCH   1  21
HETATM   21  C   UNL     1      41.052 -10.239   1.784  1.00  0.00     0.240 C 
HETATM   22  N   UNL     1      42.013  -9.918   0.828  1.00  0.00    -0.325 N 
HETATM   23  H   UNL     1      42.956  -9.816   1.184  1.00  0.00     0.169 HD
HETATM   24  O   UNL     1      39.887  -9.858   1.763  1.00  0.00    -0.271 OA
BRANCH  22  25
HETATM   25  C   UNL     1      41.773  -9.336  -0.434  1.00  0.00     0.050 A 
HETATM   26  C   UNL     1      41.246  -9.991  -1.557  1.00  0.00     0.058 A 
HETATM   27  C   UNL     1      41.128  -9.307  -2.780  1.00  0.00     0.019 A 
HETATM   28  C   UNL     1      41.525  -7.976  -2.893  1.00  0.00     0.001 A 
HETATM   29  C   UNL     1      42.067  -7.327  -1.790  1.00  0.00     0.002 A 
HETATM   30  C   UNL     1      42.201  -8.005  -0.576  1.00  0.00     0.030 A 
BRANCH  26  31
HETATM   31  C   UNL     1      41.036 -11.451  -1.656  1.00  0.00     0.254 C 
HETATM   32  N   UNL     1      40.146 -11.983  -0.758  1.00  0.00    -0.351 N 
HETATM   33  H   UNL     1      40.150 -11.540   0.161  1.00  0.00     0.163 HD
HETATM   34  O   UNL     1      41.565 -12.069  -2.572  1.00  0.00    -0.268 OA
BRANCH  32  35
HETATM   35  C   UNL     1      39.881 -13.402  -0.772  1.00  0.00     0.187 C 
BRANCH  35  36
HETATM   36  C   UNL     1      38.883 -13.700  -1.829  1.00  0.00     0.070 A 
HETATM   37  O   UNL     1      39.200 -14.687  -2.716  1.00  0.00    -0.325 OA
HETATM   38  C   UNL     1      38.163 -14.787  -3.587  1.00  0.00     0.142 A 
HETATM   39  C   UNL     1      37.182 -13.877  -3.275  1.00  0.00     0.027 A 
HETATM   40  C   UNL     1      37.647 -13.170  -2.141  1.00  0.00     0.036 A 
ENDBRANCH  35  36
ENDBRANCH  32  35
ENDBRANCH  26  31
ENDBRANCH  22  25
ENDBRANCH   1  21
TORSDOF 7
ENDMDL
MODEL 6
REMARK VINA RESULT:     -10.0      2.414      4.478
REMARK  7 active torsions:
REMARK  status: ('A' for Active; 'I' for Inactive)
REMARK    1  A    between atoms: C_2  and  C_3 
REMARK    2  A    between atoms: N_16  and  C_17 
REMARK    3  A    between atoms: C_17  and  C_18 
REMARK       I    between atoms: C_18  and  N_19 
REMARK    4  A    between atoms: N_19  and  C_20 
REMARK    5  A    between atoms: C_21  and  C_22 
REMARK       I    between atoms: C_22  and  N_23 
REMARK    6  A    between atoms: N_23  and  C_24 
REMARK    7  A    between atoms: C_24  and  C_25 
ROOT
HETATM    1  C   UNL     1      39.677 -12.037   5.396  1.00  0.00     0.240 C 
ENDROOT
BRANCH   1   2
HETATM    2  N   UNL     1      41.043 -12.484   5.511  1.00  0.00    -0.259 N 
HETATM    3  C   UNL     1      42.067 -11.865   4.883  1.00  0.00     0.326 C 
HETATM    4  N   UNL     1      43.160 -12.687   4.883  1.00  0.00    -0.321 N 
HETATM    5  O   UNL     1      42.043 -10.784   4.317  1.00  0.00    -0.247 OA
HETATM    6  C   UNL     1      42.861 -14.045   5.317  1.00  0.00     0.140 C 
HETATM    7  H   UNL     1      43.916 -12.420   4.270  1.00  0.00     0.165 HD
HETATM    8  C   UNL     1      43.709 -14.448   6.521  1.00  0.00     0.055 C 
HETATM    9  C   UNL     1      41.390 -13.776   5.785  1.00  0.00     0.261 C 
HETATM   10  O   UNL     1      40.626 -14.600   6.273  1.00  0.00    -0.270 OA
BRANCH   6  11
HETATM   11  C   UNL     1      42.965 -15.070   4.162  1.00  0.00    -0.010 C 
HETATM   12  C   UNL     1      43.271 -16.464   4.353  1.00  0.00    -0.017 A 
HETATM   13  C   UNL     1      43.493 -17.280   3.206  1.00  0.00    -0.025 A 
HETATM   14  C   UNL     1      43.362 -17.126   5.605  1.00  0.00     0.013 A 
HETATM   15  C   UNL     1      43.878 -18.624   3.335  1.00  0.00     0.012 A 
HETATM   16  C   UNL     1      43.316 -16.764   1.919  1.00  0.00     0.012 C 
HETATM   17  C   UNL     1      44.020 -19.213   4.587  1.00  0.00     0.001 A 
HETATM   18  C   UNL     1      43.743 -18.469   5.722  1.00  0.00     0.001 A 
HETATM   19  C   UNL     1      42.907 -15.454   1.736  1.00  0.00     0.002 C 
HETATM   20  C   UNL     1      42.733 -14.627   2.839  1.00  0.00     0.011 C 
ENDBRANCH   6  11
ENDBRANCH   1   2
BRANCH   1  21
HETATM   21  C   UNL     1      39.198 -10.983   6.396  1.00  0.00     0.240 C 
HETATM   22  N   UNL     1      39.781  -9.751   6.113  1.00  0.00    -0.325 N 
HETATM   23  H   UNL     1      40.694  -9.797   5.675  1.00  0.00     0.169 HD
HETATM   24  O   UNL     1      38.480 -11.214   7.362  1.00  0.00    -0.271 OA
BRANCH  22  25
HETATM   25  C   UNL     1      39.458  -8.517   6.714  1.00  0.00     0.050 A 
HETATM   26  C   UNL     1      39.987  -8.021   7.916  1.00  0.00     0.058 A 
HETATM   27  C   UNL     1      39.518  -6.804   8.442  1.00  0.00     0.019 A 
HETATM   28  C   UNL     1      38.534  -6.074   7.779  1.00  0.00     0.001 A 
HETATM   29  C   UNL     1      37.990  -6.568   6.600  1.00  0.00     0.002 A 
HETATM   30  C   UNL     1      38.440  -7.785   6.079  1.00  0.00     0.030 A 
BRANCH  26  31
HETATM   31  C   UNL     1      40.827  -8.802   8.848  1.00  0.00     0.254 C 
HETATM   32  N   UNL     1      42.136  -8.960   8.472  1.00  0.00    -0.351 N 
HETATM   33  H   UNL     1      42.285  -9.055   7.467  1.00  0.00     0.163 HD
HETATM   34  O   UNL     1      40.354  -9.160   9.920  1.00  0.00    -0.268 OA
BRANCH  32  35
HETATM   35  C   UNL     1      43.034  -9.714   9.315  1.00  0.00     0.187 C 
BRANCH  35  36
HETATM   36  C   UNL     1      44.383  -9.729   8.699  1.00  0.00     0.070 A 
HETATM   37  O   UNL     1      44.700 -10.815   7.936  1.00  0.00    -0.325 OA
HETATM   38  C   UNL     1      45.965 -10.626   7.480  1.00  0.00     0.142 A 
HETATM   39  C   UNL     1      46.470  -9.433   7.940  1.00  0.00     0.027 A 
HETATM   40  C   UNL     1      45.450  -8.854   8.732  1.00  0.00     0.036 A 
ENDBRANCH  35  36
ENDBRANCH  32  35
ENDBRANCH  26  31
ENDBRANCH  22  25
ENDBRANCH   1  21
TORSDOF 7
ENDMDL
MODEL 7
REMARK VINA RESULT:      -9.9      4.325      8.199
REMARK  7 active torsions:
REMARK  status: ('A' for Active; 'I' for Inactive)
REMARK    1  A    between atoms: C_2  and  C_3 
REMARK    2  A    between atoms: N_16  and  C_17 
REMARK    3  A    between atoms: C_17  and  C_18 
REMARK       I    between atoms: C_18  and  N_19 
REMARK    4  A    between atoms: N_19  and  C_20 
REMARK    5  A    between atoms: C_21  and  C_22 
REMARK       I    between atoms: C_22  and  N_23 
REMARK    6  A    between atoms: N_23  and  C_24 
REMARK    7  A    between atoms: C_24  and  C_25 
ROOT
HETATM    1  C   UNL     1      42.405 -14.778   2.369  1.00  0.00     0.240 C 
ENDROOT
BRANCH   1   2
HETATM    2  N   UNL     1      41.220 -14.092   1.921  1.00  0.00    -0.259 N 
HETATM    3  C   UNL     1      40.240 -14.709   1.225  1.00  0.00     0.326 C 
HETATM    4  N   UNL     1      39.436 -13.768   0.644  1.00  0.00    -0.321 N 
HETATM    5  O   UNL     1      40.104 -15.909   1.045  1.00  0.00    -0.247 OA
HETATM    6  C   UNL     1      39.979 -12.419   0.720  1.00  0.00     0.140 C 
HETATM    7  H   UNL     1      38.797 -14.104  -0.062  1.00  0.00     0.165 HD
HETATM    8  C   UNL     1      39.017 -11.467   1.427  1.00  0.00     0.055 C 
HETATM    9  C   UNL     1      41.177 -12.749   1.675  1.00  0.00     0.261 C 
HETATM   10  O   UNL     1      42.000 -11.949   2.103  1.00  0.00    -0.270 OA
BRANCH   6  11
HETATM   11  C   UNL     1      40.420 -11.880  -0.662  1.00  0.00    -0.010 C 
HETATM   12  C   UNL     1      40.832 -10.521  -0.898  1.00  0.00    -0.017 A 
HETATM   13  C   UNL     1      41.068 -10.100  -2.239  1.00  0.00    -0.025 A 
HETATM   14  C   UNL     1      41.049  -9.537   0.102  1.00  0.00     0.013 A 
HETATM   15  C   UNL     1      41.389  -8.765  -2.534  1.00  0.00     0.012 A 
HETATM   16  C   UNL     1      41.000 -11.012  -3.295  1.00  0.00     0.012 C 
HETATM   17  C   UNL     1      41.525  -7.819  -1.524  1.00  0.00     0.001 A 
HETATM   18  C   UNL     1      41.373  -8.210  -0.204  1.00  0.00     0.001 A 
HETATM   19  C   UNL     1      40.717 -12.346  -3.056  1.00  0.00     0.002 C 
HETATM   20  C   UNL     1      40.436 -12.768  -1.762  1.00  0.00     0.011 C 
ENDBRANCH   6  11
ENDBRANCH   1   2
BRANCH   1  21
HETATM   21  C   UNL     1      42.208 -16.057   3.185  1.00  0.00     0.240 C 
HETATM   22  N   UNL     1      43.209 -16.978   2.885  1.00  0.00    -0.325 N 
HETATM   23  H   UNL     1      43.588 -16.911   1.948  1.00  0.00     0.169 HD
HETATM   24  O   UNL     1      41.253 -16.275   3.922  1.00  0.00    -0.271 OA
BRANCH  22  25
HETATM   25  C   UNL     1      43.448 -18.197   3.552  1.00  0.00     0.050 A 
HETATM   26  C   UNL     1      43.683 -18.354   4.926  1.00  0.00     0.058 A 
HETATM   27  C   UNL     1      43.983 -19.625   5.449  1.00  0.00     0.019 A 
HETATM   28  C   UNL     1      44.045 -20.741   4.616  1.00  0.00     0.001 A 
HETATM   29  C   UNL     1      43.835 -20.590   3.251  1.00  0.00     0.002 A 
HETATM   30  C   UNL     1      43.551 -19.328   2.723  1.00  0.00     0.030 A 
BRANCH  26  31
HETATM   31  C   UNL     1      43.910 -17.241   5.871  1.00  0.00     0.254 C 
HETATM   32  N   UNL     1      42.826 -16.879   6.630  1.00  0.00    -0.351 N 
HETATM   33  H   UNL     1      41.926 -16.956   6.155  1.00  0.00     0.163 HD
HETATM   34  O   UNL     1      45.041 -16.788   6.000  1.00  0.00    -0.268 OA
BRANCH  32  35
HETATM   35  C   UNL     1      42.948 -15.796   7.577  1.00  0.00     0.187 C 
BRANCH  35  36
HETATM   36  C   UNL     1      42.753 -14.507   6.869  1.00  0.00     0.070 A 
HETATM   37  O   UNL     1      41.489 -14.228   6.436  1.00  0.00    -0.325 OA
HETATM   38  C   UNL     1      41.538 -13.019   5.818  1.00  0.00     0.142 A 
HETATM   39  C   UNL     1      42.816 -12.516   5.845  1.00  0.00     0.027 A 
HETATM   40  C   UNL     1      43.604 -13.478   6.521  1.00  0.00     0.036 A 
ENDBRANCH  35  36
ENDBRANCH  32  35
ENDBRANCH  26  31
ENDBRANCH  22  25
ENDBRANCH   1  21
TORSDOF 7
ENDMDL
MODEL 8
REMARK VINA RESULT:      -9.7      1.244      2.175
REMARK  7 active torsions:
REMARK  status: ('A' for Active; 'I' for Inactive)
REMARK    1  A    between atoms: C_2  and  C_3 
REMARK    2  A    between atoms: N_16  and  C_17 
REMARK    3  A    between atoms: C_17  and  C_18 
REMARK       I    between atoms: C_18  and  N_19 
REMARK    4  A    between atoms: N_19  and  C_20 
REMARK    5  A    between atoms: C_21  and  C_22 
REMARK       I    between atoms: C_22  and  N_23 
REMARK    6  A    between atoms: N_23  and  C_24 
REMARK    7  A    between atoms: C_24  and  C_25 
ROOT
HETATM    1  C   UNL     1      41.551 -11.340   4.916  1.00  0.00     0.240 C 
ENDROOT
BRANCH   1   2
HETATM    2  N   UNL     1      40.888 -12.536   4.463  1.00  0.00    -0.259 N 
HETATM    3  C   UNL     1      40.124 -13.298   5.276  1.00  0.00     0.326 C 
HETATM    4  N   UNL     1      39.919 -14.518   4.693  1.00  0.00    -0.321 N 
HETATM    5  O   UNL     1      39.727 -13.017   6.395  1.00  0.00    -0.247 OA
HETATM    6  C   UNL     1      40.756 -14.744   3.522  1.00  0.00     0.140 C 
HETATM    7  H   UNL     1      39.539 -15.238   5.290  1.00  0.00     0.165 HD
HETATM    8  C   UNL     1      39.916 -15.044   2.283  1.00  0.00     0.055 C 
HETATM    9  C   UNL     1      41.336 -13.293   3.417  1.00  0.00     0.261 C 
HETATM   10  O   UNL     1      42.121 -12.888   2.568  1.00  0.00    -0.270 OA
BRANCH   6  11
HETATM   11  C   UNL     1      41.836 -15.826   3.767  1.00  0.00    -0.010 C 
HETATM   12  C   UNL     1      42.407 -16.112   5.057  1.00  0.00    -0.017 A 
HETATM   13  C   UNL     1      43.501 -17.020   5.135  1.00  0.00    -0.025 A 
HETATM   14  C   UNL     1      41.963 -15.576   6.294  1.00  0.00     0.013 A 
HETATM   15  C   UNL     1      44.150 -17.270   6.355  1.00  0.00     0.012 A 
HETATM   16  C   UNL     1      43.948 -17.699   3.998  1.00  0.00     0.012 C 
HETATM   17  C   UNL     1      43.722 -16.668   7.533  1.00  0.00     0.001 A 
HETATM   18  C   UNL     1      42.616 -15.835   7.505  1.00  0.00     0.001 A 
HETATM   19  C   UNL     1      43.324 -17.512   2.776  1.00  0.00     0.002 C 
HETATM   20  C   UNL     1      42.286 -16.594   2.668  1.00  0.00     0.011 C 
ENDBRANCH   6  11
ENDBRANCH   1   2
BRANCH   1  21
HETATM   21  C   UNL     1      42.701 -11.509   5.910  1.00  0.00     0.240 C 
HETATM   22  N   UNL     1      42.949 -10.307   6.568  1.00  0.00    -0.325 N 
HETATM   23  H   UNL     1      42.726  -9.473   6.039  1.00  0.00     0.169 HD
HETATM   24  O   UNL     1      43.369 -12.529   6.037  1.00  0.00    -0.271 OA
BRANCH  22  25
HETATM   25  C   UNL     1      43.821 -10.119   7.661  1.00  0.00     0.050 A 
HETATM   26  C   UNL     1      43.439  -9.853   8.985  1.00  0.00     0.058 A 
HETATM   27  C   UNL     1      44.418  -9.610   9.965  1.00  0.00     0.019 A 
HETATM   28  C   UNL     1      45.773  -9.637   9.640  1.00  0.00     0.001 A 
HETATM   29  C   UNL     1      46.158  -9.878   8.328  1.00  0.00     0.002 A 
HETATM   30  C   UNL     1      45.191 -10.105   7.345  1.00  0.00     0.030 A 
BRANCH  26  31
HETATM   31  C   UNL     1      42.061  -9.535   9.412  1.00  0.00     0.254 C 
HETATM   32  N   UNL     1      41.895  -9.313  10.756  1.00  0.00    -0.351 N 
HETATM   33  H   UNL     1      42.485  -9.885  11.360  1.00  0.00     0.163 HD
HETATM   34  O   UNL     1      41.191  -9.383   8.562  1.00  0.00    -0.268 OA
BRANCH  32  35
HETATM   35  C   UNL     1      40.581  -9.003  11.270  1.00  0.00     0.187 C 
BRANCH  35  36
HETATM   36  C   UNL     1      40.715  -8.453  12.642  1.00  0.00     0.070 A 
HETATM   37  O   UNL     1      41.100  -9.323  13.620  1.00  0.00    -0.325 OA
HETATM   38  C   UNL     1      41.152  -8.620  14.781  1.00  0.00     0.142 A 
HETATM   39  C   UNL     1      40.803  -7.308  14.565  1.00  0.00     0.027 A 
HETATM   40  C   UNL     1      40.516  -7.199  13.184  1.00  0.00     0.036 A 
ENDBRANCH  35  36
ENDBRANCH  32  35
ENDBRANCH  26  31
ENDBRANCH  22  25
ENDBRANCH   1  21
TORSDOF 7
ENDMDL
MODEL 9
REMARK VINA RESULT:      -9.7      4.181      8.213
REMARK  7 active torsions:
REMARK  status: ('A' for Active; 'I' for Inactive)
REMARK    1  A    between atoms: C_2  and  C_3 
REMARK    2  A    between atoms: N_16  and  C_17 
REMARK    3  A    between atoms: C_17  and  C_18 
REMARK       I    between atoms: C_18  and  N_19 
REMARK    4  A    between atoms: N_19  and  C_20 
REMARK    5  A    between atoms: C_21  and  C_22 
REMARK       I    between atoms: C_22  and  N_23 
REMARK    6  A    between atoms: N_23  and  C_24 
REMARK    7  A    between atoms: C_24  and  C_25 
ROOT
HETATM    1  C   UNL     1      40.900 -12.090   5.154  1.00  0.00     0.240 C 
ENDROOT
BRANCH   1   2
HETATM    2  N   UNL     1      41.809 -13.048   5.732  1.00  0.00    -0.259 N 
HETATM    3  C   UNL     1      43.151 -12.896   5.690  1.00  0.00     0.326 C 
HETATM    4  N   UNL     1      43.750 -14.088   5.990  1.00  0.00    -0.321 N 
HETATM    5  O   UNL     1      43.772 -11.899   5.360  1.00  0.00    -0.247 OA
HETATM    6  C   UNL     1      42.821 -15.209   6.022  1.00  0.00     0.140 C 
HETATM    7  H   UNL     1      44.738 -14.151   5.791  1.00  0.00     0.165 HD
HETATM    8  C   UNL     1      42.841 -15.914   7.376  1.00  0.00     0.055 C 
HETATM    9  C   UNL     1      41.504 -14.369   5.894  1.00  0.00     0.261 C 
HETATM   10  O   UNL     1      40.363 -14.814   5.880  1.00  0.00    -0.270 OA
BRANCH   6  11
HETATM   11  C   UNL     1      43.042 -16.195   4.850  1.00  0.00    -0.010 C 
HETATM   12  C   UNL     1      43.325 -17.595   5.023  1.00  0.00    -0.017 A 
HETATM   13  C   UNL     1      43.662 -18.372   3.877  1.00  0.00    -0.025 A 
HETATM   14  C   UNL     1      43.284 -18.301   6.253  1.00  0.00     0.013 A 
HETATM   15  C   UNL     1      44.029 -19.722   3.999  1.00  0.00     0.012 A 
HETATM   16  C   UNL     1      43.620 -17.812   2.597  1.00  0.00     0.012 C 
HETATM   17  C   UNL     1      44.040 -20.355   5.237  1.00  0.00     0.001 A 
HETATM   18  C   UNL     1      43.648 -19.649   6.362  1.00  0.00     0.001 A 
HETATM   19  C   UNL     1      43.235 -16.494   2.418  1.00  0.00     0.002 C 
HETATM   20  C   UNL     1      42.949 -15.705   3.526  1.00  0.00     0.011 C 
ENDBRANCH   6  11
ENDBRANCH   1   2
BRANCH   1  21
HETATM   21  C   UNL     1      40.162 -12.505   3.879  1.00  0.00     0.240 C 
HETATM   22  N   UNL     1      41.063 -12.657   2.829  1.00  0.00    -0.325 N 
HETATM   23  H   UNL     1      41.892 -12.077   2.886  1.00  0.00     0.169 HD
HETATM   24  O   UNL     1      38.944 -12.595   3.777  1.00  0.00    -0.271 OA
BRANCH  22  25
HETATM   25  C   UNL     1      40.776 -13.184   1.553  1.00  0.00     0.050 A 
HETATM   26  C   UNL     1      40.809 -12.476   0.342  1.00  0.00     0.058 A 
HETATM   27  C   UNL     1      40.425 -13.108  -0.854  1.00  0.00     0.019 A 
HETATM   28  C   UNL     1      40.015 -14.439  -0.856  1.00  0.00     0.001 A 
HETATM   29  C   UNL     1      39.960 -15.141   0.342  1.00  0.00     0.002 A 
HETATM   30  C   UNL     1      40.325 -14.515   1.536  1.00  0.00     0.030 A 
BRANCH  26  31
HETATM   31  C   UNL     1      40.963 -11.010   0.231  1.00  0.00     0.254 C 
HETATM   32  N   UNL     1      41.591 -10.565  -0.904  1.00  0.00    -0.351 N 
HETATM   33  H   UNL     1      42.336 -11.173  -1.247  1.00  0.00     0.163 HD
HETATM   34  O   UNL     1      40.443 -10.289   1.075  1.00  0.00    -0.268 OA
BRANCH  32  35
HETATM   35  C   UNL     1      41.794  -9.149  -1.099  1.00  0.00     0.187 C 
BRANCH  35  36
HETATM   36  C   UNL     1      41.045  -8.711  -2.303  1.00  0.00     0.070 A 
HETATM   37  O   UNL     1      40.161  -7.685  -2.138  1.00  0.00    -0.325 OA
HETATM   38  C   UNL     1      39.590  -7.454  -3.349  1.00  0.00     0.142 A 
HETATM   39  C   UNL     1      40.092  -8.319  -4.291  1.00  0.00     0.027 A 
HETATM   40  C   UNL     1      41.030  -9.136  -3.616  1.00  0.00     0.036 A 
ENDBRANCH  35  36
ENDBRANCH  32  35
ENDBRANCH  26  31
ENDBRANCH  22  25
ENDBRANCH   1  21
TORSDOF 7
ENDMDL
MODEL 10
REMARK VINA RESULT:      -9.6      3.983      8.369
REMARK  7 active torsions:
REMARK  status: ('A' for Active; 'I' for Inactive)
REMARK    1  A    between atoms: C_2  and  C_3 
REMARK    2  A    between atoms: N_16  and  C_17 
REMARK    3  A    between atoms: C_17  and  C_18 
REMARK       I    between atoms: C_18  and  N_19 
REMARK    4  A    between atoms: N_19  and  C_20 
REMARK    5  A    between atoms: C_21  and  C_22 
REMARK       I    between atoms: C_22  and  N_23 
REMARK    6  A    between atoms: N_23  and  C_24 
REMARK    7  A    between atoms: C_24  and  C_25 
ROOT
HETATM    1  C   UNL     1      41.738 -10.676   4.844  1.00  0.00     0.240 C 
ENDROOT
BRANCH   1   2
HETATM    2  N   UNL     1      42.153 -11.942   5.394  1.00  0.00    -0.259 N 
HETATM    3  C   UNL     1      43.444 -12.227   5.672  1.00  0.00     0.326 C 
HETATM    4  N   UNL     1      43.584 -13.576   5.843  1.00  0.00    -0.321 N 
HETATM    5  O   UNL     1      44.385 -11.449   5.694  1.00  0.00    -0.247 OA
HETATM    6  C   UNL     1      42.404 -14.332   5.445  1.00  0.00     0.140 C 
HETATM    7  H   UNL     1      44.530 -13.928   5.851  1.00  0.00     0.165 HD
HETATM    8  C   UNL     1      41.864 -15.175   6.598  1.00  0.00     0.055 C 
HETATM    9  C   UNL     1      41.459 -13.104   5.214  1.00  0.00     0.261 C 
HETATM   10  O   UNL     1      40.285 -13.151   4.865  1.00  0.00    -0.270 OA
BRANCH   6  11
HETATM   11  C   UNL     1      42.644 -15.177   4.171  1.00  0.00    -0.010 C 
HETATM   12  C   UNL     1      43.100 -16.542   4.188  1.00  0.00    -0.017 A 
HETATM   13  C   UNL     1      43.433 -17.168   2.952  1.00  0.00    -0.025 A 
HETATM   14  C   UNL     1      43.240 -17.352   5.345  1.00  0.00     0.013 A 
HETATM   15  C   UNL     1      43.963 -18.468   2.918  1.00  0.00     0.012 A 
HETATM   16  C   UNL     1      43.225 -16.507   1.738  1.00  0.00     0.012 C 
HETATM   17  C   UNL     1      44.146 -19.200   4.085  1.00  0.00     0.001 A 
HETATM   18  C   UNL     1      43.766 -18.649   5.298  1.00  0.00     0.001 A 
HETATM   19  C   UNL     1      42.676 -15.236   1.714  1.00  0.00     0.002 C 
HETATM   20  C   UNL     1      42.389 -14.588   2.910  1.00  0.00     0.011 C 
ENDBRANCH   6  11
ENDBRANCH   1   2
BRANCH   1  21
HETATM   21  C   UNL     1      41.779 -10.526   3.322  1.00  0.00     0.240 C 
HETATM   22  N   UNL     1      40.628  -9.887   2.870  1.00  0.00    -0.325 N 
HETATM   23  H   UNL     1      39.803 -10.032   3.440  1.00  0.00     0.169 HD
HETATM   24  O   UNL     1      42.655 -10.989   2.599  1.00  0.00    -0.271 OA
BRANCH  22  25
HETATM   25  C   UNL     1      40.386  -9.433   1.556  1.00  0.00     0.050 A 
HETATM   26  C   UNL     1      39.859 -10.197   0.504  1.00  0.00     0.058 A 
HETATM   27  C   UNL     1      39.740  -9.638  -0.781  1.00  0.00     0.019 A 
HETATM   28  C   UNL     1      40.134  -8.324  -1.025  1.00  0.00     0.001 A 
HETATM   29  C   UNL     1      40.677  -7.568   0.007  1.00  0.00     0.002 A 
HETATM   30  C   UNL     1      40.813  -8.123   1.282  1.00  0.00     0.030 A 
BRANCH  26  31
HETATM   31  C   UNL     1      39.652 -11.660   0.551  1.00  0.00     0.254 C 
HETATM   32  N   UNL     1      40.322 -12.383  -0.403  1.00  0.00    -0.351 N 
HETATM   33  H   UNL     1      40.410 -11.920  -1.308  1.00  0.00     0.163 HD
HETATM   34  O   UNL     1      39.004 -12.142   1.472  1.00  0.00    -0.268 OA
BRANCH  32  35
HETATM   35  C   UNL     1      40.176 -13.819  -0.442  1.00  0.00     0.187 C 
BRANCH  35  36
HETATM   36  C   UNL     1      39.325 -14.189  -1.600  1.00  0.00     0.070 A 
HETATM   37  O   UNL     1      38.607 -13.185  -2.183  1.00  0.00    -0.325 OA
HETATM   38  C   UNL     1      37.904 -13.740  -3.204  1.00  0.00     0.142 A 
HETATM   39  C   UNL     1      38.155 -15.089  -3.285  1.00  0.00     0.027 A 
HETATM   40  C   UNL     1      39.071 -15.382  -2.246  1.00  0.00     0.036 A 
ENDBRANCH  35  36
ENDBRANCH  32  35
ENDBRANCH  26  31
ENDBRANCH  22  25
ENDBRANCH   1  21
TORSDOF 7
ENDMDL
