MODEL 1
REMARK VINA RESULT:      -6.3      0.000      0.000
REMARK  2 active torsions:
REMARK  status: ('A' for Active; 'I' for Inactive)
REMARK    1  A    between atoms: N_6  and  C_7 
REMARK    2  A    between atoms: C_11  and  N_12 
ROOT
HETATM    1  C   UNL     1      43.403 -16.340   3.836  1.00  0.00     0.070 A 
HETATM    2  C   UNL     1      43.808 -16.659   5.151  1.00  0.00     0.145 A 
HETATM    3  F   UNL     1      43.994 -15.686   6.057  1.00  0.00    -0.204 F 
HETATM    4  C   UNL     1      44.080 -17.963   5.559  1.00  0.00     0.082 A 
HETATM    5  C   UNL     1      43.946 -18.995   4.633  1.00  0.00     0.123 A 
HETATM    6  C   UNL     1      43.542 -18.747   3.326  1.00  0.00     0.046 A 
HETATM    7 BR   UNL     1      43.302 -20.108   2.028  1.00  0.00    -0.048 Br
HETATM    8  C   UNL     1      43.269 -17.425   2.943  1.00  0.00     0.054 A 
ENDROOT
BRANCH   1   9
HETATM    9  N   UNL     1      43.086 -15.049   3.404  1.00  0.00    -0.375 N 
HETATM   10  C   UNL     1      41.926 -14.362   4.011  1.00  0.00     0.150 C 
HETATM   11  C   UNL     1      40.682 -14.468   3.100  1.00  0.00     0.254 C 
HETATM   12  N   UNL     1      41.000 -13.966   1.690  1.00  0.00    -0.072 N 
HETATM   13  C   UNL     1      39.801 -14.012   0.793  1.00  0.00     0.269 C 
HETATM   14  H   UNL     1      41.285 -12.982   1.775  1.00  0.00     0.279 HD
HETATM   15  C   UNL     1      42.191 -14.725   1.096  1.00  0.00     0.254 C 
HETATM   16  C   UNL     1      43.412 -14.608   2.032  1.00  0.00     0.150 C 
ENDBRANCH   1   9
BRANCH   5  17
HETATM   17  N   UNL     1      44.254 -20.332   5.078  1.00  0.00    -0.114 N 
HETATM   18  O   UNL     1      45.394 -20.746   4.844  1.00  0.00    -0.532 OA
HETATM   19  O   UNL     1      43.332 -20.970   5.601  1.00  0.00    -0.532 OA
ENDBRANCH   5  17
TORSDOF 2
ENDMDL
MODEL 2
REMARK VINA RESULT:      -6.2      1.263      2.024
REMARK  2 active torsions:
REMARK  status: ('A' for Active; 'I' for Inactive)
REMARK    1  A    between atoms: N_6  and  C_7 
REMARK    2  A    between atoms: C_11  and  N_12 
ROOT
HETATM    1  C   UNL     1      42.917 -16.263   3.026  1.00  0.00     0.070 A 
HETATM    2  C   UNL     1      43.215 -16.240   4.407  1.00  0.00     0.145 A 
HETATM    3  F   UNL     1      43.179 -15.084   5.088  1.00  0.00    -0.204 F 
HETATM    4  C   UNL     1      43.602 -17.377   5.112  1.00  0.00     0.082 A 
HETATM    5  C   UNL     1      43.699 -18.587   4.428  1.00  0.00     0.123 A 
HETATM    6  C   UNL     1      43.410 -18.677   3.071  1.00  0.00     0.046 A 
HETATM    7 BR   UNL     1      43.483 -20.298   2.090  1.00  0.00    -0.048 Br
HETATM    8  C   UNL     1      43.017 -17.517   2.386  1.00  0.00     0.054 A 
ENDROOT
BRANCH   1   9
HETATM    9  N   UNL     1      42.490 -15.150   2.297  1.00  0.00    -0.375 N 
HETATM   10  C   UNL     1      43.464 -14.078   2.000  1.00  0.00     0.150 C 
HETATM   11  C   UNL     1      43.312 -12.902   2.991  1.00  0.00     0.254 C 
HETATM   12  N   UNL     1      41.867 -12.400   3.017  1.00  0.00    -0.072 N 
HETATM   13  C   UNL     1      41.695 -11.229   3.934  1.00  0.00     0.269 C 
HETATM   14  H   UNL     1      41.638 -12.085   2.065  1.00  0.00     0.279 HD
HETATM   15  C   UNL     1      40.900 -13.541   3.354  1.00  0.00     0.254 C 
HETATM   16  C   UNL     1      41.083 -14.701   2.354  1.00  0.00     0.150 C 
ENDBRANCH   1   9
BRANCH   5  17
HETATM   17  N   UNL     1      44.122 -19.744   5.179  1.00  0.00    -0.114 N 
HETATM   18  O   UNL     1      43.442 -20.045   6.165  1.00  0.00    -0.532 OA
HETATM   19  O   UNL     1      45.163 -20.299   4.804  1.00  0.00    -0.532 OA
ENDBRANCH   5  17
TORSDOF 2
ENDMDL
MODEL 3
REMARK VINA RESULT:      -6.0      2.894      3.386
REMARK  2 active torsions:
REMARK  status: ('A' for Active; 'I' for Inactive)
REMARK    1  A    between atoms: N_6  and  C_7 
REMARK    2  A    between atoms: C_11  and  N_12 
ROOT
HETATM    1  C   UNL     1      43.164 -16.933   5.303  1.00  0.00     0.070 A 
HETATM    2  C   UNL     1      42.942 -16.672   3.933  1.00  0.00     0.145 A 
HETATM    3  F   UNL     1      42.497 -15.470   3.536  1.00  0.00    -0.204 F 
HETATM    4  C   UNL     1      43.120 -17.638   2.945  1.00  0.00     0.082 A 
HETATM    5  C   UNL     1      43.535 -18.913   3.323  1.00  0.00     0.123 A 
HETATM    6  C   UNL     1      43.779 -19.230   4.655  1.00  0.00     0.046 A 
HETATM    7 BR   UNL     1      44.382 -20.931   5.234  1.00  0.00    -0.048 Br
HETATM    8  C   UNL     1      43.597 -18.236   5.629  1.00  0.00     0.054 A 
ENDROOT
BRANCH   1   9
HETATM    9  N   UNL     1      43.032 -15.978   6.315  1.00  0.00    -0.375 N 
HETATM   10  C   UNL     1      41.708 -15.787   6.943  1.00  0.00     0.150 C 
HETATM   11  C   UNL     1      40.980 -14.565   6.338  1.00  0.00     0.254 C 
HETATM   12  N   UNL     1      41.861 -13.317   6.419  1.00  0.00    -0.072 N 
HETATM   13  C   UNL     1      41.167 -12.103   5.882  1.00  0.00     0.269 C 
HETATM   14  H   UNL     1      42.058 -13.147   7.414  1.00  0.00     0.279 HD
HETATM   15  C   UNL     1      43.211 -13.557   5.733  1.00  0.00     0.254 C 
HETATM   16  C   UNL     1      43.906 -14.787   6.352  1.00  0.00     0.150 C 
ENDBRANCH   1   9
BRANCH   5  17
HETATM   17  N   UNL     1      43.691 -19.899   2.282  1.00  0.00    -0.114 N 
HETATM   18  O   UNL     1      44.810 -19.991   1.768  1.00  0.00    -0.532 OA
HETATM   19  O   UNL     1      42.676 -20.526   1.954  1.00  0.00    -0.532 OA
ENDBRANCH   5  17
TORSDOF 2
ENDMDL
MODEL 4
REMARK VINA RESULT:      -6.0      2.278      3.012
REMARK  2 active torsions:
REMARK  status: ('A' for Active; 'I' for Inactive)
REMARK    1  A    between atoms: N_6  and  C_7 
REMARK    2  A    between atoms: C_11  and  N_12 
ROOT
HETATM    1  C   UNL     1      40.853 -15.583   3.295  1.00  0.00     0.070 A 
HETATM    2  C   UNL     1      40.976 -15.253   4.663  1.00  0.00     0.145 A 
HETATM    3  F   UNL     1      40.209 -14.290   5.198  1.00  0.00    -0.204 F 
HETATM    4  C   UNL     1      41.910 -15.857   5.502  1.00  0.00     0.082 A 
HETATM    5  C   UNL     1      42.757 -16.826   4.971  1.00  0.00     0.123 A 
HETATM    6  C   UNL     1      42.680 -17.202   3.635  1.00  0.00     0.046 A 
HETATM    7 BR   UNL     1      43.774 -18.541   2.857  1.00  0.00    -0.048 Br
HETATM    8  C   UNL     1      41.726 -16.582   2.813  1.00  0.00     0.054 A 
ENDROOT
BRANCH   1   9
HETATM    9  N   UNL     1      39.903 -15.025   2.436  1.00  0.00    -0.375 N 
HETATM   10  C   UNL     1      39.823 -15.524   1.046  1.00  0.00     0.150 C 
HETATM   11  C   UNL     1      40.570 -14.580   0.076  1.00  0.00     0.254 C 
HETATM   12  N   UNL     1      40.063 -13.144   0.222  1.00  0.00    -0.072 N 
HETATM   13  C   UNL     1      40.735 -12.210  -0.737  1.00  0.00     0.269 C 
HETATM   14  H   UNL     1      39.060 -13.151  -0.003  1.00  0.00     0.279 HD
HETATM   15  C   UNL     1      40.190 -12.665   1.673  1.00  0.00     0.254 C 
HETATM   16  C   UNL     1      39.443 -13.632   2.615  1.00  0.00     0.150 C 
ENDBRANCH   1   9
BRANCH   5  17
HETATM   17  N   UNL     1      43.728 -17.420   5.857  1.00  0.00    -0.114 N 
HETATM   18  O   UNL     1      44.810 -16.833   5.969  1.00  0.00    -0.532 OA
HETATM   19  O   UNL     1      43.416 -18.496   6.382  1.00  0.00    -0.532 OA
ENDBRANCH   5  17
TORSDOF 2
ENDMDL
MODEL 5
REMARK VINA RESULT:      -6.0      5.338      7.440
REMARK  2 active torsions:
REMARK  status: ('A' for Active; 'I' for Inactive)
REMARK    1  A    between atoms: N_6  and  C_7 
REMARK    2  A    between atoms: C_11  and  N_12 
ROOT
HETATM    1  C   UNL     1      41.156 -13.623   0.897  1.00  0.00     0.070 A 
HETATM    2  C   UNL     1      40.416 -14.764   0.517  1.00  0.00     0.145 A 
HETATM    3  F   UNL     1      40.514 -15.901   1.224  1.00  0.00    -0.204 F 
HETATM    4  C   UNL     1      39.602 -14.790  -0.613  1.00  0.00     0.082 A 
HETATM    5  C   UNL     1      39.513 -13.644  -1.400  1.00  0.00     0.123 A 
HETATM    6  C   UNL     1      40.210 -12.486  -1.074  1.00  0.00     0.046 A 
HETATM    7 BR   UNL     1      40.103 -10.881  -2.077  1.00  0.00    -0.048 Br
HETATM    8  C   UNL     1      41.018 -12.486   0.074  1.00  0.00     0.054 A 
ENDROOT
BRANCH   1   9
HETATM    9  N   UNL     1      41.952 -13.551   2.044  1.00  0.00    -0.375 N 
HETATM   10  C   UNL     1      43.268 -14.226   2.040  1.00  0.00     0.150 C 
HETATM   11  C   UNL     1      43.188 -15.596   2.750  1.00  0.00     0.254 C 
HETATM   12  N   UNL     1      42.603 -15.443   4.156  1.00  0.00    -0.072 N 
HETATM   13  C   UNL     1      42.554 -16.748   4.890  1.00  0.00     0.269 C 
HETATM   14  H   UNL     1      43.228 -14.816   4.679  1.00  0.00     0.279 HD
HETATM   15  C   UNL     1      41.230 -14.761   4.104  1.00  0.00     0.254 C 
HETATM   16  C   UNL     1      41.342 -13.403   3.382  1.00  0.00     0.150 C 
ENDBRANCH   1   9
BRANCH   5  17
HETATM   17  N   UNL     1      38.679 -13.706  -2.575  1.00  0.00    -0.114 N 
HETATM   18  O   UNL     1      37.478 -13.466  -2.417  1.00  0.00    -0.532 OA
HETATM   19  O   UNL     1      39.228 -14.053  -3.628  1.00  0.00    -0.532 OA
ENDBRANCH   5  17
TORSDOF 2
ENDMDL
MODEL 6
REMARK VINA RESULT:      -5.9      3.151      4.287
REMARK  2 active torsions:
REMARK  status: ('A' for Active; 'I' for Inactive)
REMARK    1  A    between atoms: N_6  and  C_7 
REMARK    2  A    between atoms: C_11  and  N_12 
ROOT
HETATM    1  C   UNL     1      42.599 -14.262   3.361  1.00  0.00     0.070 A 
HETATM    2  C   UNL     1      42.661 -14.803   2.058  1.00  0.00     0.145 A 
HETATM    3  F   UNL     1      42.378 -14.037   0.993  1.00  0.00    -0.204 F 
HETATM    4  C   UNL     1      42.962 -16.141   1.812  1.00  0.00     0.082 A 
HETATM    5  C   UNL     1      43.213 -16.980   2.896  1.00  0.00     0.123 A 
HETATM    6  C   UNL     1      43.177 -16.506   4.202  1.00  0.00     0.046 A 
HETATM    7 BR   UNL     1      43.547 -17.583   5.718  1.00  0.00    -0.048 Br
HETATM    8  C   UNL     1      42.876 -15.152   4.421  1.00  0.00     0.054 A 
ENDROOT
BRANCH   1   9
HETATM    9  N   UNL     1      42.337 -12.918   3.642  1.00  0.00    -0.375 N 
HETATM   10  C   UNL     1      43.411 -11.925   3.423  1.00  0.00     0.150 C 
HETATM   11  C   UNL     1      44.123 -11.579   4.751  1.00  0.00     0.254 C 
HETATM   12  N   UNL     1      43.110 -11.136   5.808  1.00  0.00    -0.072 N 
HETATM   13  C   UNL     1      43.772 -10.749   7.094  1.00  0.00     0.269 C 
HETATM   14  H   UNL     1      42.633 -10.302   5.441  1.00  0.00     0.279 HD
HETATM   15  C   UNL     1      42.034 -12.208   6.016  1.00  0.00     0.254 C 
HETATM   16  C   UNL     1      41.350 -12.537   4.673  1.00  0.00     0.150 C 
ENDBRANCH   1   9
BRANCH   5  17
HETATM   17  N   UNL     1      43.502 -18.365   2.613  1.00  0.00    -0.114 N 
HETATM   18  O   UNL     1      42.572 -19.046   2.168  1.00  0.00    -0.532 OA
HETATM   19  O   UNL     1      44.638 -18.764   2.896  1.00  0.00    -0.532 OA
ENDBRANCH   5  17
TORSDOF 2
ENDMDL
MODEL 7
REMARK VINA RESULT:      -5.9      2.355      2.742
REMARK  2 active torsions:
REMARK  status: ('A' for Active; 'I' for Inactive)
REMARK    1  A    between atoms: N_6  and  C_7 
REMARK    2  A    between atoms: C_11  and  N_12 
ROOT
HETATM    1  C   UNL     1      42.396 -15.300   6.086  1.00  0.00     0.070 A 
HETATM    2  C   UNL     1      42.847 -16.152   7.118  1.00  0.00     0.145 A 
HETATM    3  F   UNL     1      42.840 -15.733   8.393  1.00  0.00    -0.204 F 
HETATM    4  C   UNL     1      43.358 -17.424   6.873  1.00  0.00     0.082 A 
HETATM    5  C   UNL     1      43.426 -17.876   5.557  1.00  0.00     0.123 A 
HETATM    6  C   UNL     1      42.990 -17.088   4.498  1.00  0.00     0.046 A 
HETATM    7 BR   UNL     1      43.018 -17.656   2.689  1.00  0.00    -0.048 Br
HETATM    8  C   UNL     1      42.474 -15.812   4.773  1.00  0.00     0.054 A 
ENDROOT
BRANCH   1   9
HETATM    9  N   UNL     1      41.843 -14.034   6.299  1.00  0.00    -0.375 N 
HETATM   10  C   UNL     1      40.394 -13.844   6.070  1.00  0.00     0.150 C 
HETATM   11  C   UNL     1      40.132 -13.211   4.684  1.00  0.00     0.254 C 
HETATM   12  N   UNL     1      40.934 -11.919   4.520  1.00  0.00    -0.072 N 
HETATM   13  C   UNL     1      40.667 -11.255   3.204  1.00  0.00     0.269 C 
HETATM   14  H   UNL     1      40.628 -11.274   5.260  1.00  0.00     0.279 HD
HETATM   15  C   UNL     1      42.430 -12.173   4.742  1.00  0.00     0.254 C 
HETATM   16  C   UNL     1      42.657 -12.813   6.127  1.00  0.00     0.150 C 
ENDBRANCH   1   9
BRANCH   5  17
HETATM   17  N   UNL     1      43.979 -19.189   5.331  1.00  0.00    -0.114 N 
HETATM   18  O   UNL     1      44.877 -19.276   4.487  1.00  0.00    -0.532 OA
HETATM   19  O   UNL     1      43.465 -20.123   5.959  1.00  0.00    -0.532 OA
ENDBRANCH   5  17
TORSDOF 2
ENDMDL
MODEL 8
REMARK VINA RESULT:      -5.8      5.676      7.337
REMARK  2 active torsions:
REMARK  status: ('A' for Active; 'I' for Inactive)
REMARK    1  A    between atoms: N_6  and  C_7 
REMARK    2  A    between atoms: C_11  and  N_12 
ROOT
HETATM    1  C   UNL     1      40.432 -14.046   1.481  1.00  0.00     0.070 A 
HETATM    2  C   UNL     1      39.917 -14.990   0.566  1.00  0.00     0.145 A 
HETATM    3  F   UNL     1      39.588 -16.224   0.979  1.00  0.00    -0.204 F 
HETATM    4  C   UNL     1      39.771 -14.719  -0.793  1.00  0.00     0.082 A 
HETATM    5  C   UNL     1      40.148 -13.465  -1.268  1.00  0.00     0.123 A 
HETATM    6  C   UNL     1      40.653 -12.489  -0.417  1.00  0.00     0.046 A 
HETATM    7 BR   UNL     1      41.148 -10.751  -0.990  1.00  0.00    -0.048 Br
HETATM    8  C   UNL     1      40.784 -12.787   0.949  1.00  0.00     0.054 A 
ENDROOT
BRANCH   1   9
HETATM    9  N   UNL     1      40.556 -14.272   2.855  1.00  0.00    -0.375 N 
HETATM   10  C   UNL     1      40.053 -13.244   3.792  1.00  0.00     0.150 C 
HETATM   11  C   UNL     1      41.208 -12.355   4.307  1.00  0.00     0.254 C 
HETATM   12  N   UNL     1      42.323 -13.212   4.908  1.00  0.00    -0.072 N 
HETATM   13  C   UNL     1      43.438 -12.377   5.460  1.00  0.00     0.269 C 
HETATM   14  H   UNL     1      41.914 -13.739   5.691  1.00  0.00     0.279 HD
HETATM   15  C   UNL     1      42.827 -14.243   3.892  1.00  0.00     0.254 C 
HETATM   16  C   UNL     1      41.651 -15.107   3.390  1.00  0.00     0.150 C 
ENDBRANCH   1   9
BRANCH   5  17
HETATM   17  N   UNL     1      40.005 -13.218  -2.683  1.00  0.00    -0.114 N 
HETATM   18  O   UNL     1      38.916 -12.776  -3.062  1.00  0.00    -0.532 OA
HETATM   19  O   UNL     1      40.966 -13.526  -3.400  1.00  0.00    -0.532 OA
ENDBRANCH   5  17
TORSDOF 2
ENDMDL
MODEL 9
REMARK VINA RESULT:      -5.8      2.644      3.598
REMARK  2 active torsions:
REMARK  status: ('A' for Active; 'I' for Inactive)
REMARK    1  A    between atoms: N_6  and  C_7 
REMARK    2  A    between atoms: C_11  and  N_12 
ROOT
HETATM    1  C   UNL     1      42.859 -14.402   4.462  1.00  0.00     0.070 A 
HETATM    2  C   UNL     1      43.351 -14.826   5.716  1.00  0.00     0.145 A 
HETATM    3  F   UNL     1      43.529 -13.940   6.709  1.00  0.00    -0.204 F 
HETATM    4  C   UNL     1      43.717 -16.145   5.974  1.00  0.00     0.082 A 
HETATM    5  C   UNL     1      43.592 -17.085   4.953  1.00  0.00     0.123 A 
HETATM    6  C   UNL     1      43.106 -16.732   3.699  1.00  0.00     0.046 A 
HETATM    7 BR   UNL     1      42.874 -17.967   2.279  1.00  0.00    -0.048 Br
HETATM    8  C   UNL     1      42.739 -15.397   3.469  1.00  0.00     0.054 A 
ENDROOT
BRANCH   1   9
HETATM    9  N   UNL     1      42.448 -13.096   4.182  1.00  0.00    -0.375 N 
HETATM   10  C   UNL     1      43.478 -12.061   3.950  1.00  0.00     0.150 C 
HETATM   11  C   UNL     1      43.708 -11.216   5.223  1.00  0.00     0.254 C 
HETATM   12  N   UNL     1      42.388 -10.636   5.734  1.00  0.00    -0.072 N 
HETATM   13  C   UNL     1      42.582  -9.773   6.942  1.00  0.00     0.269 C 
HETATM   14  H   UNL     1      42.007 -10.042   4.986  1.00  0.00     0.279 HD
HETATM   15  C   UNL     1      41.363 -11.749   5.982  1.00  0.00     0.254 C 
HETATM   16  C   UNL     1      41.163 -12.579   4.697  1.00  0.00     0.150 C 
ENDBRANCH   1   9
BRANCH   5  17
HETATM   17  N   UNL     1      43.998 -18.439   5.241  1.00  0.00    -0.114 N 
HETATM   18  O   UNL     1      43.414 -19.009   6.168  1.00  0.00    -0.532 OA
HETATM   19  O   UNL     1      44.937 -18.891   4.574  1.00  0.00    -0.532 OA
ENDBRANCH   5  17
TORSDOF 2
ENDMDL
MODEL 10
REMARK VINA RESULT:      -5.8     13.704     15.257
REMARK  2 active torsions:
REMARK  status: ('A' for Active; 'I' for Inactive)
REMARK    1  A    between atoms: N_6  and  C_7 
REMARK    2  A    between atoms: C_11  and  N_12 
ROOT
HETATM    1  C   UNL     1      44.490 -29.326  -2.218  1.00  0.00     0.070 A 
HETATM    2  C   UNL     1      44.751 -28.649  -3.430  1.00  0.00     0.145 A 
HETATM    3  F   UNL     1      44.937 -27.319  -3.436  1.00  0.00    -0.204 F 
HETATM    4  C   UNL     1      44.779 -29.296  -4.663  1.00  0.00     0.082 A 
HETATM    5  C   UNL     1      44.542 -30.668  -4.703  1.00  0.00     0.123 A 
HETATM    6  C   UNL     1      44.288 -31.394  -3.544  1.00  0.00     0.046 A 
HETATM    7 BR   UNL     1      43.996 -33.267  -3.523  1.00  0.00    -0.048 Br
HETATM    8  C   UNL     1      44.271 -30.717  -2.315  1.00  0.00     0.054 A 
ENDROOT
BRANCH   1   9
HETATM    9  N   UNL     1      44.492 -28.714  -0.962  1.00  0.00    -0.375 N 
HETATM   10  C   UNL     1      45.759 -28.150  -0.448  1.00  0.00     0.150 C 
HETATM   11  C   UNL     1      46.435 -29.125   0.543  1.00  0.00     0.254 C 
HETATM   12  N   UNL     1      45.466 -29.521   1.658  1.00  0.00    -0.072 N 
HETATM   13  C   UNL     1      46.106 -30.430   2.663  1.00  0.00     0.269 C 
HETATM   14  H   UNL     1      45.196 -28.659   2.148  1.00  0.00     0.279 HD
HETATM   15  C   UNL     1      44.181 -30.123   1.076  1.00  0.00     0.254 C 
HETATM   16  C   UNL     1      43.536 -29.131   0.085  1.00  0.00     0.150 C 
ENDBRANCH   1   9
BRANCH   5  17
HETATM   17  N   UNL     1      44.556 -31.310  -5.995  1.00  0.00    -0.114 N 
HETATM   18  O   UNL     1      45.663 -31.616  -6.450  1.00  0.00    -0.532 OA
HETATM   19  O   UNL     1      43.464 -31.443  -6.561  1.00  0.00    -0.532 OA
ENDBRANCH   5  17
TORSDOF 2
ENDMDL
