MODEL 1
REMARK VINA RESULT:      -8.1      0.000      0.000
REMARK  5 active torsions:
REMARK  status: ('A' for Active; 'I' for Inactive)
REMARK    1  A    between atoms: C_2  and  O_3 
REMARK    2  A    between atoms: O_3  and  C_4 
REMARK    3  A    between atoms: C_5  and  C_6 
REMARK    4  A    between atoms: N_7  and  N_8 
REMARK       I    between atoms: N_8  and  C_9 
REMARK    5  A    between atoms: C_9  and  C_10 
ROOT
HETATM    1  N   UNL     1      41.732 -15.873   1.613  1.00  0.00    -0.243 N 
HETATM    2  C   UNL     1      40.534 -15.166   1.586  1.00  0.00     0.274 C 
HETATM    3  O   UNL     1      39.557 -15.403   2.291  1.00  0.00    -0.266 OA
HETATM    4  H   UNL     1      42.544 -15.394   1.243  1.00  0.00     0.192 HD
ENDROOT
BRANCH   1   5
HETATM    5  N   UNL     1      42.059 -16.926   2.432  1.00  0.00    -0.183 NA
HETATM    6  C   UNL     1      43.225 -17.478   2.313  1.00  0.00     0.153 C 
BRANCH   6   7
HETATM    7  C   UNL     1      43.600 -18.650   3.128  1.00  0.00     0.016 A 
HETATM    8  C   UNL     1      43.974 -18.499   4.468  1.00  0.00     0.080 A 
HETATM    9  C   UNL     1      44.233 -19.628   5.250  1.00  0.00     0.037 A 
HETATM   10  C   UNL     1      44.166 -20.903   4.685  1.00  0.00     0.003 A 
HETATM   11  C   UNL     1      43.831 -21.053   3.339  1.00  0.00     0.001 A 
HETATM   12  C   UNL     1      43.546 -19.930   2.560  1.00  0.00     0.016 A 
BRANCH   8  13
HETATM   13  O   UNL     1      44.085 -17.289   5.098  1.00  0.00    -0.351 OA
BRANCH  13  14
HETATM   14  C   UNL     1      43.336 -17.247   6.323  1.00  0.00     0.171 C 
HETATM   15  C   UNL     1      41.994 -16.598   6.042  1.00  0.00     0.034 C 
ENDBRANCH  13  14
ENDBRANCH   8  13
ENDBRANCH   6   7
ENDBRANCH   1   5
BRANCH   2  16
HETATM   16  C   UNL     1      40.539 -14.019   0.671  1.00  0.00     0.061 A 
HETATM   17  C   UNL     1      40.001 -13.859  -0.656  1.00  0.00     0.008 A 
HETATM   18  C   UNL     1      40.331 -12.570  -1.085  1.00  0.00     0.043 A 
HETATM   19  C   UNL     1      39.255 -14.672  -1.542  1.00  0.00     0.015 A 
HETATM   20  C   UNL     1      39.994 -12.075  -2.351  1.00  0.00     0.030 A 
HETATM   21  N   UNL     1      40.991 -11.950  -0.052  1.00  0.00    -0.364 N 
HETATM   22  C   UNL     1      39.287 -12.915  -3.213  1.00  0.00     0.002 A 
HETATM   23  C   UNL     1      38.915 -14.193  -2.813  1.00  0.00     0.001 A 
HETATM   24  H   UNL     1      41.329 -10.998  -0.076  1.00  0.00     0.165 HD
HETATM   25  C   UNL     1      41.109 -12.801   1.007  1.00  0.00     0.106 A 
ENDBRANCH   2  16
TORSDOF 5
ENDMDL
MODEL 2
REMARK VINA RESULT:      -7.8      1.836      7.872
REMARK  5 active torsions:
REMARK  status: ('A' for Active; 'I' for Inactive)
REMARK    1  A    between atoms: C_2  and  O_3 
REMARK    2  A    between atoms: O_3  and  C_4 
REMARK    3  A    between atoms: C_5  and  C_6 
REMARK    4  A    between atoms: N_7  and  N_8 
REMARK       I    between atoms: N_8  and  C_9 
REMARK    5  A    between atoms: C_9  and  C_10 
ROOT
HETATM    1  N   UNL     1      41.092 -16.094   2.031  1.00  0.00    -0.243 N 
HETATM    2  C   UNL     1      42.183 -15.598   2.735  1.00  0.00     0.274 C 
HETATM    3  O   UNL     1      42.510 -14.415   2.793  1.00  0.00    -0.266 OA
HETATM    4  H   UNL     1      40.744 -17.000   2.322  1.00  0.00     0.192 HD
ENDROOT
BRANCH   1   5
HETATM    5  N   UNL     1      40.172 -15.375   1.307  1.00  0.00    -0.183 NA
HETATM    6  C   UNL     1      40.534 -14.840   0.183  1.00  0.00     0.153 C 
BRANCH   6   7
HETATM    7  C   UNL     1      39.600 -14.008  -0.600  1.00  0.00     0.016 A 
HETATM    8  C   UNL     1      39.299 -12.702  -0.199  1.00  0.00     0.080 A 
HETATM    9  C   UNL     1      38.489 -11.895  -1.002  1.00  0.00     0.037 A 
HETATM   10  C   UNL     1      37.941 -12.405  -2.181  1.00  0.00     0.003 A 
HETATM   11  C   UNL     1      38.209 -13.720  -2.563  1.00  0.00     0.001 A 
HETATM   12  C   UNL     1      39.038 -14.522  -1.776  1.00  0.00     0.016 A 
BRANCH   8  13
HETATM   13  O   UNL     1      39.775 -12.126   0.949  1.00  0.00    -0.351 OA
BRANCH  13  14
HETATM   14  C   UNL     1      38.757 -12.004   1.955  1.00  0.00     0.171 C 
HETATM   15  C   UNL     1      39.295 -12.574   3.254  1.00  0.00     0.034 C 
ENDBRANCH  13  14
ENDBRANCH   8  13
ENDBRANCH   6   7
ENDBRANCH   1   5
BRANCH   2  16
HETATM   16  C   UNL     1      42.912 -16.615   3.502  1.00  0.00     0.061 A 
HETATM   17  C   UNL     1      43.183 -18.002   3.223  1.00  0.00     0.008 A 
HETATM   18  C   UNL     1      43.880 -18.517   4.320  1.00  0.00     0.043 A 
HETATM   19  C   UNL     1      42.921 -18.880   2.145  1.00  0.00     0.015 A 
HETATM   20  C   UNL     1      44.285 -19.855   4.411  1.00  0.00     0.030 A 
HETATM   21  N   UNL     1      44.074 -17.485   5.206  1.00  0.00    -0.364 N 
HETATM   22  C   UNL     1      43.980 -20.702   3.344  1.00  0.00     0.002 A 
HETATM   23  C   UNL     1      43.314 -20.221   2.222  1.00  0.00     0.001 A 
HETATM   24  H   UNL     1      44.571 -17.566   6.082  1.00  0.00     0.165 HD
HETATM   25  C   UNL     1      43.512 -16.340   4.721  1.00  0.00     0.106 A 
ENDBRANCH   2  16
TORSDOF 5
ENDMDL
MODEL 3
REMARK VINA RESULT:      -7.7      2.177      8.360
REMARK  5 active torsions:
REMARK  status: ('A' for Active; 'I' for Inactive)
REMARK    1  A    between atoms: C_2  and  O_3 
REMARK    2  A    between atoms: O_3  and  C_4 
REMARK    3  A    between atoms: C_5  and  C_6 
REMARK    4  A    between atoms: N_7  and  N_8 
REMARK       I    between atoms: N_8  and  C_9 
REMARK    5  A    between atoms: C_9  and  C_10 
ROOT
HETATM    1  N   UNL     1      41.750 -15.017   3.173  1.00  0.00    -0.243 N 
HETATM    2  C   UNL     1      42.895 -15.649   2.702  1.00  0.00     0.274 C 
HETATM    3  O   UNL     1      43.525 -15.318   1.701  1.00  0.00    -0.266 OA
HETATM    4  H   UNL     1      41.525 -15.164   4.150  1.00  0.00     0.192 HD
ENDROOT
BRANCH   1   5
HETATM    5  N   UNL     1      41.133 -13.909   2.644  1.00  0.00    -0.183 NA
HETATM    6  C   UNL     1      40.000 -14.051   2.034  1.00  0.00     0.153 C 
BRANCH   6   7
HETATM    7  C   UNL     1      39.329 -12.901   1.395  1.00  0.00     0.016 A 
HETATM    8  C   UNL     1      39.438 -12.685   0.017  1.00  0.00     0.080 A 
HETATM    9  C   UNL     1      38.720 -11.649  -0.585  1.00  0.00     0.037 A 
HETATM   10  C   UNL     1      37.930 -10.800   0.192  1.00  0.00     0.003 A 
HETATM   11  C   UNL     1      37.851 -10.989   1.572  1.00  0.00     0.001 A 
HETATM   12  C   UNL     1      38.547 -12.039   2.175  1.00  0.00     0.016 A 
BRANCH   8  13
HETATM   13  O   UNL     1      40.203 -13.455  -0.819  1.00  0.00    -0.351 OA
BRANCH  13  14
HETATM   14  C   UNL     1      39.647 -13.534  -2.140  1.00  0.00     0.171 C 
HETATM   15  C   UNL     1      38.992 -14.893  -2.304  1.00  0.00     0.034 C 
ENDBRANCH  13  14
ENDBRANCH   8  13
ENDBRANCH   6   7
ENDBRANCH   1   5
BRANCH   2  16
HETATM   16  C   UNL     1      43.368 -16.743   3.558  1.00  0.00     0.061 A 
HETATM   17  C   UNL     1      43.487 -18.158   3.314  1.00  0.00     0.008 A 
HETATM   18  C   UNL     1      43.952 -18.745   4.494  1.00  0.00     0.043 A 
HETATM   19  C   UNL     1      43.260 -19.009   2.206  1.00  0.00     0.015 A 
HETATM   20  C   UNL     1      44.157 -20.124   4.635  1.00  0.00     0.030 A 
HETATM   21  N   UNL     1      44.158 -17.736   5.402  1.00  0.00    -0.364 N 
HETATM   22  C   UNL     1      43.891 -20.938   3.532  1.00  0.00     0.002 A 
HETATM   23  C   UNL     1      43.456 -20.389   2.331  1.00  0.00     0.001 A 
HETATM   24  H   UNL     1      44.515 -17.869   6.338  1.00  0.00     0.165 HD
HETATM   25  C   UNL     1      43.827 -16.533   4.849  1.00  0.00     0.106 A 
ENDBRANCH   2  16
TORSDOF 5
ENDMDL
MODEL 4
REMARK VINA RESULT:      -7.7      4.396      6.694
REMARK  5 active torsions:
REMARK  status: ('A' for Active; 'I' for Inactive)
REMARK    1  A    between atoms: C_2  and  O_3 
REMARK    2  A    between atoms: O_3  and  C_4 
REMARK    3  A    between atoms: C_5  and  C_6 
REMARK    4  A    between atoms: N_7  and  N_8 
REMARK       I    between atoms: N_8  and  C_9 
REMARK    5  A    between atoms: C_9  and  C_10 
ROOT
HETATM    1  N   UNL     1      42.926 -14.781   6.006  1.00  0.00    -0.243 N 
HETATM    2  C   UNL     1      43.012 -13.623   5.242  1.00  0.00     0.274 C 
HETATM    3  O   UNL     1      43.046 -13.585   4.014  1.00  0.00    -0.266 OA
HETATM    4  H   UNL     1      42.580 -14.670   6.952  1.00  0.00     0.192 HD
ENDROOT
BRANCH   1   5
HETATM    5  N   UNL     1      42.831 -16.073   5.551  1.00  0.00    -0.183 NA
HETATM    6  C   UNL     1      43.909 -16.695   5.192  1.00  0.00     0.153 C 
BRANCH   6   7
HETATM    7  C   UNL     1      43.852 -18.063   4.638  1.00  0.00     0.016 A 
HETATM    8  C   UNL     1      43.714 -18.271   3.262  1.00  0.00     0.080 A 
HETATM    9  C   UNL     1      43.758 -19.568   2.745  1.00  0.00     0.037 A 
HETATM   10  C   UNL     1      43.893 -20.660   3.604  1.00  0.00     0.003 A 
HETATM   11  C   UNL     1      43.991 -20.457   4.981  1.00  0.00     0.001 A 
HETATM   12  C   UNL     1      43.973 -19.161   5.500  1.00  0.00     0.016 A 
BRANCH   8  13
HETATM   13  O   UNL     1      43.558 -17.262   2.349  1.00  0.00    -0.351 OA
BRANCH  13  14
HETATM   14  C   UNL     1      42.177 -16.924   2.147  1.00  0.00     0.171 C 
HETATM   15  C   UNL     1      42.109 -15.589   1.429  1.00  0.00     0.034 C 
ENDBRANCH  13  14
ENDBRANCH   8  13
ENDBRANCH   6   7
ENDBRANCH   1   5
BRANCH   2  16
HETATM   16  C   UNL     1      42.986 -12.384   6.029  1.00  0.00     0.061 A 
HETATM   17  C   UNL     1      44.046 -11.628   6.646  1.00  0.00     0.008 A 
HETATM   18  C   UNL     1      43.452 -10.553   7.316  1.00  0.00     0.043 A 
HETATM   19  C   UNL     1      45.456 -11.733   6.700  1.00  0.00     0.015 A 
HETATM   20  C   UNL     1      44.182  -9.617   8.060  1.00  0.00     0.030 A 
HETATM   21  N   UNL     1      42.101 -10.616   7.077  1.00  0.00    -0.364 N 
HETATM   22  C   UNL     1      45.568  -9.771   8.120  1.00  0.00     0.002 A 
HETATM   23  C   UNL     1      46.199 -10.809   7.444  1.00  0.00     0.001 A 
HETATM   24  H   UNL     1      41.425  -9.949   7.422  1.00  0.00     0.165 HD
HETATM   25  C   UNL     1      41.812 -11.698   6.298  1.00  0.00     0.106 A 
ENDBRANCH   2  16
TORSDOF 5
ENDMDL
MODEL 5
REMARK VINA RESULT:      -7.6      1.832      3.045
REMARK  5 active torsions:
REMARK  status: ('A' for Active; 'I' for Inactive)
REMARK    1  A    between atoms: C_2  and  O_3 
REMARK    2  A    between atoms: O_3  and  C_4 
REMARK    3  A    between atoms: C_5  and  C_6 
REMARK    4  A    between atoms: N_7  and  N_8 
REMARK       I    between atoms: N_8  and  C_9 
REMARK    5  A    between atoms: C_9  and  C_10 
ROOT
HETATM    1  N   UNL     1      40.127 -14.022   2.535  1.00  0.00    -0.243 N 
HETATM    2  C   UNL     1      40.588 -13.409   1.375  1.00  0.00     0.274 C 
HETATM    3  O   UNL     1      41.770 -13.242   1.085  1.00  0.00    -0.266 OA
HETATM    4  H   UNL     1      39.183 -14.388   2.505  1.00  0.00     0.192 HD
ENDROOT
BRANCH   1   5
HETATM    5  N   UNL     1      40.883 -14.574   3.541  1.00  0.00    -0.183 NA
HETATM    6  C   UNL     1      41.287 -15.799   3.425  1.00  0.00     0.153 C 
BRANCH   6   7
HETATM    7  C   UNL     1      42.048 -16.456   4.506  1.00  0.00     0.016 A 
HETATM    8  C   UNL     1      43.090 -17.342   4.210  1.00  0.00     0.080 A 
HETATM    9  C   UNL     1      43.862 -17.880   5.242  1.00  0.00     0.037 A 
HETATM   10  C   UNL     1      43.565 -17.574   6.572  1.00  0.00     0.003 A 
HETATM   11  C   UNL     1      42.502 -16.722   6.871  1.00  0.00     0.001 A 
HETATM   12  C   UNL     1      41.744 -16.161   5.841  1.00  0.00     0.016 A 
BRANCH   8  13
HETATM   13  O   UNL     1      43.439 -17.713   2.938  1.00  0.00    -0.351 OA
BRANCH  13  14
HETATM   14  C   UNL     1      44.097 -18.990   2.910  1.00  0.00     0.171 C 
HETATM   15  C   UNL     1      43.246 -19.950   2.101  1.00  0.00     0.034 C 
ENDBRANCH  13  14
ENDBRANCH   8  13
ENDBRANCH   6   7
ENDBRANCH   1   5
BRANCH   2  16
HETATM   16  C   UNL     1      39.525 -13.023   0.441  1.00  0.00     0.061 A 
HETATM   17  C   UNL     1      39.110 -13.593  -0.816  1.00  0.00     0.008 A 
HETATM   18  C   UNL     1      38.072 -12.797  -1.310  1.00  0.00     0.043 A 
HETATM   19  C   UNL     1      39.498 -14.714  -1.587  1.00  0.00     0.015 A 
HETATM   20  C   UNL     1      37.441 -13.036  -2.537  1.00  0.00     0.030 A 
HETATM   21  N   UNL     1      37.826 -11.818  -0.378  1.00  0.00    -0.364 N 
HETATM   22  C   UNL     1      37.872 -14.131  -3.289  1.00  0.00     0.002 A 
HETATM   23  C   UNL     1      38.880 -14.963  -2.819  1.00  0.00     0.001 A 
HETATM   24  H   UNL     1      37.109 -11.110  -0.464  1.00  0.00     0.165 HD
HETATM   25  C   UNL     1      38.678 -11.951   0.679  1.00  0.00     0.106 A 
ENDBRANCH   2  16
TORSDOF 5
ENDMDL
MODEL 6
REMARK VINA RESULT:      -7.6      5.169      8.468
REMARK  5 active torsions:
REMARK  status: ('A' for Active; 'I' for Inactive)
REMARK    1  A    between atoms: C_2  and  O_3 
REMARK    2  A    between atoms: O_3  and  C_4 
REMARK    3  A    between atoms: C_5  and  C_6 
REMARK    4  A    between atoms: N_7  and  N_8 
REMARK       I    between atoms: N_8  and  C_9 
REMARK    5  A    between atoms: C_9  and  C_10 
ROOT
HETATM    1  N   UNL     1      44.019 -14.444   6.696  1.00  0.00    -0.243 N 
HETATM    2  C   UNL     1      43.091 -15.467   6.854  1.00  0.00     0.274 C 
HETATM    3  O   UNL     1      42.101 -15.419   7.579  1.00  0.00    -0.266 OA
HETATM    4  H   UNL     1      44.580 -14.472   5.853  1.00  0.00     0.192 HD
ENDROOT
BRANCH   1   5
HETATM    5  N   UNL     1      43.994 -13.200   7.279  1.00  0.00    -0.183 NA
HETATM    6  C   UNL     1      44.639 -12.228   6.716  1.00  0.00     0.153 C 
BRANCH   6   7
HETATM    7  C   UNL     1      44.694 -10.889   7.336  1.00  0.00     0.016 A 
HETATM    8  C   UNL     1      43.540 -10.105   7.445  1.00  0.00     0.080 A 
HETATM    9  C   UNL     1      43.589  -8.882   8.119  1.00  0.00     0.037 A 
HETATM   10  C   UNL     1      44.798  -8.420   8.644  1.00  0.00     0.003 A 
HETATM   11  C   UNL     1      45.957  -9.182   8.503  1.00  0.00     0.001 A 
HETATM   12  C   UNL     1      45.908 -10.416   7.852  1.00  0.00     0.016 A 
BRANCH   8  13
HETATM   13  O   UNL     1      42.318 -10.469   6.944  1.00  0.00    -0.351 OA
BRANCH  13  14
HETATM   14  C   UNL     1      41.885  -9.597   5.889  1.00  0.00     0.171 C 
HETATM   15  C   UNL     1      42.239 -10.239   4.560  1.00  0.00     0.034 C 
ENDBRANCH  13  14
ENDBRANCH   8  13
ENDBRANCH   6   7
ENDBRANCH   1   5
BRANCH   2  16
HETATM   16  C   UNL     1      43.342 -16.637   6.004  1.00  0.00     0.061 A 
HETATM   17  C   UNL     1      43.317 -16.793   4.571  1.00  0.00     0.008 A 
HETATM   18  C   UNL     1      43.586 -18.138   4.297  1.00  0.00     0.043 A 
HETATM   19  C   UNL     1      43.106 -15.930   3.470  1.00  0.00     0.015 A 
HETATM   20  C   UNL     1      43.611 -18.664   2.999  1.00  0.00     0.030 A 
HETATM   21  N   UNL     1      43.816 -18.764   5.497  1.00  0.00    -0.364 N 
HETATM   22  C   UNL     1      43.365 -17.791   1.937  1.00  0.00     0.002 A 
HETATM   23  C   UNL     1      43.123 -16.442   2.167  1.00  0.00     0.001 A 
HETATM   24  H   UNL     1      44.057 -19.741   5.598  1.00  0.00     0.165 HD
HETATM   25  C   UNL     1      43.688 -17.875   6.523  1.00  0.00     0.106 A 
ENDBRANCH   2  16
TORSDOF 5
ENDMDL
MODEL 7
REMARK VINA RESULT:      -7.4      5.022      8.674
REMARK  5 active torsions:
REMARK  status: ('A' for Active; 'I' for Inactive)
REMARK    1  A    between atoms: C_2  and  O_3 
REMARK    2  A    between atoms: O_3  and  C_4 
REMARK    3  A    between atoms: C_5  and  C_6 
REMARK    4  A    between atoms: N_7  and  N_8 
REMARK       I    between atoms: N_8  and  C_9 
REMARK    5  A    between atoms: C_9  and  C_10 
ROOT
HETATM    1  N   UNL     1      43.919 -14.460   6.144  1.00  0.00    -0.243 N 
HETATM    2  C   UNL     1      42.870 -14.907   5.348  1.00  0.00     0.274 C 
HETATM    3  O   UNL     1      41.796 -14.330   5.202  1.00  0.00    -0.266 OA
HETATM    4  H   UNL     1      44.837 -14.829   5.928  1.00  0.00     0.192 HD
ENDROOT
BRANCH   1   5
HETATM    5  N   UNL     1      43.969 -13.301   6.879  1.00  0.00    -0.183 NA
HETATM    6  C   UNL     1      44.490 -12.240   6.348  1.00  0.00     0.153 C 
BRANCH   6   7
HETATM    7  C   UNL     1      44.623 -10.988   7.118  1.00  0.00     0.016 A 
HETATM    8  C   UNL     1      43.507 -10.184   7.373  1.00  0.00     0.080 A 
HETATM    9  C   UNL     1      43.633  -9.053   8.184  1.00  0.00     0.037 A 
HETATM   10  C   UNL     1      44.881  -8.698   8.701  1.00  0.00     0.003 A 
HETATM   11  C   UNL     1      46.002  -9.476   8.416  1.00  0.00     0.001 A 
HETATM   12  C   UNL     1      45.876 -10.621   7.626  1.00  0.00     0.016 A 
BRANCH   8  13
HETATM   13  O   UNL     1      42.251 -10.445   6.892  1.00  0.00    -0.351 OA
BRANCH  13  14
HETATM   14  C   UNL     1      41.813  -9.448   5.956  1.00  0.00     0.171 C 
HETATM   15  C   UNL     1      42.004  -9.991   4.553  1.00  0.00     0.034 C 
ENDBRANCH  13  14
ENDBRANCH   8  13
ENDBRANCH   6   7
ENDBRANCH   1   5
BRANCH   2  16
HETATM   16  C   UNL     1      43.171 -16.133   4.598  1.00  0.00     0.061 A 
HETATM   17  C   UNL     1      43.385 -17.488   5.039  1.00  0.00     0.008 A 
HETATM   18  C   UNL     1      43.684 -18.250   3.905  1.00  0.00     0.043 A 
HETATM   19  C   UNL     1      43.345 -18.157   6.285  1.00  0.00     0.015 A 
HETATM   20  C   UNL     1      43.982 -19.618   3.959  1.00  0.00     0.030 A 
HETATM   21  N   UNL     1      43.606 -17.416   2.817  1.00  0.00    -0.364 N 
HETATM   22  C   UNL     1      43.967 -20.239   5.209  1.00  0.00     0.002 A 
HETATM   23  C   UNL     1      43.646 -19.523   6.356  1.00  0.00     0.001 A 
HETATM   24  H   UNL     1      43.754 -17.705   1.860  1.00  0.00     0.165 HD
HETATM   25  C   UNL     1      43.286 -16.152   3.217  1.00  0.00     0.106 A 
ENDBRANCH   2  16
TORSDOF 5
ENDMDL
MODEL 8
REMARK VINA RESULT:      -7.1      2.340      8.384
REMARK  5 active torsions:
REMARK  status: ('A' for Active; 'I' for Inactive)
REMARK    1  A    between atoms: C_2  and  O_3 
REMARK    2  A    between atoms: O_3  and  C_4 
REMARK    3  A    between atoms: C_5  and  C_6 
REMARK    4  A    between atoms: N_7  and  N_8 
REMARK       I    between atoms: N_8  and  C_9 
REMARK    5  A    between atoms: C_9  and  C_10 
ROOT
HETATM    1  N   UNL     1      42.834 -14.453   3.635  1.00  0.00    -0.243 N 
HETATM    2  C   UNL     1      43.223 -15.605   2.960  1.00  0.00     0.274 C 
HETATM    3  O   UNL     1      43.351 -15.702   1.742  1.00  0.00    -0.266 OA
HETATM    4  H   UNL     1      43.080 -14.402   4.616  1.00  0.00     0.192 HD
ENDROOT
BRANCH   1   5
HETATM    5  N   UNL     1      42.555 -13.223   3.090  1.00  0.00    -0.183 NA
HETATM    6  C   UNL     1      41.335 -12.945   2.753  1.00  0.00     0.153 C 
BRANCH   6   7
HETATM    7  C   UNL     1      40.996 -11.662   2.107  1.00  0.00     0.016 A 
HETATM    8  C   UNL     1      40.910 -11.564   0.714  1.00  0.00     0.080 A 
HETATM    9  C   UNL     1      40.495 -10.367   0.124  1.00  0.00     0.037 A 
HETATM   10  C   UNL     1      40.211  -9.255   0.920  1.00  0.00     0.003 A 
HETATM   11  C   UNL     1      40.335  -9.339   2.307  1.00  0.00     0.001 A 
HETATM   12  C   UNL     1      40.725 -10.541   2.902  1.00  0.00     0.016 A 
BRANCH   8  13
HETATM   13  O   UNL     1      41.188 -12.595  -0.143  1.00  0.00    -0.351 OA
BRANCH  13  14
HETATM   14  C   UNL     1      40.018 -13.044  -0.845  1.00  0.00     0.171 C 
HETATM   15  C   UNL     1      39.786 -14.504  -0.506  1.00  0.00     0.034 C 
ENDBRANCH  13  14
ENDBRANCH   8  13
ENDBRANCH   6   7
ENDBRANCH   1   5
BRANCH   2  16
HETATM   16  C   UNL     1      43.557 -16.729   3.841  1.00  0.00     0.061 A 
HETATM   17  C   UNL     1      43.639 -18.145   3.587  1.00  0.00     0.008 A 
HETATM   18  C   UNL     1      43.954 -18.767   4.799  1.00  0.00     0.043 A 
HETATM   19  C   UNL     1      43.489 -18.971   2.448  1.00  0.00     0.015 A 
HETATM   20  C   UNL     1      44.083 -20.155   4.937  1.00  0.00     0.030 A 
HETATM   21  N   UNL     1      44.111 -17.778   5.740  1.00  0.00    -0.364 N 
HETATM   22  C   UNL     1      43.895 -20.943   3.800  1.00  0.00     0.002 A 
HETATM   23  C   UNL     1      43.610 -20.361   2.570  1.00  0.00     0.001 A 
HETATM   24  H   UNL     1      44.363 -17.938   6.705  1.00  0.00     0.165 HD
HETATM   25  C   UNL     1      43.891 -16.556   5.176  1.00  0.00     0.106 A 
ENDBRANCH   2  16
TORSDOF 5
ENDMDL
MODEL 9
REMARK VINA RESULT:      -7.0      5.284      7.906
REMARK  5 active torsions:
REMARK  status: ('A' for Active; 'I' for Inactive)
REMARK    1  A    between atoms: C_2  and  O_3 
REMARK    2  A    between atoms: O_3  and  C_4 
REMARK    3  A    between atoms: C_5  and  C_6 
REMARK    4  A    between atoms: N_7  and  N_8 
REMARK       I    between atoms: N_8  and  C_9 
REMARK    5  A    between atoms: C_9  and  C_10 
ROOT
HETATM    1  N   UNL     1      43.405 -13.414   6.399  1.00  0.00    -0.243 N 
HETATM    2  C   UNL     1      43.668 -12.094   6.049  1.00  0.00     0.274 C 
HETATM    3  O   UNL     1      44.231 -11.733   5.019  1.00  0.00    -0.266 OA
HETATM    4  H   UNL     1      42.668 -13.560   7.079  1.00  0.00     0.192 HD
ENDROOT
BRANCH   1   5
HETATM    5  N   UNL     1      43.687 -14.540   5.665  1.00  0.00    -0.183 NA
HETATM    6  C   UNL     1      42.723 -15.146   5.046  1.00  0.00     0.153 C 
BRANCH   6   7
HETATM    7  C   UNL     1      42.965 -16.395   4.297  1.00  0.00     0.016 A 
HETATM    8  C   UNL     1      42.274 -16.661   3.110  1.00  0.00     0.080 A 
HETATM    9  C   UNL     1      42.583 -17.801   2.364  1.00  0.00     0.037 A 
HETATM   10  C   UNL     1      43.547 -18.700   2.824  1.00  0.00     0.003 A 
HETATM   11  C   UNL     1      44.210 -18.456   4.028  1.00  0.00     0.001 A 
HETATM   12  C   UNL     1      43.922 -17.306   4.764  1.00  0.00     0.016 A 
BRANCH   8  13
HETATM   13  O   UNL     1      41.301 -15.847   2.593  1.00  0.00    -0.351 OA
BRANCH  13  14
HETATM   14  C   UNL     1      41.684 -15.281   1.330  1.00  0.00     0.171 C 
HETATM   15  C   UNL     1      40.598 -14.320   0.886  1.00  0.00     0.034 C 
ENDBRANCH  13  14
ENDBRANCH   8  13
ENDBRANCH   6   7
ENDBRANCH   1   5
BRANCH   2  16
HETATM   16  C   UNL     1      43.139 -11.108   6.999  1.00  0.00     0.061 A 
HETATM   17  C   UNL     1      43.737 -10.484   8.153  1.00  0.00     0.008 A 
HETATM   18  C   UNL     1      42.767  -9.655   8.725  1.00  0.00     0.043 A 
HETATM   19  C   UNL     1      45.009 -10.526   8.771  1.00  0.00     0.015 A 
HETATM   20  C   UNL     1      42.988  -8.910   9.890  1.00  0.00     0.030 A 
HETATM   21  N   UNL     1      41.647  -9.725   7.932  1.00  0.00    -0.364 N 
HETATM   22  C   UNL     1      44.244  -9.000  10.493  1.00  0.00     0.002 A 
HETATM   23  C   UNL     1      45.244  -9.790   9.939  1.00  0.00     0.001 A 
HETATM   24  H   UNL     1      40.795  -9.208   8.096  1.00  0.00     0.165 HD
HETATM   25  C   UNL     1      41.863 -10.579   6.890  1.00  0.00     0.106 A 
ENDBRANCH   2  16
TORSDOF 5
ENDMDL
MODEL 10
REMARK VINA RESULT:      -7.0      7.045      9.626
REMARK  5 active torsions:
REMARK  status: ('A' for Active; 'I' for Inactive)
REMARK    1  A    between atoms: C_2  and  O_3 
REMARK    2  A    between atoms: O_3  and  C_4 
REMARK    3  A    between atoms: C_5  and  C_6 
REMARK    4  A    between atoms: N_7  and  N_8 
REMARK       I    between atoms: N_8  and  C_9 
REMARK    5  A    between atoms: C_9  and  C_10 
ROOT
HETATM    1  N   UNL     1      43.477 -11.285   7.535  1.00  0.00    -0.243 N 
HETATM    2  C   UNL     1      44.236 -10.615   8.488  1.00  0.00     0.274 C 
HETATM    3  O   UNL     1      45.326 -10.988   8.915  1.00  0.00    -0.266 OA
HETATM    4  H   UNL     1      42.789 -10.731   7.038  1.00  0.00     0.192 HD
ENDROOT
BRANCH   1   5
HETATM    5  N   UNL     1      43.803 -12.447   6.878  1.00  0.00    -0.183 NA
HETATM    6  C   UNL     1      42.861 -13.281   6.571  1.00  0.00     0.153 C 
BRANCH   6   7
HETATM    7  C   UNL     1      43.167 -14.571   5.921  1.00  0.00     0.016 A 
HETATM    8  C   UNL     1      42.881 -14.775   4.567  1.00  0.00     0.080 A 
HETATM    9  C   UNL     1      43.264 -15.966   3.945  1.00  0.00     0.037 A 
HETATM   10  C   UNL     1      43.890 -16.972   4.683  1.00  0.00     0.003 A 
HETATM   11  C   UNL     1      44.140 -16.787   6.043  1.00  0.00     0.001 A 
HETATM   12  C   UNL     1      43.782 -15.588   6.663  1.00  0.00     0.016 A 
BRANCH   8  13
HETATM   13  O   UNL     1      42.254 -13.852   3.771  1.00  0.00    -0.351 OA
BRANCH  13  14
HETATM   14  C   UNL     1      43.158 -13.244   2.835  1.00  0.00     0.171 C 
HETATM   15  C   UNL     1      43.387 -11.804   3.257  1.00  0.00     0.034 C 
ENDBRANCH  13  14
ENDBRANCH   8  13
ENDBRANCH   6   7
ENDBRANCH   1   5
BRANCH   2  16
HETATM   16  C   UNL     1      43.660  -9.335   8.918  1.00  0.00     0.061 A 
HETATM   17  C   UNL     1      43.442  -8.784  10.231  1.00  0.00     0.008 A 
HETATM   18  C   UNL     1      42.815  -7.546  10.062  1.00  0.00     0.043 A 
HETATM   19  C   UNL     1      43.720  -9.201  11.554  1.00  0.00     0.015 A 
HETATM   20  C   UNL     1      42.421  -6.735  11.134  1.00  0.00     0.030 A 
HETATM   21  N   UNL     1      42.703  -7.322   8.712  1.00  0.00    -0.364 N 
HETATM   22  C   UNL     1      42.681  -7.192  12.428  1.00  0.00     0.002 A 
HETATM   23  C   UNL     1      43.328  -8.404  12.636  1.00  0.00     0.001 A 
HETATM   24  H   UNL     1      42.306  -6.490   8.298  1.00  0.00     0.165 HD
HETATM   25  C   UNL     1      43.217  -8.378   8.018  1.00  0.00     0.106 A 
ENDBRANCH   2  16
TORSDOF 5
ENDMDL
