MODEL 1
REMARK VINA RESULT:      -9.2      0.000      0.000
REMARK  5 active torsions:
REMARK  status: ('A' for Active; 'I' for Inactive)
REMARK    1  A    between atoms: C_2  and  C_3 
REMARK    2  A    between atoms: C_4  and  N_5 
REMARK    3  A    between atoms: N_5  and  C_6 
REMARK    4  A    between atoms: C_7  and  C_8 
REMARK    5  A    between atoms: C_11  and  C_12 
ROOT
HETATM    1  C   UNL     1      43.164 -13.696   5.637  1.00  0.00     0.113 C 
HETATM    2  C   UNL     1      43.437 -12.390   5.449  1.00  0.00     0.082 C 
HETATM    3  C   UNL     1      43.133 -11.734   4.112  1.00  0.00     0.024 C 
HETATM    4  N   UNL     1      42.881 -11.189   3.003  1.00  0.00    -0.096 N 
ENDROOT
BRANCH   2   5
HETATM    5  C   UNL     1      44.081 -11.635   6.463  1.00  0.00     0.119 A 
HETATM    6  S   UNL     1      45.789 -11.361   6.385  1.00  0.00    -0.078 SA
HETATM    7  C   UNL     1      45.714 -10.467   7.844  1.00  0.00     0.084 A 
HETATM    8  C   UNL     1      44.416 -10.425   8.310  1.00  0.00     0.075 A 
HETATM    9  N   UNL     1      43.496 -11.086   7.510  1.00  0.00    -0.239 NA
BRANCH   8  10
HETATM   10  C   UNL     1      43.988  -9.734   9.523  1.00  0.00    -0.005 A 
HETATM   11  C   UNL     1      43.613  -8.384   9.447  1.00  0.00     0.039 A 
HETATM   12  C   UNL     1      43.196  -7.689  10.587  1.00  0.00     0.056 A 
HETATM   13 CL   UNL     1      42.760  -6.026  10.401  1.00  0.00    -0.083 Cl
HETATM   14  C   UNL     1      43.144  -8.342  11.821  1.00  0.00     0.055 A 
HETATM   15 CL   UNL     1      42.639  -7.552  13.271  1.00  0.00    -0.083 Cl
HETATM   16  C   UNL     1      43.508  -9.688  11.906  1.00  0.00     0.026 A 
HETATM   17  C   UNL     1      43.927 -10.380  10.764  1.00  0.00     0.015 A 
ENDBRANCH   8  10
ENDBRANCH   2   5
BRANCH   1  18
HETATM   18  N   UNL     1      42.555 -14.577   4.773  1.00  0.00    -0.364 N 
HETATM   19  H   UNL     1      41.905 -14.186   4.079  1.00  0.00     0.165 HD
BRANCH  18  20
HETATM   20  C   UNL     1      42.991 -15.878   4.423  1.00  0.00     0.048 A 
HETATM   21  C   UNL     1      43.124 -16.238   3.050  1.00  0.00     0.039 A 
HETATM   22  C   UNL     1      43.504 -17.535   2.667  1.00  0.00     0.057 A 
HETATM   23  C   UNL     1      43.735 -18.451   3.667  1.00  0.00     0.106 A 
HETATM   24  C   UNL     1      43.595 -18.126   4.994  1.00  0.00     0.107 A 
HETATM   25  O   UNL     1      44.118 -19.743   3.487  1.00  0.00    -0.323 OA
HETATM   26  C   UNL     1      43.218 -16.864   5.400  1.00  0.00     0.070 A 
HETATM   27  O   UNL     1      43.876 -19.172   5.817  1.00  0.00    -0.323 OA
HETATM   28  C   UNL     1      44.201 -20.197   4.855  1.00  0.00     0.352 A 
BRANCH  21  29
HETATM   29  C   UNL     1      42.852 -15.223   1.998  1.00  0.00     0.158 C 
HETATM   30  C   UNL     1      41.565 -15.322   1.222  1.00  0.00     0.097 C 
HETATM   31  O   UNL     1      43.679 -14.336   1.785  1.00  0.00    -0.293 OA
ENDBRANCH  21  29
ENDBRANCH  18  20
ENDBRANCH   1  18
TORSDOF 5
ENDMDL
MODEL 2
REMARK VINA RESULT:      -8.9      5.541      9.911
REMARK  5 active torsions:
REMARK  status: ('A' for Active; 'I' for Inactive)
REMARK    1  A    between atoms: C_2  and  C_3 
REMARK    2  A    between atoms: C_4  and  N_5 
REMARK    3  A    between atoms: N_5  and  C_6 
REMARK    4  A    between atoms: C_7  and  C_8 
REMARK    5  A    between atoms: C_11  and  C_12 
ROOT
HETATM    1  C   UNL     1      42.278 -10.389   6.771  1.00  0.00     0.113 C 
HETATM    2  C   UNL     1      43.053 -11.351   6.233  1.00  0.00     0.082 C 
HETATM    3  C   UNL     1      44.564 -11.288   6.389  1.00  0.00     0.024 C 
HETATM    4  N   UNL     1      45.818 -11.235   6.519  1.00  0.00    -0.096 N 
ENDROOT
BRANCH   2   5
HETATM    5  C   UNL     1      42.479 -12.385   5.448  1.00  0.00     0.119 A 
HETATM    6  S   UNL     1      40.880 -12.202   4.811  1.00  0.00    -0.078 SA
HETATM    7  C   UNL     1      40.990 -13.748   4.084  1.00  0.00     0.084 A 
HETATM    8  C   UNL     1      42.217 -14.317   4.360  1.00  0.00     0.075 A 
HETATM    9  N   UNL     1      43.057 -13.527   5.130  1.00  0.00    -0.239 NA
BRANCH   8  10
HETATM   10  C   UNL     1      42.654 -15.626   3.884  1.00  0.00    -0.005 A 
HETATM   11  C   UNL     1      43.008 -16.611   4.818  1.00  0.00     0.039 A 
HETATM   12  C   UNL     1      43.431 -17.878   4.402  1.00  0.00     0.056 A 
HETATM   13 CL   UNL     1      43.856 -19.027   5.622  1.00  0.00    -0.083 Cl
HETATM   14  C   UNL     1      43.498 -18.177   3.038  1.00  0.00     0.055 A 
HETATM   15 CL   UNL     1      44.007 -19.717   2.447  1.00  0.00    -0.083 Cl
HETATM   16  C   UNL     1      43.139 -17.206   2.100  1.00  0.00     0.026 A 
HETATM   17  C   UNL     1      42.720 -15.938   2.520  1.00  0.00     0.015 A 
ENDBRANCH   8  10
ENDBRANCH   2   5
BRANCH   1  18
HETATM   18  N   UNL     1      42.657  -9.319   7.547  1.00  0.00    -0.364 N 
HETATM   19  H   UNL     1      42.856  -8.432   7.067  1.00  0.00     0.165 HD
BRANCH  18  20
HETATM   20  C   UNL     1      42.418  -9.134   8.932  1.00  0.00     0.048 A 
HETATM   21  C   UNL     1      43.511  -8.894   9.816  1.00  0.00     0.039 A 
HETATM   22  C   UNL     1      43.315  -8.759  11.200  1.00  0.00     0.057 A 
HETATM   23  C   UNL     1      42.029  -8.876  11.675  1.00  0.00     0.106 A 
HETATM   24  C   UNL     1      40.968  -9.125  10.840  1.00  0.00     0.107 A 
HETATM   25  O   UNL     1      41.650  -8.765  12.976  1.00  0.00    -0.323 OA
HETATM   26  C   UNL     1      41.129  -9.268   9.478  1.00  0.00     0.070 A 
HETATM   27  O   UNL     1      39.787  -9.197  11.510  1.00  0.00    -0.323 OA
HETATM   28  C   UNL     1      40.227  -8.974  12.865  1.00  0.00     0.352 A 
BRANCH  21  29
HETATM   29  C   UNL     1      44.887  -8.787   9.265  1.00  0.00     0.158 C 
HETATM   30  C   UNL     1      45.933  -9.754   9.756  1.00  0.00     0.097 C 
HETATM   31  O   UNL     1      45.140  -7.918   8.430  1.00  0.00    -0.293 OA
ENDBRANCH  21  29
ENDBRANCH  18  20
ENDBRANCH   1  18
TORSDOF 5
ENDMDL
MODEL 3
REMARK VINA RESULT:      -8.8      5.656     10.116
REMARK  5 active torsions:
REMARK  status: ('A' for Active; 'I' for Inactive)
REMARK    1  A    between atoms: C_2  and  C_3 
REMARK    2  A    between atoms: C_4  and  N_5 
REMARK    3  A    between atoms: N_5  and  C_6 
REMARK    4  A    between atoms: C_7  and  C_8 
REMARK    5  A    between atoms: C_11  and  C_12 
ROOT
HETATM    1  C   UNL     1      43.161 -11.460   6.851  1.00  0.00     0.113 C 
HETATM    2  C   UNL     1      43.210 -12.252   5.762  1.00  0.00     0.082 C 
HETATM    3  C   UNL     1      43.124 -11.642   4.372  1.00  0.00     0.024 C 
HETATM    4  N   UNL     1      43.053 -11.135   3.219  1.00  0.00    -0.096 N 
ENDROOT
BRANCH   2   5
HETATM    5  C   UNL     1      43.260 -13.664   5.898  1.00  0.00     0.119 A 
HETATM    6  S   UNL     1      43.219 -14.383   7.473  1.00  0.00    -0.078 SA
HETATM    7  C   UNL     1      43.315 -15.940   6.766  1.00  0.00     0.084 A 
HETATM    8  C   UNL     1      43.375 -15.835   5.391  1.00  0.00     0.075 A 
HETATM    9  N   UNL     1      43.335 -14.535   4.911  1.00  0.00    -0.239 NA
BRANCH   8  10
HETATM   10  C   UNL     1      43.450 -16.967   4.472  1.00  0.00    -0.005 A 
HETATM   11  C   UNL     1      43.845 -18.222   4.961  1.00  0.00     0.039 A 
HETATM   12  C   UNL     1      43.927 -19.331   4.112  1.00  0.00     0.056 A 
HETATM   13 CL   UNL     1      44.430 -20.835   4.798  1.00  0.00    -0.083 Cl
HETATM   14  C   UNL     1      43.608 -19.196   2.758  1.00  0.00     0.055 A 
HETATM   15 CL   UNL     1      43.684 -20.518   1.649  1.00  0.00    -0.083 Cl
HETATM   16  C   UNL     1      43.206 -17.954   2.263  1.00  0.00     0.026 A 
HETATM   17  C   UNL     1      43.127 -16.846   3.115  1.00  0.00     0.015 A 
ENDBRANCH   8  10
ENDBRANCH   2   5
BRANCH   1  18
HETATM   18  N   UNL     1      43.106 -10.087   6.909  1.00  0.00    -0.364 N 
HETATM   19  H   UNL     1      43.393  -9.565   6.071  1.00  0.00     0.165 HD
BRANCH  18  20
HETATM   20  C   UNL     1      42.330  -9.295   7.792  1.00  0.00     0.048 A 
HETATM   21  C   UNL     1      42.964  -8.586   8.854  1.00  0.00     0.039 A 
HETATM   22  C   UNL     1      42.220  -7.835   9.778  1.00  0.00     0.057 A 
HETATM   23  C   UNL     1      40.852  -7.814   9.627  1.00  0.00     0.106 A 
HETATM   24  C   UNL     1      40.224  -8.505   8.619  1.00  0.00     0.107 A 
HETATM   25  O   UNL     1      39.976  -7.136  10.415  1.00  0.00    -0.323 OA
HETATM   26  C   UNL     1      40.927  -9.256   7.701  1.00  0.00     0.070 A 
HETATM   27  O   UNL     1      38.874  -8.345   8.645  1.00  0.00    -0.323 OA
HETATM   28  C   UNL     1      38.722  -7.481   9.790  1.00  0.00     0.352 A 
BRANCH  21  29
HETATM   29  C   UNL     1      44.443  -8.645   8.993  1.00  0.00     0.158 C 
HETATM   30  C   UNL     1      45.033  -9.623   9.974  1.00  0.00     0.097 C 
HETATM   31  O   UNL     1      45.145  -7.898   8.310  1.00  0.00    -0.293 OA
ENDBRANCH  21  29
ENDBRANCH  18  20
ENDBRANCH   1  18
TORSDOF 5
ENDMDL
MODEL 4
REMARK VINA RESULT:      -8.6      5.463      9.362
REMARK  5 active torsions:
REMARK  status: ('A' for Active; 'I' for Inactive)
REMARK    1  A    between atoms: C_2  and  C_3 
REMARK    2  A    between atoms: C_4  and  N_5 
REMARK    3  A    between atoms: N_5  and  C_6 
REMARK    4  A    between atoms: C_7  and  C_8 
REMARK    5  A    between atoms: C_11  and  C_12 
ROOT
HETATM    1  C   UNL     1      42.484 -11.841   4.703  1.00  0.00     0.113 C 
HETATM    2  C   UNL     1      42.311 -12.122   3.397  1.00  0.00     0.082 C 
HETATM    3  C   UNL     1      41.980 -11.009   2.416  1.00  0.00     0.024 C 
HETATM    4  N   UNL     1      41.706 -10.085   1.602  1.00  0.00    -0.096 N 
ENDROOT
BRANCH   2   5
HETATM    5  C   UNL     1      42.353 -13.464   2.936  1.00  0.00     0.119 A 
HETATM    6  S   UNL     1      41.752 -13.857   1.361  1.00  0.00    -0.078 SA
HETATM    7  C   UNL     1      42.151 -15.503   1.617  1.00  0.00     0.084 A 
HETATM    8  C   UNL     1      42.711 -15.667   2.868  1.00  0.00     0.075 A 
HETATM    9  N   UNL     1      42.827 -14.497   3.604  1.00  0.00    -0.239 NA
BRANCH   8  10
HETATM   10  C   UNL     1      43.181 -16.938   3.410  1.00  0.00    -0.005 A 
HETATM   11  C   UNL     1      43.339 -18.034   2.547  1.00  0.00     0.039 A 
HETATM   12  C   UNL     1      43.789 -19.268   3.028  1.00  0.00     0.056 A 
HETATM   13 CL   UNL     1      43.946 -20.565   1.896  1.00  0.00    -0.083 Cl
HETATM   14  C   UNL     1      44.093 -19.418   4.384  1.00  0.00     0.055 A 
HETATM   15 CL   UNL     1      44.655 -20.909   5.052  1.00  0.00    -0.083 Cl
HETATM   16  C   UNL     1      43.947 -18.332   5.250  1.00  0.00     0.026 A 
HETATM   17  C   UNL     1      43.495 -17.099   4.765  1.00  0.00     0.015 A 
ENDBRANCH   8  10
ENDBRANCH   2   5
BRANCH   1  18
HETATM   18  N   UNL     1      42.472 -10.614   5.324  1.00  0.00    -0.364 N 
HETATM   19  H   UNL     1      41.906  -9.871   4.895  1.00  0.00     0.165 HD
BRANCH  18  20
HETATM   20  C   UNL     1      42.785 -10.332   6.677  1.00  0.00     0.048 A 
HETATM   21  C   UNL     1      41.885  -9.561   7.469  1.00  0.00     0.039 A 
HETATM   22  C   UNL     1      42.188  -9.219   8.797  1.00  0.00     0.057 A 
HETATM   23  C   UNL     1      43.394  -9.648   9.305  1.00  0.00     0.106 A 
HETATM   24  C   UNL     1      44.280 -10.376   8.550  1.00  0.00     0.107 A 
HETATM   25  O   UNL     1      43.849  -9.422  10.566  1.00  0.00    -0.323 OA
HETATM   26  C   UNL     1      44.012 -10.722   7.242  1.00  0.00     0.070 A 
HETATM   27  O   UNL     1      45.404 -10.704   9.242  1.00  0.00    -0.323 OA
HETATM   28  C   UNL     1      45.128 -10.090  10.518  1.00  0.00     0.352 A 
BRANCH  21  29
HETATM   29  C   UNL     1      40.599  -9.104   6.880  1.00  0.00     0.158 C 
HETATM   30  C   UNL     1      40.424  -7.636   6.591  1.00  0.00     0.097 C 
HETATM   31  O   UNL     1      39.714  -9.928   6.647  1.00  0.00    -0.293 OA
ENDBRANCH  21  29
ENDBRANCH  18  20
ENDBRANCH   1  18
TORSDOF 5
ENDMDL
MODEL 5
REMARK VINA RESULT:      -8.5      5.488      9.460
REMARK  5 active torsions:
REMARK  status: ('A' for Active; 'I' for Inactive)
REMARK    1  A    between atoms: C_2  and  C_3 
REMARK    2  A    between atoms: C_4  and  N_5 
REMARK    3  A    between atoms: N_5  and  C_6 
REMARK    4  A    between atoms: C_7  and  C_8 
REMARK    5  A    between atoms: C_11  and  C_12 
ROOT
HETATM    1  C   UNL     1      42.756 -10.516   6.546  1.00  0.00     0.113 C 
HETATM    2  C   UNL     1      41.804 -11.289   5.990  1.00  0.00     0.082 C 
HETATM    3  C   UNL     1      40.347 -11.103   6.381  1.00  0.00     0.024 C 
HETATM    4  N   UNL     1      39.138 -10.948   6.706  1.00  0.00    -0.096 N 
ENDROOT
BRANCH   2   5
HETATM    5  C   UNL     1      42.154 -12.335   5.097  1.00  0.00     0.119 A 
HETATM    6  S   UNL     1      42.167 -12.049   3.390  1.00  0.00    -0.078 SA
HETATM    7  C   UNL     1      42.646 -13.671   3.119  1.00  0.00     0.084 A 
HETATM    8  C   UNL     1      42.768 -14.337   4.321  1.00  0.00     0.075 A 
HETATM    9  N   UNL     1      42.493 -13.564   5.439  1.00  0.00    -0.239 NA
BRANCH   8  10
HETATM   10  C   UNL     1      43.173 -15.733   4.462  1.00  0.00    -0.005 A 
HETATM   11  C   UNL     1      42.987 -16.613   3.385  1.00  0.00     0.039 A 
HETATM   12  C   UNL     1      43.364 -17.956   3.482  1.00  0.00     0.056 A 
HETATM   13 CL   UNL     1      43.090 -18.971   2.108  1.00  0.00    -0.083 Cl
HETATM   14  C   UNL     1      43.940 -18.435   4.661  1.00  0.00     0.055 A 
HETATM   15 CL   UNL     1      44.433 -20.079   4.855  1.00  0.00    -0.083 Cl
HETATM   16  C   UNL     1      44.138 -17.566   5.736  1.00  0.00     0.026 A 
HETATM   17  C   UNL     1      43.757 -16.222   5.638  1.00  0.00     0.015 A 
ENDBRANCH   8  10
ENDBRANCH   2   5
BRANCH   1  18
HETATM   18  N   UNL     1      42.604  -9.469   7.425  1.00  0.00    -0.364 N 
HETATM   19  H   UNL     1      42.162  -8.612   7.070  1.00  0.00     0.165 HD
BRANCH  18  20
HETATM   20  C   UNL     1      42.587  -9.531   8.841  1.00  0.00     0.048 A 
HETATM   21  C   UNL     1      43.777  -9.859   9.553  1.00  0.00     0.039 A 
HETATM   22  C   UNL     1      43.782  -9.981  10.952  1.00  0.00     0.057 A 
HETATM   23  C   UNL     1      42.592  -9.781  11.613  1.00  0.00     0.106 A 
HETATM   24  C   UNL     1      41.432  -9.481  10.940  1.00  0.00     0.107 A 
HETATM   25  O   UNL     1      42.409  -9.847  12.958  1.00  0.00    -0.323 OA
HETATM   26  C   UNL     1      41.394  -9.361   9.567  1.00  0.00     0.070 A 
HETATM   27  O   UNL     1      40.374  -9.317  11.779  1.00  0.00    -0.323 OA
HETATM   28  C   UNL     1      40.998  -9.556  13.057  1.00  0.00     0.352 A 
BRANCH  21  29
HETATM   29  C   UNL     1      45.041 -10.082   8.803  1.00  0.00     0.158 C 
HETATM   30  C   UNL     1      45.904  -8.890   8.483  1.00  0.00     0.097 C 
HETATM   31  O   UNL     1      45.349 -11.224   8.462  1.00  0.00    -0.293 OA
ENDBRANCH  21  29
ENDBRANCH  18  20
ENDBRANCH   1  18
TORSDOF 5
ENDMDL
MODEL 6
REMARK VINA RESULT:      -8.4      6.036      8.512
REMARK  5 active torsions:
REMARK  status: ('A' for Active; 'I' for Inactive)
REMARK    1  A    between atoms: C_2  and  C_3 
REMARK    2  A    between atoms: C_4  and  N_5 
REMARK    3  A    between atoms: N_5  and  C_6 
REMARK    4  A    between atoms: C_7  and  C_8 
REMARK    5  A    between atoms: C_11  and  C_12 
ROOT
HETATM    1  C   UNL     1      41.605 -12.513   1.838  1.00  0.00     0.113 C 
HETATM    2  C   UNL     1      41.782 -12.066   3.097  1.00  0.00     0.082 C 
HETATM    3  C   UNL     1      41.535 -10.603   3.427  1.00  0.00     0.024 C 
HETATM    4  N   UNL     1      41.330  -9.388   3.701  1.00  0.00    -0.096 N 
ENDROOT
BRANCH   2   5
HETATM    5  C   UNL     1      42.276 -12.932   4.107  1.00  0.00     0.119 A 
HETATM    6  S   UNL     1      42.692 -12.297   5.663  1.00  0.00    -0.078 SA
HETATM    7  C   UNL     1      43.146 -13.864   6.184  1.00  0.00     0.084 A 
HETATM    8  C   UNL     1      42.963 -14.775   5.163  1.00  0.00     0.075 A 
HETATM    9  N   UNL     1      42.460 -14.232   3.990  1.00  0.00    -0.239 NA
BRANCH   8  10
HETATM   10  C   UNL     1      43.236 -16.206   5.265  1.00  0.00    -0.005 A 
HETATM   11  C   UNL     1      43.518 -16.934   4.099  1.00  0.00     0.039 A 
HETATM   12  C   UNL     1      43.787 -18.306   4.155  1.00  0.00     0.056 A 
HETATM   13 CL   UNL     1      44.115 -19.124   2.668  1.00  0.00    -0.083 Cl
HETATM   14  C   UNL     1      43.782 -18.966   5.387  1.00  0.00     0.055 A 
HETATM   15 CL   UNL     1      44.105 -20.656   5.537  1.00  0.00    -0.083 Cl
HETATM   16  C   UNL     1      43.510 -18.249   6.554  1.00  0.00     0.026 A 
HETATM   17  C   UNL     1      43.240 -16.877   6.494  1.00  0.00     0.015 A 
ENDBRANCH   8  10
ENDBRANCH   2   5
BRANCH   1  18
HETATM   18  N   UNL     1      41.143 -11.823   0.742  1.00  0.00    -0.364 N 
HETATM   19  H   UNL     1      41.747 -11.084   0.358  1.00  0.00     0.165 HD
BRANCH  18  20
HETATM   20  C   UNL     1      40.159 -12.244  -0.187  1.00  0.00     0.048 A 
HETATM   21  C   UNL     1      38.822 -11.763  -0.072  1.00  0.00     0.039 A 
HETATM   22  C   UNL     1      37.810 -12.200  -0.943  1.00  0.00     0.057 A 
HETATM   23  C   UNL     1      38.155 -13.119  -1.908  1.00  0.00     0.106 A 
HETATM   24  C   UNL     1      39.434 -13.605  -2.021  1.00  0.00     0.107 A 
HETATM   25  O   UNL     1      37.316 -13.644  -2.840  1.00  0.00    -0.323 OA
HETATM   26  C   UNL     1      40.447 -13.199  -1.178  1.00  0.00     0.070 A 
HETATM   27  O   UNL     1      39.562 -14.495  -3.041  1.00  0.00    -0.323 OA
HETATM   28  C   UNL     1      38.213 -14.521  -3.553  1.00  0.00     0.352 A 
BRANCH  21  29
HETATM   29  C   UNL     1      38.486 -10.781   0.992  1.00  0.00     0.158 C 
HETATM   30  C   UNL     1      38.356  -9.329   0.614  1.00  0.00     0.097 C 
HETATM   31  O   UNL     1      38.325 -11.174   2.148  1.00  0.00    -0.293 OA
ENDBRANCH  21  29
ENDBRANCH  18  20
ENDBRANCH   1  18
TORSDOF 5
ENDMDL
MODEL 7
REMARK VINA RESULT:      -8.3      1.821      3.984
REMARK  5 active torsions:
REMARK  status: ('A' for Active; 'I' for Inactive)
REMARK    1  A    between atoms: C_2  and  C_3 
REMARK    2  A    between atoms: C_4  and  N_5 
REMARK    3  A    between atoms: N_5  and  C_6 
REMARK    4  A    between atoms: C_7  and  C_8 
REMARK    5  A    between atoms: C_11  and  C_12 
ROOT
HETATM    1  C   UNL     1      43.533 -13.350   5.114  1.00  0.00     0.113 C 
HETATM    2  C   UNL     1      43.703 -13.333   6.450  1.00  0.00     0.082 C 
HETATM    3  C   UNL     1      43.297 -14.537   7.285  1.00  0.00     0.024 C 
HETATM    4  N   UNL     1      42.960 -15.536   7.977  1.00  0.00    -0.096 N 
ENDROOT
BRANCH   2   5
HETATM    5  C   UNL     1      44.186 -12.168   7.101  1.00  0.00     0.119 A 
HETATM    6  S   UNL     1      45.596 -11.363   6.500  1.00  0.00    -0.078 SA
HETATM    7  C   UNL     1      45.467 -10.200   7.750  1.00  0.00     0.084 A 
HETATM    8  C   UNL     1      44.377 -10.479   8.549  1.00  0.00     0.075 A 
HETATM    9  N   UNL     1      43.653 -11.597   8.163  1.00  0.00    -0.239 NA
BRANCH   8  10
HETATM   10  C   UNL     1      43.962  -9.684   9.700  1.00  0.00    -0.005 A 
HETATM   11  C   UNL     1      43.603  -8.340   9.511  1.00  0.00     0.039 A 
HETATM   12  C   UNL     1      43.199  -7.546  10.589  1.00  0.00     0.056 A 
HETATM   13 CL   UNL     1      42.784  -5.899  10.265  1.00  0.00    -0.083 Cl
HETATM   14  C   UNL     1      43.142  -8.092  11.874  1.00  0.00     0.055 A 
HETATM   15 CL   UNL     1      42.652  -7.176  13.254  1.00  0.00    -0.083 Cl
HETATM   16  C   UNL     1      43.489  -9.430  12.072  1.00  0.00     0.026 A 
HETATM   17  C   UNL     1      43.896 -10.222  10.992  1.00  0.00     0.015 A 
ENDBRANCH   8  10
ENDBRANCH   2   5
BRANCH   1  18
HETATM   18  N   UNL     1      43.077 -14.378   4.321  1.00  0.00    -0.364 N 
HETATM   19  H   UNL     1      42.978 -15.304   4.757  1.00  0.00     0.165 HD
BRANCH  18  20
HETATM   20  C   UNL     1      42.337 -14.273   3.117  1.00  0.00     0.048 A 
HETATM   21  C   UNL     1      41.818 -15.446   2.497  1.00  0.00     0.039 A 
HETATM   22  C   UNL     1      41.125 -15.383   1.277  1.00  0.00     0.057 A 
HETATM   23  C   UNL     1      40.974 -14.145   0.695  1.00  0.00     0.106 A 
HETATM   24  C   UNL     1      41.484 -13.006   1.270  1.00  0.00     0.107 A 
HETATM   25  O   UNL     1      40.328 -13.890  -0.474  1.00  0.00    -0.323 OA
HETATM   26  C   UNL     1      42.173 -13.038   2.465  1.00  0.00     0.070 A 
HETATM   27  O   UNL     1      41.218 -11.892   0.538  1.00  0.00    -0.323 OA
HETATM   28  C   UNL     1      40.490 -12.459  -0.570  1.00  0.00     0.352 A 
BRANCH  21  29
HETATM   29  C   UNL     1      42.014 -16.767   3.150  1.00  0.00     0.158 C 
HETATM   30  C   UNL     1      42.665 -17.869   2.357  1.00  0.00     0.097 C 
HETATM   31  O   UNL     1      41.641 -16.929   4.312  1.00  0.00    -0.293 OA
ENDBRANCH  21  29
ENDBRANCH  18  20
ENDBRANCH   1  18
TORSDOF 5
ENDMDL
MODEL 8
REMARK VINA RESULT:      -8.3      5.710      8.451
REMARK  5 active torsions:
REMARK  status: ('A' for Active; 'I' for Inactive)
REMARK    1  A    between atoms: C_2  and  C_3 
REMARK    2  A    between atoms: C_4  and  N_5 
REMARK    3  A    between atoms: N_5  and  C_6 
REMARK    4  A    between atoms: C_7  and  C_8 
REMARK    5  A    between atoms: C_11  and  C_12 
ROOT
HETATM    1  C   UNL     1      42.147 -14.440   2.354  1.00  0.00     0.113 C 
HETATM    2  C   UNL     1      41.154 -13.568   2.092  1.00  0.00     0.082 C 
HETATM    3  C   UNL     1      40.233 -13.104   3.209  1.00  0.00     0.024 C 
HETATM    4  N   UNL     1      39.469 -12.719   4.137  1.00  0.00    -0.096 N 
ENDROOT
BRANCH   2   5
HETATM    5  C   UNL     1      40.905 -13.136   0.763  1.00  0.00     0.119 A 
HETATM    6  S   UNL     1      40.087 -14.183  -0.347  1.00  0.00    -0.078 SA
HETATM    7  C   UNL     1      40.208 -12.986  -1.567  1.00  0.00     0.084 A 
HETATM    8  C   UNL     1      40.856 -11.871  -1.076  1.00  0.00     0.075 A 
HETATM    9  N   UNL     1      41.239 -11.967   0.253  1.00  0.00    -0.239 NA
BRANCH   8  10
HETATM   10  C   UNL     1      41.118 -10.656  -1.841  1.00  0.00    -0.005 A 
HETATM   11  C   UNL     1      41.900  -9.641  -1.269  1.00  0.00     0.039 A 
HETATM   12  C   UNL     1      42.175  -8.463  -1.971  1.00  0.00     0.056 A 
HETATM   13 CL   UNL     1      43.140  -7.263  -1.185  1.00  0.00    -0.083 Cl
HETATM   14  C   UNL     1      41.672  -8.289  -3.264  1.00  0.00     0.055 A 
HETATM   15 CL   UNL     1      41.970  -6.864  -4.193  1.00  0.00    -0.083 Cl
HETATM   16  C   UNL     1      40.899  -9.296  -3.846  1.00  0.00     0.026 A 
HETATM   17  C   UNL     1      40.624 -10.473  -3.140  1.00  0.00     0.015 A 
ENDBRANCH   8  10
ENDBRANCH   2   5
BRANCH   1  18
HETATM   18  N   UNL     1      42.527 -14.965   3.567  1.00  0.00    -0.364 N 
HETATM   19  H   UNL     1      42.212 -14.477   4.415  1.00  0.00     0.165 HD
BRANCH  18  20
HETATM   20  C   UNL     1      42.936 -16.295   3.837  1.00  0.00     0.048 A 
HETATM   21  C   UNL     1      43.388 -16.648   5.143  1.00  0.00     0.039 A 
HETATM   22  C   UNL     1      43.849 -17.943   5.431  1.00  0.00     0.057 A 
HETATM   23  C   UNL     1      43.859 -18.858   4.404  1.00  0.00     0.106 A 
HETATM   24  C   UNL     1      43.444 -18.530   3.136  1.00  0.00     0.107 A 
HETATM   25  O   UNL     1      44.260 -20.154   4.498  1.00  0.00    -0.323 OA
HETATM   26  C   UNL     1      42.991 -17.266   2.821  1.00  0.00     0.070 A 
HETATM   27  O   UNL     1      43.527 -19.579   2.275  1.00  0.00    -0.323 OA
HETATM   28  C   UNL     1      44.051 -20.605   3.143  1.00  0.00     0.352 A 
BRANCH  21  29
HETATM   29  C   UNL     1      43.376 -15.627   6.223  1.00  0.00     0.158 C 
HETATM   30  C   UNL     1      42.692 -15.965   7.521  1.00  0.00     0.097 C 
HETATM   31  O   UNL     1      43.917 -14.537   6.031  1.00  0.00    -0.293 OA
ENDBRANCH  21  29
ENDBRANCH  18  20
ENDBRANCH   1  18
TORSDOF 5
ENDMDL
MODEL 9
REMARK VINA RESULT:      -7.9      5.737      8.423
REMARK  5 active torsions:
REMARK  status: ('A' for Active; 'I' for Inactive)
REMARK    1  A    between atoms: C_2  and  C_3 
REMARK    2  A    between atoms: C_4  and  N_5 
REMARK    3  A    between atoms: N_5  and  C_6 
REMARK    4  A    between atoms: C_7  and  C_8 
REMARK    5  A    between atoms: C_11  and  C_12 
ROOT
HETATM    1  C   UNL     1      40.154 -13.246   2.674  1.00  0.00     0.113 C 
HETATM    2  C   UNL     1      40.134 -12.834   1.392  1.00  0.00     0.082 C 
HETATM    3  C   UNL     1      39.927 -13.841   0.272  1.00  0.00     0.024 C 
HETATM    4  N   UNL     1      39.756 -14.677  -0.658  1.00  0.00    -0.096 N 
ENDROOT
BRANCH   2   5
HETATM    5  C   UNL     1      40.384 -11.476   1.067  1.00  0.00     0.119 A 
HETATM    6  S   UNL     1      40.078 -10.236   2.236  1.00  0.00    -0.078 SA
HETATM    7  C   UNL     1      40.599  -9.049   1.117  1.00  0.00     0.084 A 
HETATM    8  C   UNL     1      40.970  -9.646  -0.071  1.00  0.00     0.075 A 
HETATM    9  N   UNL     1      40.851 -11.027  -0.082  1.00  0.00    -0.239 NA
BRANCH   8  10
HETATM   10  C   UNL     1      41.477  -8.932  -1.239  1.00  0.00    -0.005 A 
HETATM   11  C   UNL     1      42.482  -7.967  -1.070  1.00  0.00     0.039 A 
HETATM   12  C   UNL     1      42.994  -7.263  -2.165  1.00  0.00     0.056 A 
HETATM   13 CL   UNL     1      44.223  -6.086  -1.862  1.00  0.00    -0.083 Cl
HETATM   14  C   UNL     1      42.509  -7.524  -3.449  1.00  0.00     0.055 A 
HETATM   15 CL   UNL     1      43.092  -6.698  -4.849  1.00  0.00    -0.083 Cl
HETATM   16  C   UNL     1      41.515  -8.488  -3.630  1.00  0.00     0.026 A 
HETATM   17  C   UNL     1      41.003  -9.189  -2.532  1.00  0.00     0.015 A 
ENDBRANCH   8  10
ENDBRANCH   2   5
BRANCH   1  18
HETATM   18  N   UNL     1      39.940 -14.511   3.171  1.00  0.00    -0.364 N 
HETATM   19  H   UNL     1      39.018 -14.936   3.005  1.00  0.00     0.165 HD
BRANCH  18  20
HETATM   20  C   UNL     1      40.918 -15.477   3.515  1.00  0.00     0.048 A 
HETATM   21  C   UNL     1      41.480 -15.485   4.825  1.00  0.00     0.039 A 
HETATM   22  C   UNL     1      42.488 -16.394   5.183  1.00  0.00     0.057 A 
HETATM   23  C   UNL     1      42.924 -17.273   4.218  1.00  0.00     0.106 A 
HETATM   24  C   UNL     1      42.406 -17.267   2.946  1.00  0.00     0.107 A 
HETATM   25  O   UNL     1      43.880 -18.226   4.384  1.00  0.00    -0.323 OA
HETATM   26  C   UNL     1      41.420 -16.383   2.563  1.00  0.00     0.070 A 
HETATM   27  O   UNL     1      42.969 -18.218   2.153  1.00  0.00    -0.323 OA
HETATM   28  C   UNL     1      43.908 -18.819   3.069  1.00  0.00     0.352 A 
BRANCH  21  29
HETATM   29  C   UNL     1      40.992 -14.510   5.836  1.00  0.00     0.158 C 
HETATM   30  C   UNL     1      41.831 -13.292   6.120  1.00  0.00     0.097 C 
HETATM   31  O   UNL     1      39.926 -14.720   6.414  1.00  0.00    -0.293 OA
ENDBRANCH  21  29
ENDBRANCH  18  20
ENDBRANCH   1  18
TORSDOF 5
ENDMDL
MODEL 10
REMARK VINA RESULT:      -7.9      5.599     10.188
REMARK  5 active torsions:
REMARK  status: ('A' for Active; 'I' for Inactive)
REMARK    1  A    between atoms: C_2  and  C_3 
REMARK    2  A    between atoms: C_4  and  N_5 
REMARK    3  A    between atoms: N_5  and  C_6 
REMARK    4  A    between atoms: C_7  and  C_8 
REMARK    5  A    between atoms: C_11  and  C_12 
ROOT
HETATM    1  C   UNL     1      42.438 -12.385   5.960  1.00  0.00     0.113 C 
HETATM    2  C   UNL     1      42.233 -13.712   5.858  1.00  0.00     0.082 C 
HETATM    3  C   UNL     1      42.629 -14.634   7.000  1.00  0.00     0.024 C 
HETATM    4  N   UNL     1      42.957 -15.399   7.948  1.00  0.00    -0.096 N 
ENDROOT
BRANCH   2   5
HETATM    5  C   UNL     1      41.723 -14.273   4.658  1.00  0.00     0.119 A 
HETATM    6  S   UNL     1      41.258 -15.940   4.611  1.00  0.00    -0.078 SA
HETATM    7  C   UNL     1      40.815 -15.772   2.966  1.00  0.00     0.084 A 
HETATM    8  C   UNL     1      41.041 -14.478   2.542  1.00  0.00     0.075 A 
HETATM    9  N   UNL     1      41.550 -13.634   3.517  1.00  0.00    -0.239 NA
BRANCH   8  10
HETATM   10  C   UNL     1      40.762 -13.981   1.198  1.00  0.00    -0.005 A 
HETATM   11  C   UNL     1      40.069 -14.801   0.294  1.00  0.00     0.039 A 
HETATM   12  C   UNL     1      39.781 -14.360  -1.002  1.00  0.00     0.056 A 
HETATM   13 CL   UNL     1      38.932 -15.440  -2.051  1.00  0.00    -0.083 Cl
HETATM   14  C   UNL     1      40.181 -13.083  -1.407  1.00  0.00     0.055 A 
HETATM   15 CL   UNL     1      39.861 -12.468  -2.989  1.00  0.00    -0.083 Cl
HETATM   16  C   UNL     1      40.863 -12.256  -0.513  1.00  0.00     0.026 A 
HETATM   17  C   UNL     1      41.152 -12.702   0.782  1.00  0.00     0.015 A 
ENDBRANCH   8  10
ENDBRANCH   2   5
BRANCH   1  18
HETATM   18  N   UNL     1      42.924 -11.673   7.033  1.00  0.00    -0.364 N 
HETATM   19  H   UNL     1      43.660 -12.114   7.600  1.00  0.00     0.165 HD
BRANCH  18  20
HETATM   20  C   UNL     1      42.863 -10.272   7.233  1.00  0.00     0.048 A 
HETATM   21  C   UNL     1      43.776  -9.641   8.128  1.00  0.00     0.039 A 
HETATM   22  C   UNL     1      43.710  -8.263   8.389  1.00  0.00     0.057 A 
HETATM   23  C   UNL     1      42.722  -7.542   7.757  1.00  0.00     0.106 A 
HETATM   24  C   UNL     1      41.823  -8.137   6.906  1.00  0.00     0.107 A 
HETATM   25  O   UNL     1      42.513  -6.205   7.880  1.00  0.00    -0.323 OA
HETATM   26  C   UNL     1      41.860  -9.489   6.634  1.00  0.00     0.070 A 
HETATM   27  O   UNL     1      40.937  -7.248   6.384  1.00  0.00    -0.323 OA
HETATM   28  C   UNL     1      41.375  -6.025   7.010  1.00  0.00     0.352 A 
BRANCH  21  29
HETATM   29  C   UNL     1      44.820 -10.456   8.802  1.00  0.00     0.158 C 
HETATM   30  C   UNL     1      45.059 -10.240  10.274  1.00  0.00     0.097 C 
HETATM   31  O   UNL     1      45.462 -11.279   8.149  1.00  0.00    -0.293 OA
ENDBRANCH  21  29
ENDBRANCH  18  20
ENDBRANCH   1  18
TORSDOF 5
ENDMDL
