MODEL 1
REMARK VINA RESULT:      -7.6      0.000      0.000
REMARK  6 active torsions:
REMARK  status: ('A' for Active; 'I' for Inactive)
REMARK    1  A    between atoms: C_2  and  N_3 
REMARK    2  A    between atoms: C_2  and  C_16 
REMARK    3  A    between atoms: N_3  and  C_6 
REMARK    4  A    between atoms: C_16  and  C_17 
REMARK       I    between atoms: C_17  and  N_18 
REMARK    5  A    between atoms: N_18  and  C_19 
REMARK    6  A    between atoms: C_22  and  O_23 
ROOT
HETATM    1  C   UNL     1      43.501 -12.233   5.381  1.00  0.00     0.040 C 
HETATM    2  C   UNL     1      42.089 -12.613   5.801  1.00  0.00     0.191 C 
ENDROOT
BRANCH   2   3
HETATM    3  N   UNL     1      41.863 -14.110   5.686  1.00  0.00    -0.063 N 
HETATM    4  H   UNL     1      41.260 -14.333   6.503  1.00  0.00     0.278 HD
HETATM    5  H   UNL     1      41.278 -14.322   4.869  1.00  0.00     0.278 HD
BRANCH   3   6
HETATM    6  C   UNL     1      43.006 -15.103   5.752  1.00  0.00     0.221 C 
HETATM    7  C   UNL     1      43.145 -16.005   4.547  1.00  0.00    -0.011 A 
HETATM    8  C   UNL     1      43.336 -17.392   4.661  1.00  0.00     0.009 A 
HETATM    9  C   UNL     1      43.168 -15.432   3.255  1.00  0.00     0.011 A 
HETATM   10  C   UNL     1      43.468 -18.179   3.509  1.00  0.00     0.019 A 
HETATM   11  S   UNL     1      43.451 -18.238   6.225  1.00  0.00    -0.129 SA
HETATM   12  C   UNL     1      43.453 -17.600   2.242  1.00  0.00     0.001 A 
HETATM   13  C   UNL     1      43.312 -16.224   2.116  1.00  0.00     0.001 A 
HETATM   14  C   UNL     1      44.001 -16.871   7.271  1.00  0.00     0.082 C 
HETATM   15  C   UNL     1      42.995 -15.744   7.149  1.00  0.00     0.048 C 
ENDBRANCH   3   6
ENDBRANCH   2   3
BRANCH   2  16
HETATM   16  C   UNL     1      41.058 -11.882   4.910  1.00  0.00     0.135 C 
BRANCH  16  17
HETATM   17  C   UNL     1      39.691 -12.510   5.023  1.00  0.00     0.224 C 
HETATM   18  N   UNL     1      39.052 -13.076   3.968  1.00  0.00    -0.327 N 
HETATM   19  H   UNL     1      38.134 -13.420   4.242  1.00  0.00     0.169 HD
HETATM   20  O   UNL     1      39.159 -12.575   6.140  1.00  0.00    -0.273 OA
BRANCH  18  21
HETATM   21  C   UNL     1      39.414 -13.372   2.640  1.00  0.00     0.034 A 
HETATM   22  C   UNL     1      39.926 -14.581   2.177  1.00  0.00     0.032 A 
HETATM   23  C   UNL     1      40.174 -14.770   0.810  1.00  0.00     0.039 A 
HETATM   24  C   UNL     1      39.915 -13.762  -0.118  1.00  0.00     0.068 A 
HETATM   25  C   UNL     1      39.436 -12.540   0.337  1.00  0.00     0.039 A 
HETATM   26  C   UNL     1      39.190 -12.349   1.704  1.00  0.00     0.032 A 
BRANCH  24  27
HETATM   27  O   UNL     1      40.174 -14.094  -1.416  1.00  0.00    -0.356 OA
HETATM   28  C   UNL     1      39.078 -14.569  -2.190  1.00  0.00     0.210 C 
ENDBRANCH  24  27
ENDBRANCH  18  21
ENDBRANCH  16  17
ENDBRANCH   2  16
TORSDOF 6
ENDMDL
MODEL 2
REMARK VINA RESULT:      -7.2      2.629      5.633
REMARK  6 active torsions:
REMARK  status: ('A' for Active; 'I' for Inactive)
REMARK    1  A    between atoms: C_2  and  N_3 
REMARK    2  A    between atoms: C_2  and  C_16 
REMARK    3  A    between atoms: N_3  and  C_6 
REMARK    4  A    between atoms: C_16  and  C_17 
REMARK       I    between atoms: C_17  and  N_18 
REMARK    5  A    between atoms: N_18  and  C_19 
REMARK    6  A    between atoms: C_22  and  O_23 
ROOT
HETATM    1  C   UNL     1      40.318 -12.623   3.769  1.00  0.00     0.040 C 
HETATM    2  C   UNL     1      41.219 -13.550   2.968  1.00  0.00     0.191 C 
ENDROOT
BRANCH   2   3
HETATM    3  N   UNL     1      41.399 -14.885   3.669  1.00  0.00    -0.063 N 
HETATM    4  H   UNL     1      40.681 -14.869   4.420  1.00  0.00     0.278 HD
HETATM    5  H   UNL     1      41.111 -15.655   3.053  1.00  0.00     0.278 HD
BRANCH   3   6
HETATM    6  C   UNL     1      42.693 -15.260   4.365  1.00  0.00     0.221 C 
HETATM    7  C   UNL     1      43.153 -16.683   4.143  1.00  0.00    -0.011 A 
HETATM    8  C   UNL     1      43.588 -17.507   5.195  1.00  0.00     0.009 A 
HETATM    9  C   UNL     1      43.230 -17.187   2.825  1.00  0.00     0.011 A 
HETATM   10  C   UNL     1      44.013 -18.817   4.931  1.00  0.00     0.019 A 
HETATM   11  S   UNL     1      43.662 -16.970   6.892  1.00  0.00    -0.129 SA
HETATM   12  C   UNL     1      44.049 -19.307   3.627  1.00  0.00     0.001 A 
HETATM   13  C   UNL     1      43.666 -18.488   2.573  1.00  0.00     0.001 A 
HETATM   14  C   UNL     1      43.805 -15.186   6.641  1.00  0.00     0.082 C 
HETATM   15  C   UNL     1      42.626 -14.727   5.805  1.00  0.00     0.048 C 
ENDBRANCH   3   6
ENDBRANCH   2   3
BRANCH   2  16
HETATM   16  C   UNL     1      42.608 -12.899   2.772  1.00  0.00     0.135 C 
BRANCH  16  17
HETATM   17  C   UNL     1      42.509 -11.394   2.735  1.00  0.00     0.224 C 
HETATM   18  N   UNL     1      42.791 -10.611   3.807  1.00  0.00    -0.327 N 
HETATM   19  H   UNL     1      42.641  -9.628   3.589  1.00  0.00     0.169 HD
HETATM   20  O   UNL     1      42.226 -10.845   1.661  1.00  0.00    -0.273 OA
BRANCH  18  21
HETATM   21  C   UNL     1      43.329 -10.850   5.087  1.00  0.00     0.034 A 
HETATM   22  C   UNL     1      44.532 -11.492   5.366  1.00  0.00     0.032 A 
HETATM   23  C   UNL     1      44.990 -11.595   6.687  1.00  0.00     0.039 A 
HETATM   24  C   UNL     1      44.262 -11.062   7.750  1.00  0.00     0.068 A 
HETATM   25  C   UNL     1      43.044 -10.449   7.485  1.00  0.00     0.039 A 
HETATM   26  C   UNL     1      42.584 -10.347   6.165  1.00  0.00     0.032 A 
BRANCH  24  27
HETATM   27  O   UNL     1      44.842 -11.209   8.977  1.00  0.00    -0.356 OA
HETATM   28  C   UNL     1      44.548 -10.214   9.951  1.00  0.00     0.210 C 
ENDBRANCH  24  27
ENDBRANCH  18  21
ENDBRANCH  16  17
ENDBRANCH   2  16
TORSDOF 6
ENDMDL
MODEL 3
REMARK VINA RESULT:      -7.2      2.326      3.524
REMARK  6 active torsions:
REMARK  status: ('A' for Active; 'I' for Inactive)
REMARK    1  A    between atoms: C_2  and  N_3 
REMARK    2  A    between atoms: C_2  and  C_16 
REMARK    3  A    between atoms: N_3  and  C_6 
REMARK    4  A    between atoms: C_16  and  C_17 
REMARK       I    between atoms: C_17  and  N_18 
REMARK    5  A    between atoms: N_18  and  C_19 
REMARK    6  A    between atoms: C_22  and  O_23 
ROOT
HETATM    1  C   UNL     1      43.232 -13.442   2.464  1.00  0.00     0.040 C 
HETATM    2  C   UNL     1      41.872 -14.124   2.440  1.00  0.00     0.191 C 
ENDROOT
BRANCH   2   3
HETATM    3  N   UNL     1      41.748 -15.145   3.557  1.00  0.00    -0.063 N 
HETATM    4  H   UNL     1      41.129 -14.678   4.250  1.00  0.00     0.278 HD
HETATM    5  H   UNL     1      41.210 -15.960   3.240  1.00  0.00     0.278 HD
BRANCH   3   6
HETATM    6  C   UNL     1      42.950 -15.618   4.352  1.00  0.00     0.221 C 
HETATM    7  C   UNL     1      43.300 -17.078   4.179  1.00  0.00    -0.011 A 
HETATM    8  C   UNL     1      43.584 -17.919   5.268  1.00  0.00     0.009 A 
HETATM    9  C   UNL     1      43.431 -17.607   2.875  1.00  0.00     0.011 A 
HETATM   10  C   UNL     1      43.913 -19.264   5.049  1.00  0.00     0.019 A 
HETATM   11  S   UNL     1      43.579 -17.363   6.961  1.00  0.00    -0.129 SA
HETATM   12  C   UNL     1      44.002 -19.776   3.756  1.00  0.00     0.001 A 
HETATM   13  C   UNL     1      43.770 -18.945   2.668  1.00  0.00     0.001 A 
HETATM   14  C   UNL     1      43.893 -15.602   6.704  1.00  0.00     0.082 C 
HETATM   15  C   UNL     1      42.823 -15.058   5.777  1.00  0.00     0.048 C 
ENDBRANCH   3   6
ENDBRANCH   2   3
BRANCH   2  16
HETATM   16  C   UNL     1      41.665 -14.840   1.085  1.00  0.00     0.135 C 
BRANCH  16  17
HETATM   17  C   UNL     1      40.206 -15.131   0.835  1.00  0.00     0.224 C 
HETATM   18  N   UNL     1      39.437 -14.381   0.007  1.00  0.00    -0.327 N 
HETATM   19  H   UNL     1      38.478 -14.722  -0.009  1.00  0.00     0.169 HD
HETATM   20  O   UNL     1      39.706 -16.140   1.353  1.00  0.00    -0.273 OA
BRANCH  18  21
HETATM   21  C   UNL     1      39.694 -13.324  -0.889  1.00  0.00     0.034 A 
HETATM   22  C   UNL     1      39.438 -11.975  -0.663  1.00  0.00     0.032 A 
HETATM   23  C   UNL     1      39.816 -11.013  -1.611  1.00  0.00     0.039 A 
HETATM   24  C   UNL     1      40.454 -11.377  -2.796  1.00  0.00     0.068 A 
HETATM   25  C   UNL     1      40.683 -12.723  -3.046  1.00  0.00     0.039 A 
HETATM   26  C   UNL     1      40.304 -13.686  -2.100  1.00  0.00     0.032 A 
BRANCH  24  27
HETATM   27  O   UNL     1      40.791 -10.335  -3.611  1.00  0.00    -0.356 OA
HETATM   28  C   UNL     1      41.210  -9.132  -2.978  1.00  0.00     0.210 C 
ENDBRANCH  24  27
ENDBRANCH  18  21
ENDBRANCH  16  17
ENDBRANCH   2  16
TORSDOF 6
ENDMDL
MODEL 4
REMARK VINA RESULT:      -7.1      2.070      4.653
REMARK  6 active torsions:
REMARK  status: ('A' for Active; 'I' for Inactive)
REMARK    1  A    between atoms: C_2  and  N_3 
REMARK    2  A    between atoms: C_2  and  C_16 
REMARK    3  A    between atoms: N_3  and  C_6 
REMARK    4  A    between atoms: C_16  and  C_17 
REMARK       I    between atoms: C_17  and  N_18 
REMARK    5  A    between atoms: N_18  and  C_19 
REMARK    6  A    between atoms: C_22  and  O_23 
ROOT
HETATM    1  C   UNL     1      39.833 -15.713   1.386  1.00  0.00     0.040 C 
HETATM    2  C   UNL     1      40.437 -14.710   2.357  1.00  0.00     0.191 C 
ENDROOT
BRANCH   2   3
HETATM    3  N   UNL     1      40.804 -15.371   3.674  1.00  0.00    -0.063 N 
HETATM    4  H   UNL     1      40.312 -14.795   4.386  1.00  0.00     0.278 HD
HETATM    5  H   UNL     1      40.366 -16.297   3.745  1.00  0.00     0.278 HD
BRANCH   3   6
HETATM    6  C   UNL     1      42.239 -15.459   4.157  1.00  0.00     0.221 C 
HETATM    7  C   UNL     1      42.889 -16.815   3.997  1.00  0.00    -0.011 A 
HETATM    8  C   UNL     1      43.622 -17.426   5.028  1.00  0.00     0.009 A 
HETATM    9  C   UNL     1      42.833 -17.464   2.743  1.00  0.00     0.011 A 
HETATM   10  C   UNL     1      44.212 -18.681   4.821  1.00  0.00     0.019 A 
HETATM   11  S   UNL     1      43.882 -16.674   6.622  1.00  0.00    -0.129 SA
HETATM   12  C   UNL     1      44.115 -19.321   3.588  1.00  0.00     0.001 A 
HETATM   13  C   UNL     1      43.433 -18.708   2.545  1.00  0.00     0.001 A 
HETATM   14  C   UNL     1      43.680 -14.934   6.175  1.00  0.00     0.082 C 
HETATM   15  C   UNL     1      42.320 -14.764   5.526  1.00  0.00     0.048 C 
ENDBRANCH   3   6
ENDBRANCH   2   3
BRANCH   2  16
HETATM   16  C   UNL     1      39.430 -13.571   2.635  1.00  0.00     0.135 C 
BRANCH  16  17
HETATM   17  C   UNL     1      39.760 -12.337   1.832  1.00  0.00     0.224 C 
HETATM   18  N   UNL     1      40.744 -11.472   2.183  1.00  0.00    -0.327 N 
HETATM   19  H   UNL     1      40.794 -10.693   1.529  1.00  0.00     0.169 HD
HETATM   20  O   UNL     1      39.154 -12.143   0.768  1.00  0.00    -0.273 OA
BRANCH  18  21
HETATM   21  C   UNL     1      41.749 -11.471   3.170  1.00  0.00     0.034 A 
HETATM   22  C   UNL     1      43.073 -11.863   2.995  1.00  0.00     0.032 A 
HETATM   23  C   UNL     1      43.994 -11.738   4.045  1.00  0.00     0.039 A 
HETATM   24  C   UNL     1      43.614 -11.222   5.283  1.00  0.00     0.068 A 
HETATM   25  C   UNL     1      42.288 -10.859   5.479  1.00  0.00     0.039 A 
HETATM   26  C   UNL     1      41.366 -10.985   4.430  1.00  0.00     0.032 A 
BRANCH  24  27
HETATM   27  O   UNL     1      44.620 -11.130   6.201  1.00  0.00    -0.356 OA
HETATM   28  C   UNL     1      44.301 -11.482   7.543  1.00  0.00     0.210 C 
ENDBRANCH  24  27
ENDBRANCH  18  21
ENDBRANCH  16  17
ENDBRANCH   2  16
TORSDOF 6
ENDMDL
MODEL 5
REMARK VINA RESULT:      -6.9      2.245      3.636
REMARK  6 active torsions:
REMARK  status: ('A' for Active; 'I' for Inactive)
REMARK    1  A    between atoms: C_2  and  N_3 
REMARK    2  A    between atoms: C_2  and  C_16 
REMARK    3  A    between atoms: N_3  and  C_6 
REMARK    4  A    between atoms: C_16  and  C_17 
REMARK       I    between atoms: C_17  and  N_18 
REMARK    5  A    between atoms: N_18  and  C_19 
REMARK    6  A    between atoms: C_22  and  O_23 
ROOT
HETATM    1  C   UNL     1      40.588 -13.521   2.936  1.00  0.00     0.040 C 
HETATM    2  C   UNL     1      39.865 -14.860   2.939  1.00  0.00     0.191 C 
ENDROOT
BRANCH   2   3
HETATM    3  N   UNL     1      40.483 -15.818   3.942  1.00  0.00    -0.063 N 
HETATM    4  H   UNL     1      39.994 -15.594   4.832  1.00  0.00     0.278 HD
HETATM    5  H   UNL     1      40.207 -16.784   3.732  1.00  0.00     0.278 HD
BRANCH   3   6
HETATM    6  C   UNL     1      41.961 -15.784   4.282  1.00  0.00     0.221 C 
HETATM    7  C   UNL     1      42.715 -17.062   3.997  1.00  0.00    -0.011 A 
HETATM    8  C   UNL     1      43.601 -17.637   4.925  1.00  0.00     0.009 A 
HETATM    9  C   UNL     1      42.596 -17.666   2.725  1.00  0.00     0.011 A 
HETATM   10  C   UNL     1      44.282 -18.819   4.603  1.00  0.00     0.019 A 
HETATM   11  S   UNL     1      43.946 -16.924   6.520  1.00  0.00    -0.129 SA
HETATM   12  C   UNL     1      44.125 -19.419   3.356  1.00  0.00     0.001 A 
HETATM   13  C   UNL     1      43.288 -18.836   2.413  1.00  0.00     0.001 A 
HETATM   14  C   UNL     1      43.539 -15.196   6.176  1.00  0.00     0.082 C 
HETATM   15  C   UNL     1      42.111 -15.136   5.668  1.00  0.00     0.048 C 
ENDBRANCH   3   6
ENDBRANCH   2   3
BRANCH   2  16
HETATM   16  C   UNL     1      39.932 -15.499   1.533  1.00  0.00     0.135 C 
BRANCH  16  17
HETATM   17  C   UNL     1      41.018 -14.871   0.695  1.00  0.00     0.224 C 
HETATM   18  N   UNL     1      40.761 -14.171  -0.438  1.00  0.00    -0.327 N 
HETATM   19  H   UNL     1      41.625 -13.850  -0.872  1.00  0.00     0.169 HD
HETATM   20  O   UNL     1      42.188 -14.938   1.096  1.00  0.00    -0.273 OA
BRANCH  18  21
HETATM   21  C   UNL     1      39.587 -13.717  -1.072  1.00  0.00     0.034 A 
HETATM   22  C   UNL     1      38.879 -12.561  -0.760  1.00  0.00     0.032 A 
HETATM   23  C   UNL     1      37.766 -12.183  -1.524  1.00  0.00     0.039 A 
HETATM   24  C   UNL     1      37.340 -12.949  -2.609  1.00  0.00     0.068 A 
HETATM   25  C   UNL     1      38.019 -14.122  -2.908  1.00  0.00     0.039 A 
HETATM   26  C   UNL     1      39.131 -14.502  -2.144  1.00  0.00     0.032 A 
BRANCH  24  27
HETATM   27  O   UNL     1      36.262 -12.446  -3.280  1.00  0.00    -0.356 OA
HETATM   28  C   UNL     1      35.952 -11.074  -3.064  1.00  0.00     0.210 C 
ENDBRANCH  24  27
ENDBRANCH  18  21
ENDBRANCH  16  17
ENDBRANCH   2  16
TORSDOF 6
ENDMDL
MODEL 6
REMARK VINA RESULT:      -6.9      4.007      6.964
REMARK  6 active torsions:
REMARK  status: ('A' for Active; 'I' for Inactive)
REMARK    1  A    between atoms: C_2  and  N_3 
REMARK    2  A    between atoms: C_2  and  C_16 
REMARK    3  A    between atoms: N_3  and  C_6 
REMARK    4  A    between atoms: C_16  and  C_17 
REMARK       I    between atoms: C_17  and  N_18 
REMARK    5  A    between atoms: N_18  and  C_19 
REMARK    6  A    between atoms: C_22  and  O_23 
ROOT
HETATM    1  C   UNL     1      43.893 -14.141   6.664  1.00  0.00     0.040 C 
HETATM    2  C   UNL     1      43.387 -12.868   6.002  1.00  0.00     0.191 C 
ENDROOT
BRANCH   2   3
HETATM    3  N   UNL     1      42.644 -11.989   6.992  1.00  0.00    -0.063 N 
HETATM    4  H   UNL     1      41.646 -12.105   6.725  1.00  0.00     0.278 HD
HETATM    5  H   UNL     1      42.706 -12.384   7.938  1.00  0.00     0.278 HD
BRANCH   3   6
HETATM    6  C   UNL     1      42.865 -10.490   7.061  1.00  0.00     0.221 C 
HETATM    7  C   UNL     1      43.350  -9.973   8.396  1.00  0.00    -0.011 A 
HETATM    8  C   UNL     1      42.784  -8.847   9.019  1.00  0.00     0.009 A 
HETATM    9  C   UNL     1      44.466 -10.585   9.010  1.00  0.00     0.011 A 
HETATM   10  C   UNL     1      43.280  -8.405  10.253  1.00  0.00     0.019 A 
HETATM   11  S   UNL     1      41.454  -7.901   8.306  1.00  0.00    -0.129 SA
HETATM   12  C   UNL     1      44.359  -9.044  10.860  1.00  0.00     0.001 A 
HETATM   13  C   UNL     1      44.958 -10.129  10.233  1.00  0.00     0.001 A 
HETATM   14  C   UNL     1      41.699  -8.297   6.560  1.00  0.00     0.082 C 
HETATM   15  C   UNL     1      41.657  -9.804   6.404  1.00  0.00     0.048 C 
ENDBRANCH   3   6
ENDBRANCH   2   3
BRANCH   2  16
HETATM   16  C   UNL     1      42.436 -13.221   4.836  1.00  0.00     0.135 C 
BRANCH  16  17
HETATM   17  C   UNL     1      41.234 -13.994   5.322  1.00  0.00     0.224 C 
HETATM   18  N   UNL     1      41.019 -15.296   5.006  1.00  0.00    -0.327 N 
HETATM   19  H   UNL     1      40.145 -15.628   5.409  1.00  0.00     0.169 HD
HETATM   20  O   UNL     1      40.447 -13.437   6.100  1.00  0.00    -0.273 OA
BRANCH  18  21
HETATM   21  C   UNL     1      41.772 -16.287   4.346  1.00  0.00     0.034 A 
HETATM   22  C   UNL     1      41.697 -16.613   2.996  1.00  0.00     0.032 A 
HETATM   23  C   UNL     1      42.561 -17.571   2.448  1.00  0.00     0.039 A 
HETATM   24  C   UNL     1      43.515 -18.218   3.233  1.00  0.00     0.068 A 
HETATM   25  C   UNL     1      43.576 -17.925   4.589  1.00  0.00     0.039 A 
HETATM   26  C   UNL     1      42.710 -16.968   5.138  1.00  0.00     0.032 A 
BRANCH  24  27
HETATM   27  O   UNL     1      44.308 -19.104   2.562  1.00  0.00    -0.356 OA
HETATM   28  C   UNL     1      43.693 -20.304   2.109  1.00  0.00     0.210 C 
ENDBRANCH  24  27
ENDBRANCH  18  21
ENDBRANCH  16  17
ENDBRANCH   2  16
TORSDOF 6
ENDMDL
MODEL 7
REMARK VINA RESULT:      -6.8      1.721      2.180
REMARK  6 active torsions:
REMARK  status: ('A' for Active; 'I' for Inactive)
REMARK    1  A    between atoms: C_2  and  N_3 
REMARK    2  A    between atoms: C_2  and  C_16 
REMARK    3  A    between atoms: N_3  and  C_6 
REMARK    4  A    between atoms: C_16  and  C_17 
REMARK       I    between atoms: C_17  and  N_18 
REMARK    5  A    between atoms: N_18  and  C_19 
REMARK    6  A    between atoms: C_22  and  O_23 
ROOT
HETATM    1  C   UNL     1      40.027 -13.631   5.800  1.00  0.00     0.040 C 
HETATM    2  C   UNL     1      41.001 -13.385   4.658  1.00  0.00     0.191 C 
ENDROOT
BRANCH   2   3
HETATM    3  N   UNL     1      42.427 -13.265   5.165  1.00  0.00    -0.063 N 
HETATM    4  H   UNL     1      42.885 -12.640   4.472  1.00  0.00     0.278 HD
HETATM    5  H   UNL     1      42.451 -12.737   6.045  1.00  0.00     0.278 HD
BRANCH   3   6
HETATM    6  C   UNL     1      43.344 -14.468   5.280  1.00  0.00     0.221 C 
HETATM    7  C   UNL     1      43.233 -15.470   4.153  1.00  0.00    -0.011 A 
HETATM    8  C   UNL     1      43.139 -16.853   4.382  1.00  0.00     0.009 A 
HETATM    9  C   UNL     1      43.308 -15.017   2.817  1.00  0.00     0.011 A 
HETATM   10  C   UNL     1      43.048 -17.738   3.298  1.00  0.00     0.019 A 
HETATM   11  S   UNL     1      43.156 -17.580   6.008  1.00  0.00    -0.129 SA
HETATM   12  C   UNL     1      43.089 -17.269   1.987  1.00  0.00     0.001 A 
HETATM   13  C   UNL     1      43.228 -15.908   1.746  1.00  0.00     0.001 A 
HETATM   14  C   UNL     1      44.029 -16.281   6.913  1.00  0.00     0.082 C 
HETATM   15  C   UNL     1      43.271 -14.981   6.727  1.00  0.00     0.048 C 
ENDBRANCH   3   6
ENDBRANCH   2   3
BRANCH   2  16
HETATM   16  C   UNL     1      40.625 -12.083   3.915  1.00  0.00     0.135 C 
BRANCH  16  17
HETATM   17  C   UNL     1      41.736 -11.631   2.999  1.00  0.00     0.224 C 
HETATM   18  N   UNL     1      41.704 -11.816   1.656  1.00  0.00    -0.327 N 
HETATM   19  H   UNL     1      42.555 -11.466   1.220  1.00  0.00     0.169 HD
HETATM   20  O   UNL     1      42.687 -11.003   3.487  1.00  0.00    -0.273 OA
BRANCH  18  21
HETATM   21  C   UNL     1      40.732 -12.281   0.748  1.00  0.00     0.034 A 
HETATM   22  C   UNL     1      39.770 -11.508   0.107  1.00  0.00     0.032 A 
HETATM   23  C   UNL     1      38.908 -12.086  -0.837  1.00  0.00     0.039 A 
HETATM   24  C   UNL     1      38.991 -13.440  -1.157  1.00  0.00     0.068 A 
HETATM   25  C   UNL     1      39.926 -14.228  -0.499  1.00  0.00     0.039 A 
HETATM   26  C   UNL     1      40.786 -13.651   0.446  1.00  0.00     0.032 A 
BRANCH  24  27
HETATM   27  O   UNL     1      38.112 -13.860  -2.113  1.00  0.00    -0.356 OA
HETATM   28  C   UNL     1      38.582 -14.838  -3.035  1.00  0.00     0.210 C 
ENDBRANCH  24  27
ENDBRANCH  18  21
ENDBRANCH  16  17
ENDBRANCH   2  16
TORSDOF 6
ENDMDL
MODEL 8
REMARK VINA RESULT:      -6.8      3.682      6.547
REMARK  6 active torsions:
REMARK  status: ('A' for Active; 'I' for Inactive)
REMARK    1  A    between atoms: C_2  and  N_3 
REMARK    2  A    between atoms: C_2  and  C_16 
REMARK    3  A    between atoms: N_3  and  C_6 
REMARK    4  A    between atoms: C_16  and  C_17 
REMARK       I    between atoms: C_17  and  N_18 
REMARK    5  A    between atoms: N_18  and  C_19 
REMARK    6  A    between atoms: C_22  and  O_23 
ROOT
HETATM    1  C   UNL     1      42.714 -12.659   3.520  1.00  0.00     0.040 C 
HETATM    2  C   UNL     1      42.069 -12.043   4.752  1.00  0.00     0.191 C 
ENDROOT
BRANCH   2   3
HETATM    3  N   UNL     1      42.872 -10.859   5.262  1.00  0.00    -0.063 N 
HETATM    4  H   UNL     1      43.640 -10.764   4.567  1.00  0.00     0.278 HD
HETATM    5  H   UNL     1      42.330  -9.992   5.168  1.00  0.00     0.278 HD
BRANCH   3   6
HETATM    6  C   UNL     1      43.559 -10.876   6.614  1.00  0.00     0.221 C 
HETATM    7  C   UNL     1      43.174  -9.749   7.544  1.00  0.00    -0.011 A 
HETATM    8  C   UNL     1      44.127  -9.000   8.256  1.00  0.00     0.009 A 
HETATM    9  C   UNL     1      41.806  -9.482   7.778  1.00  0.00     0.011 A 
HETATM   10  C   UNL     1      43.712  -7.971   9.113  1.00  0.00     0.019 A 
HETATM   11  S   UNL     1      45.879  -9.301   8.157  1.00  0.00    -0.129 SA
HETATM   12  C   UNL     1      42.359  -7.701   9.303  1.00  0.00     0.001 A 
HETATM   13  C   UNL     1      41.405  -8.463   8.642  1.00  0.00     0.001 A 
HETATM   14  C   UNL     1      45.863 -11.038   7.657  1.00  0.00     0.082 C 
HETATM   15  C   UNL     1      45.052 -11.158   6.381  1.00  0.00     0.048 C 
ENDBRANCH   3   6
ENDBRANCH   2   3
BRANCH   2  16
HETATM   16  C   UNL     1      41.966 -13.098   5.877  1.00  0.00     0.135 C 
BRANCH  16  17
HETATM   17  C   UNL     1      40.632 -13.803   5.850  1.00  0.00     0.224 C 
HETATM   18  N   UNL     1      40.429 -14.969   5.187  1.00  0.00    -0.327 N 
HETATM   19  H   UNL     1      39.460 -15.269   5.269  1.00  0.00     0.169 HD
HETATM   20  O   UNL     1      39.701 -13.334   6.520  1.00  0.00    -0.273 OA
BRANCH  18  21
HETATM   21  C   UNL     1      41.268 -15.879   4.515  1.00  0.00     0.034 A 
HETATM   22  C   UNL     1      41.261 -16.150   3.151  1.00  0.00     0.032 A 
HETATM   23  C   UNL     1      42.206 -17.025   2.596  1.00  0.00     0.039 A 
HETATM   24  C   UNL     1      43.172 -17.644   3.389  1.00  0.00     0.068 A 
HETATM   25  C   UNL     1      43.166 -17.407   4.757  1.00  0.00     0.039 A 
HETATM   26  C   UNL     1      42.221 -16.533   5.313  1.00  0.00     0.032 A 
BRANCH  24  27
HETATM   27  O   UNL     1      44.045 -18.445   2.712  1.00  0.00    -0.356 OA
HETATM   28  C   UNL     1      43.642 -19.792   2.490  1.00  0.00     0.210 C 
ENDBRANCH  24  27
ENDBRANCH  18  21
ENDBRANCH  16  17
ENDBRANCH   2  16
TORSDOF 6
ENDMDL
MODEL 9
REMARK VINA RESULT:      -6.7      4.358      7.664
REMARK  6 active torsions:
REMARK  status: ('A' for Active; 'I' for Inactive)
REMARK    1  A    between atoms: C_2  and  N_3 
REMARK    2  A    between atoms: C_2  and  C_16 
REMARK    3  A    between atoms: N_3  and  C_6 
REMARK    4  A    between atoms: C_16  and  C_17 
REMARK       I    between atoms: C_17  and  N_18 
REMARK    5  A    between atoms: N_18  and  C_19 
REMARK    6  A    between atoms: C_22  and  O_23 
ROOT
HETATM    1  C   UNL     1      41.917 -10.793   6.592  1.00  0.00     0.040 C 
HETATM    2  C   UNL     1      43.008 -11.770   6.181  1.00  0.00     0.191 C 
ENDROOT
BRANCH   2   3
HETATM    3  N   UNL     1      42.431 -13.140   5.869  1.00  0.00    -0.063 N 
HETATM    4  H   UNL     1      41.850 -13.360   6.703  1.00  0.00     0.278 HD
HETATM    5  H   UNL     1      41.759 -13.078   5.096  1.00  0.00     0.278 HD
BRANCH   3   6
HETATM    6  C   UNL     1      43.313 -14.357   5.667  1.00  0.00     0.221 C 
HETATM    7  C   UNL     1      43.190 -15.023   4.316  1.00  0.00    -0.011 A 
HETATM    8  C   UNL     1      43.056 -16.414   4.171  1.00  0.00     0.009 A 
HETATM    9  C   UNL     1      43.295 -14.237   3.146  1.00  0.00     0.011 A 
HETATM   10  C   UNL     1      42.956 -16.979   2.892  1.00  0.00     0.019 A 
HETATM   11  S   UNL     1      43.033 -17.544   5.548  1.00  0.00    -0.129 SA
HETATM   12  C   UNL     1      43.025 -16.183   1.751  1.00  0.00     0.001 A 
HETATM   13  C   UNL     1      43.204 -14.812   1.878  1.00  0.00     0.001 A 
HETATM   14  C   UNL     1      43.928 -16.555   6.768  1.00  0.00     0.082 C 
HETATM   15  C   UNL     1      43.209 -15.230   6.927  1.00  0.00     0.048 C 
ENDBRANCH   3   6
ENDBRANCH   2   3
BRANCH   2  16
HETATM   16  C   UNL     1      44.045 -11.914   7.319  1.00  0.00     0.135 C 
BRANCH  16  17
HETATM   17  C   UNL     1      45.240 -11.023   7.089  1.00  0.00     0.224 C 
HETATM   18  N   UNL     1      45.411  -9.840   7.730  1.00  0.00    -0.327 N 
HETATM   19  H   UNL     1      46.264  -9.378   7.420  1.00  0.00     0.169 HD
HETATM   20  O   UNL     1      46.139 -11.422   6.334  1.00  0.00    -0.273 OA
BRANCH  18  21
HETATM   21  C   UNL     1      44.736  -9.179   8.775  1.00  0.00     0.034 A 
HETATM   22  C   UNL     1      43.905  -8.070   8.645  1.00  0.00     0.032 A 
HETATM   23  C   UNL     1      43.230  -7.555   9.761  1.00  0.00     0.039 A 
HETATM   24  C   UNL     1      43.370  -8.134  11.022  1.00  0.00     0.068 A 
HETATM   25  C   UNL     1      44.223  -9.220  11.169  1.00  0.00     0.039 A 
HETATM   26  C   UNL     1      44.900  -9.734  10.054  1.00  0.00     0.032 A 
BRANCH  24  27
HETATM   27  O   UNL     1      42.632  -7.548  12.009  1.00  0.00    -0.356 OA
HETATM   28  C   UNL     1      42.805  -8.053  13.328  1.00  0.00     0.210 C 
ENDBRANCH  24  27
ENDBRANCH  18  21
ENDBRANCH  16  17
ENDBRANCH   2  16
TORSDOF 6
ENDMDL
MODEL 10
REMARK VINA RESULT:      -6.7      4.589      8.000
REMARK  6 active torsions:
REMARK  status: ('A' for Active; 'I' for Inactive)
REMARK    1  A    between atoms: C_2  and  N_3 
REMARK    2  A    between atoms: C_2  and  C_16 
REMARK    3  A    between atoms: N_3  and  C_6 
REMARK    4  A    between atoms: C_16  and  C_17 
REMARK       I    between atoms: C_17  and  N_18 
REMARK    5  A    between atoms: N_18  and  C_19 
REMARK    6  A    between atoms: C_22  and  O_23 
ROOT
HETATM    1  C   UNL     1      41.605 -11.864   6.039  1.00  0.00     0.040 C 
HETATM    2  C   UNL     1      43.085 -11.589   5.824  1.00  0.00     0.191 C 
ENDROOT
BRANCH   2   3
HETATM    3  N   UNL     1      43.665 -12.495   4.753  1.00  0.00    -0.063 N 
HETATM    4  H   UNL     1      43.956 -11.836   4.002  1.00  0.00     0.278 HD
HETATM    5  H   UNL     1      44.542 -12.919   5.078  1.00  0.00     0.278 HD
BRANCH   3   6
HETATM    6  C   UNL     1      42.829 -13.550   4.053  1.00  0.00     0.221 C 
HETATM    7  C   UNL     1      43.121 -14.976   4.462  1.00  0.00    -0.011 A 
HETATM    8  C   UNL     1      43.290 -16.009   3.524  1.00  0.00     0.009 A 
HETATM    9  C   UNL     1      43.146 -15.309   5.835  1.00  0.00     0.011 A 
HETATM   10  C   UNL     1      43.549 -17.316   3.960  1.00  0.00     0.019 A 
HETATM   11  S   UNL     1      43.165 -15.763   1.765  1.00  0.00    -0.129 SA
HETATM   12  C   UNL     1      43.605 -17.618   5.319  1.00  0.00     0.001 A 
HETATM   13  C   UNL     1      43.394 -16.616   6.257  1.00  0.00     0.001 A 
HETATM   14  C   UNL     1      42.118 -14.290   1.736  1.00  0.00     0.082 C 
HETATM   15  C   UNL     1      42.796 -13.209   2.555  1.00  0.00     0.048 C 
ENDBRANCH   3   6
ENDBRANCH   2   3
BRANCH   2  16
HETATM   16  C   UNL     1      43.861 -11.815   7.142  1.00  0.00     0.135 C 
BRANCH  16  17
HETATM   17  C   UNL     1      45.147 -11.027   7.166  1.00  0.00     0.224 C 
HETATM   18  N   UNL     1      45.352  -9.976   7.999  1.00  0.00    -0.327 N 
HETATM   19  H   UNL     1      46.270  -9.564   7.846  1.00  0.00     0.169 HD
HETATM   20  O   UNL     1      46.083 -11.399   6.443  1.00  0.00    -0.273 OA
BRANCH  18  21
HETATM   21  C   UNL     1      44.630  -9.413   9.070  1.00  0.00     0.034 A 
HETATM   22  C   UNL     1      44.515  -9.941  10.352  1.00  0.00     0.032 A 
HETATM   23  C   UNL     1      43.828  -9.237  11.351  1.00  0.00     0.039 A 
HETATM   24  C   UNL     1      43.246  -7.997  11.090  1.00  0.00     0.068 A 
HETATM   25  C   UNL     1      43.325  -7.476   9.806  1.00  0.00     0.039 A 
HETATM   26  C   UNL     1      44.011  -8.181   8.806  1.00  0.00     0.032 A 
BRANCH  24  27
HETATM   27  O   UNL     1      42.636  -7.411  12.162  1.00  0.00    -0.356 OA
HETATM   28  C   UNL     1      43.194  -7.675  13.444  1.00  0.00     0.210 C 
ENDBRANCH  24  27
ENDBRANCH  18  21
ENDBRANCH  16  17
ENDBRANCH   2  16
TORSDOF 6
ENDMDL
