MODEL 1
REMARK VINA RESULT:      -8.5      0.000      0.000
REMARK  10 active torsions:
REMARK  status: ('A' for Active; 'I' for Inactive)
REMARK    1  A    between atoms: O_2  and  C_3 
REMARK    2  A    between atoms: C_3  and  C_4 
REMARK    3  A    between atoms: C_11  and  N_12 
REMARK    4  A    between atoms: N_12  and  C_13 
REMARK    5  A    between atoms: C_13  and  N_14 
REMARK    6  A    between atoms: N_14  and  N_15 
REMARK       I    between atoms: N_15  and  C_16 
REMARK    7  A    between atoms: C_16  and  C_17 
REMARK    8  A    between atoms: C_17  and  S_18 
REMARK    9  A    between atoms: S_18  and  C_19 
REMARK   10  A    between atoms: C_19  and  C_20 
ROOT
HETATM    1  C   UNL     1      40.201 -12.353   5.705  1.00  0.00     0.191 C 
HETATM    2  S   UNL     1      39.565 -11.068   6.577  1.00  0.00    -0.039 SA
ENDROOT
BRANCH   1   3
HETATM    3  N   UNL     1      39.410 -12.927   4.750  1.00  0.00    -0.332 N 
HETATM    4  H   UNL     1      38.986 -13.792   5.070  1.00  0.00     0.168 HD
BRANCH   3   5
HETATM    5  C   UNL     1      39.243 -12.640   3.376  1.00  0.00     0.035 A 
HETATM    6  C   UNL     1      39.740 -13.594   2.476  1.00  0.00     0.049 A 
HETATM    7  C   UNL     1      39.688 -13.344   1.086  1.00  0.00     0.020 A 
HETATM    8  S   UNL     1      40.264 -14.368  -0.163  1.00  0.00    -0.082 SA
HETATM    9  C   UNL     1      39.140 -12.171   0.570  1.00  0.00     0.004 A 
HETATM   10  C   UNL     1      39.839 -13.264  -1.404  1.00  0.00     0.103 A 
HETATM   11  C   UNL     1      39.225 -12.147  -0.869  1.00  0.00     0.068 A 
HETATM   12 CL   UNL     1      38.624 -10.808  -1.770  1.00  0.00    -0.082 Cl
HETATM   13  C   UNL     1      38.636 -11.227   1.498  1.00  0.00     0.017 A 
HETATM   14  C   UNL     1      38.707 -11.460   2.879  1.00  0.00     0.030 A 
BRANCH  10  15
HETATM   15  C   UNL     1      40.131 -13.543  -2.802  1.00  0.00     0.301 C 
HETATM   16  O   UNL     1      41.250 -13.655  -3.288  1.00  0.00    -0.259 OA
BRANCH  15  17
HETATM   17  O   UNL     1      38.984 -13.688  -3.534  1.00  0.00    -0.322 OA
HETATM   18  C   UNL     1      38.278 -14.905  -3.286  1.00  0.00     0.213 C 
ENDBRANCH  15  17
ENDBRANCH  10  15
ENDBRANCH   3   5
ENDBRANCH   1   3
BRANCH   1  19
HETATM   19  N   UNL     1      41.457 -12.861   5.882  1.00  0.00    -0.274 N 
HETATM   20  H   UNL     1      42.268 -12.257   5.742  1.00  0.00     0.189 HD
BRANCH  19  21
HETATM   21  N   UNL     1      41.694 -13.998   6.671  1.00  0.00    -0.267 N 
HETATM   22  C   UNL     1      43.016 -14.298   6.947  1.00  0.00     0.245 C 
HETATM   23  O   UNL     1      43.932 -13.493   6.778  1.00  0.00    -0.271 OA
HETATM   24  H   UNL     1      41.017 -14.753   6.564  1.00  0.00     0.190 HD
BRANCH  22  25
HETATM   25  C   UNL     1      43.236 -15.707   7.463  1.00  0.00     0.178 C 
BRANCH  25  26
HETATM   26  S   UNL     1      42.563 -16.889   6.255  1.00  0.00    -0.155 SA
BRANCH  26  27
HETATM   27  C   UNL     1      44.100 -17.289   5.371  1.00  0.00     0.114 C 
BRANCH  27  28
HETATM   28  C   UNL     1      43.879 -18.379   4.350  1.00  0.00    -0.032 A 
HETATM   29  C   UNL     1      43.454 -18.133   3.033  1.00  0.00     0.018 A 
HETATM   30 BR   UNL     1      43.085 -16.382   2.391  1.00  0.00    -0.051 Br
HETATM   31  C   UNL     1      43.288 -19.189   2.128  1.00  0.00     0.019 A 
HETATM   32  C   UNL     1      43.548 -20.500   2.522  1.00  0.00     0.001 A 
HETATM   33  C   UNL     1      43.979 -20.762   3.819  1.00  0.00     0.001 A 
HETATM   34  C   UNL     1      44.145 -19.711   4.723  1.00  0.00     0.009 A 
ENDBRANCH  27  28
ENDBRANCH  26  27
ENDBRANCH  25  26
ENDBRANCH  22  25
ENDBRANCH  19  21
ENDBRANCH   1  19
TORSDOF 10
ENDMDL
MODEL 2
REMARK VINA RESULT:      -8.2      1.824      2.130
REMARK  10 active torsions:
REMARK  status: ('A' for Active; 'I' for Inactive)
REMARK    1  A    between atoms: O_2  and  C_3 
REMARK    2  A    between atoms: C_3  and  C_4 
REMARK    3  A    between atoms: C_11  and  N_12 
REMARK    4  A    between atoms: N_12  and  C_13 
REMARK    5  A    between atoms: C_13  and  N_14 
REMARK    6  A    between atoms: N_14  and  N_15 
REMARK       I    between atoms: N_15  and  C_16 
REMARK    7  A    between atoms: C_16  and  C_17 
REMARK    8  A    between atoms: C_17  and  S_18 
REMARK    9  A    between atoms: S_18  and  C_19 
REMARK   10  A    between atoms: C_19  and  C_20 
ROOT
HETATM    1  C   UNL     1      40.549 -13.392   5.713  1.00  0.00     0.191 C 
HETATM    2  S   UNL     1      39.307 -12.279   5.531  1.00  0.00    -0.039 SA
ENDROOT
BRANCH   1   3
HETATM    3  N   UNL     1      40.607 -14.431   4.826  1.00  0.00    -0.332 N 
HETATM    4  H   UNL     1      40.955 -15.283   5.254  1.00  0.00     0.168 HD
BRANCH   3   5
HETATM    5  C   UNL     1      40.459 -14.473   3.421  1.00  0.00     0.035 A 
HETATM    6  C   UNL     1      40.904 -13.346   2.714  1.00  0.00     0.049 A 
HETATM    7  C   UNL     1      40.716 -13.273   1.316  1.00  0.00     0.020 A 
HETATM    8  S   UNL     1      41.164 -11.977   0.286  1.00  0.00    -0.082 SA
HETATM    9  C   UNL     1      40.106 -14.302   0.601  1.00  0.00     0.004 A 
HETATM   10  C   UNL     1      40.523 -12.733  -1.113  1.00  0.00     0.103 A 
HETATM   11  C   UNL     1      40.013 -13.979  -0.801  1.00  0.00     0.068 A 
HETATM   12 CL   UNL     1      39.297 -15.076  -1.918  1.00  0.00    -0.082 Cl
HETATM   13  C   UNL     1      39.672 -15.434   1.335  1.00  0.00     0.017 A 
HETATM   14  C   UNL     1      39.836 -15.501   2.726  1.00  0.00     0.030 A 
BRANCH  10  15
HETATM   15  C   UNL     1      40.547 -12.075  -2.411  1.00  0.00     0.301 C 
HETATM   16  O   UNL     1      41.033 -12.537  -3.436  1.00  0.00    -0.259 OA
BRANCH  15  17
HETATM   17  O   UNL     1      39.933 -10.853  -2.364  1.00  0.00    -0.322 OA
HETATM   18  C   UNL     1      38.971 -10.638  -3.398  1.00  0.00     0.213 C 
ENDBRANCH  15  17
ENDBRANCH  10  15
ENDBRANCH   3   5
ENDBRANCH   1   3
BRANCH   1  19
HETATM   19  N   UNL     1      41.509 -13.329   6.682  1.00  0.00    -0.274 N 
HETATM   20  H   UNL     1      41.296 -12.875   7.572  1.00  0.00     0.189 HD
BRANCH  19  21
HETATM   21  N   UNL     1      42.589 -14.225   6.718  1.00  0.00    -0.267 N 
HETATM   22  C   UNL     1      42.330 -15.490   7.217  1.00  0.00     0.245 C 
HETATM   23  O   UNL     1      41.189 -15.930   7.358  1.00  0.00    -0.271 OA
HETATM   24  H   UNL     1      43.503 -13.802   6.867  1.00  0.00     0.190 HD
BRANCH  22  25
HETATM   25  C   UNL     1      43.573 -16.277   7.584  1.00  0.00     0.178 C 
BRANCH  25  26
HETATM   26  S   UNL     1      43.483 -17.919   6.806  1.00  0.00    -0.155 SA
BRANCH  26  27
HETATM   27  C   UNL     1      44.279 -17.520   5.222  1.00  0.00     0.114 C 
BRANCH  27  28
HETATM   28  C   UNL     1      43.997 -18.579   4.183  1.00  0.00    -0.032 A 
HETATM   29  C   UNL     1      43.589 -18.288   2.870  1.00  0.00     0.018 A 
HETATM   30 BR   UNL     1      43.323 -16.508   2.257  1.00  0.00    -0.051 Br
HETATM   31  C   UNL     1      43.363 -19.317   1.948  1.00  0.00     0.019 A 
HETATM   32  C   UNL     1      43.547 -20.648   2.321  1.00  0.00     0.001 A 
HETATM   33  C   UNL     1      43.960 -20.954   3.614  1.00  0.00     0.001 A 
HETATM   34  C   UNL     1      44.186 -19.930   4.535  1.00  0.00     0.009 A 
ENDBRANCH  27  28
ENDBRANCH  26  27
ENDBRANCH  25  26
ENDBRANCH  22  25
ENDBRANCH  19  21
ENDBRANCH   1  19
TORSDOF 10
ENDMDL
MODEL 3
REMARK VINA RESULT:      -8.1      3.808      7.530
REMARK  10 active torsions:
REMARK  status: ('A' for Active; 'I' for Inactive)
REMARK    1  A    between atoms: O_2  and  C_3 
REMARK    2  A    between atoms: C_3  and  C_4 
REMARK    3  A    between atoms: C_11  and  N_12 
REMARK    4  A    between atoms: N_12  and  C_13 
REMARK    5  A    between atoms: C_13  and  N_14 
REMARK    6  A    between atoms: N_14  and  N_15 
REMARK       I    between atoms: N_15  and  C_16 
REMARK    7  A    between atoms: C_16  and  C_17 
REMARK    8  A    between atoms: C_17  and  S_18 
REMARK    9  A    between atoms: S_18  and  C_19 
REMARK   10  A    between atoms: C_19  and  C_20 
ROOT
HETATM    1  C   UNL     1      38.899 -12.226   3.425  1.00  0.00     0.191 C 
HETATM    2  S   UNL     1      38.700 -10.651   2.886  1.00  0.00    -0.039 SA
ENDROOT
BRANCH   1   3
HETATM    3  N   UNL     1      39.396 -12.410   4.685  1.00  0.00    -0.332 N 
HETATM    4  H   UNL     1      38.672 -12.654   5.353  1.00  0.00     0.168 HD
BRANCH   3   5
HETATM    5  C   UNL     1      40.666 -12.135   5.240  1.00  0.00     0.035 A 
HETATM    6  C   UNL     1      40.724 -11.098   6.183  1.00  0.00     0.049 A 
HETATM    7  C   UNL     1      41.968 -10.704   6.722  1.00  0.00     0.020 A 
HETATM    8  S   UNL     1      42.245  -9.449   7.858  1.00  0.00    -0.082 SA
HETATM    9  C   UNL     1      43.159 -11.328   6.354  1.00  0.00     0.004 A 
HETATM   10  C   UNL     1      43.944  -9.680   7.853  1.00  0.00     0.103 A 
HETATM   11  C   UNL     1      44.288 -10.733   7.026  1.00  0.00     0.068 A 
HETATM   12 CL   UNL     1      45.887 -11.310   6.752  1.00  0.00    -0.082 Cl
HETATM   13  C   UNL     1      43.076 -12.379   5.408  1.00  0.00     0.017 A 
HETATM   14  C   UNL     1      41.846 -12.758   4.853  1.00  0.00     0.030 A 
BRANCH  10  15
HETATM   15  C   UNL     1      44.828  -8.831   8.636  1.00  0.00     0.301 C 
HETATM   16  O   UNL     1      45.712  -8.112   8.185  1.00  0.00    -0.259 OA
BRANCH  15  17
HETATM   17  O   UNL     1      44.545  -8.911   9.973  1.00  0.00    -0.322 OA
HETATM   18  C   UNL     1      44.771 -10.200  10.545  1.00  0.00     0.213 C 
ENDBRANCH  15  17
ENDBRANCH  10  15
ENDBRANCH   3   5
ENDBRANCH   1   3
BRANCH   1  19
HETATM   19  N   UNL     1      38.593 -13.339   2.694  1.00  0.00    -0.274 N 
HETATM   20  H   UNL     1      37.625 -13.660   2.648  1.00  0.00     0.189 HD
BRANCH  19  21
HETATM   21  N   UNL     1      39.419 -13.793   1.652  1.00  0.00    -0.267 N 
HETATM   22  C   UNL     1      40.046 -15.012   1.843  1.00  0.00     0.245 C 
HETATM   23  O   UNL     1      39.706 -15.807   2.719  1.00  0.00    -0.271 OA
HETATM   24  H   UNL     1      39.886 -13.063   1.116  1.00  0.00     0.190 HD
BRANCH  22  25
HETATM   25  C   UNL     1      41.194 -15.272   0.887  1.00  0.00     0.178 C 
BRANCH  25  26
HETATM   26  S   UNL     1      42.764 -14.956   1.751  1.00  0.00    -0.155 SA
BRANCH  26  27
HETATM   27  C   UNL     1      43.352 -16.671   1.896  1.00  0.00     0.114 C 
BRANCH  27  28
HETATM   28  C   UNL     1      43.486 -17.086   3.341  1.00  0.00    -0.032 A 
HETATM   29  C   UNL     1      43.677 -18.416   3.751  1.00  0.00     0.018 A 
HETATM   30 BR   UNL     1      43.766 -19.860   2.518  1.00  0.00    -0.051 Br
HETATM   31  C   UNL     1      43.816 -18.731   5.109  1.00  0.00     0.019 A 
HETATM   32  C   UNL     1      43.771 -17.725   6.072  1.00  0.00     0.001 A 
HETATM   33  C   UNL     1      43.592 -16.401   5.684  1.00  0.00     0.001 A 
HETATM   34  C   UNL     1      43.454 -16.084   4.332  1.00  0.00     0.009 A 
ENDBRANCH  27  28
ENDBRANCH  26  27
ENDBRANCH  25  26
ENDBRANCH  22  25
ENDBRANCH  19  21
ENDBRANCH   1  19
TORSDOF 10
ENDMDL
MODEL 4
REMARK VINA RESULT:      -7.9      6.299      9.842
REMARK  10 active torsions:
REMARK  status: ('A' for Active; 'I' for Inactive)
REMARK    1  A    between atoms: O_2  and  C_3 
REMARK    2  A    between atoms: C_3  and  C_4 
REMARK    3  A    between atoms: C_11  and  N_12 
REMARK    4  A    between atoms: N_12  and  C_13 
REMARK    5  A    between atoms: C_13  and  N_14 
REMARK    6  A    between atoms: N_14  and  N_15 
REMARK       I    between atoms: N_15  and  C_16 
REMARK    7  A    between atoms: C_16  and  C_17 
REMARK    8  A    between atoms: C_17  and  S_18 
REMARK    9  A    between atoms: S_18  and  C_19 
REMARK   10  A    between atoms: C_19  and  C_20 
ROOT
HETATM    1  C   UNL     1      44.170 -11.008   7.339  1.00  0.00     0.191 C 
HETATM    2  S   UNL     1      45.747 -11.171   6.791  1.00  0.00    -0.039 SA
ENDROOT
BRANCH   1   3
HETATM    3  N   UNL     1      43.796  -9.796   7.848  1.00  0.00    -0.332 N 
HETATM    4  H   UNL     1      43.934  -9.040   7.184  1.00  0.00     0.168 HD
BRANCH   3   5
HETATM    5  C   UNL     1      43.449  -9.398   9.159  1.00  0.00     0.035 A 
HETATM    6  C   UNL     1      42.125  -8.976   9.352  1.00  0.00     0.049 A 
HETATM    7  C   UNL     1      41.720  -8.482  10.612  1.00  0.00     0.020 A 
HETATM    8  S   UNL     1      40.164  -7.898  11.034  1.00  0.00    -0.082 SA
HETATM    9  C   UNL     1      42.600  -8.410  11.690  1.00  0.00     0.004 A 
HETATM   10  C   UNL     1      40.634  -7.502  12.634  1.00  0.00     0.103 A 
HETATM   11  C   UNL     1      41.953  -7.853  12.853  1.00  0.00     0.068 A 
HETATM   12 CL   UNL     1      42.812  -7.647  14.331  1.00  0.00    -0.082 Cl
HETATM   13  C   UNL     1      43.929  -8.850  11.475  1.00  0.00     0.017 A 
HETATM   14  C   UNL     1      44.342  -9.319  10.219  1.00  0.00     0.030 A 
BRANCH  10  15
HETATM   15  C   UNL     1      39.709  -6.875  13.566  1.00  0.00     0.301 C 
HETATM   16  O   UNL     1      40.020  -6.139  14.494  1.00  0.00    -0.259 OA
BRANCH  15  17
HETATM   17  O   UNL     1      38.411  -7.193  13.271  1.00  0.00    -0.322 OA
HETATM   18  C   UNL     1      37.536  -6.067  13.178  1.00  0.00     0.213 C 
ENDBRANCH  15  17
ENDBRANCH  10  15
ENDBRANCH   3   5
ENDBRANCH   1   3
BRANCH   1  19
HETATM   19  N   UNL     1      43.232 -12.001   7.305  1.00  0.00    -0.274 N 
HETATM   20  H   UNL     1      42.329 -11.825   6.865  1.00  0.00     0.189 HD
BRANCH  19  21
HETATM   21  N   UNL     1      43.582 -13.356   7.419  1.00  0.00    -0.267 N 
HETATM   22  C   UNL     1      42.629 -14.279   7.024  1.00  0.00     0.245 C 
HETATM   23  O   UNL     1      41.647 -13.975   6.347  1.00  0.00    -0.271 OA
HETATM   24  H   UNL     1      44.215 -13.582   8.185  1.00  0.00     0.190 HD
BRANCH  22  25
HETATM   25  C   UNL     1      42.895 -15.690   7.510  1.00  0.00     0.178 C 
BRANCH  25  26
HETATM   26  S   UNL     1      42.285 -16.868   6.265  1.00  0.00    -0.155 SA
BRANCH  26  27
HETATM   27  C   UNL     1      43.794 -17.021   5.263  1.00  0.00     0.114 C 
BRANCH  27  28
HETATM   28  C   UNL     1      43.751 -18.251   4.388  1.00  0.00    -0.032 A 
HETATM   29  C   UNL     1      43.469 -18.214   3.012  1.00  0.00     0.018 A 
HETATM   30 BR   UNL     1      43.085 -16.594   2.093  1.00  0.00    -0.051 Br
HETATM   31  C   UNL     1      43.465 -19.391   2.253  1.00  0.00     0.019 A 
HETATM   32  C   UNL     1      43.747 -20.616   2.854  1.00  0.00     0.001 A 
HETATM   33  C   UNL     1      44.037 -20.671   4.214  1.00  0.00     0.001 A 
HETATM   34  C   UNL     1      44.042 -19.499   4.973  1.00  0.00     0.009 A 
ENDBRANCH  27  28
ENDBRANCH  26  27
ENDBRANCH  25  26
ENDBRANCH  22  25
ENDBRANCH  19  21
ENDBRANCH   1  19
TORSDOF 10
ENDMDL
MODEL 5
REMARK VINA RESULT:      -7.8      3.938      6.887
REMARK  10 active torsions:
REMARK  status: ('A' for Active; 'I' for Inactive)
REMARK    1  A    between atoms: O_2  and  C_3 
REMARK    2  A    between atoms: C_3  and  C_4 
REMARK    3  A    between atoms: C_11  and  N_12 
REMARK    4  A    between atoms: N_12  and  C_13 
REMARK    5  A    between atoms: C_13  and  N_14 
REMARK    6  A    between atoms: N_14  and  N_15 
REMARK       I    between atoms: N_15  and  C_16 
REMARK    7  A    between atoms: C_16  and  C_17 
REMARK    8  A    between atoms: C_17  and  S_18 
REMARK    9  A    between atoms: S_18  and  C_19 
REMARK   10  A    between atoms: C_19  and  C_20 
ROOT
HETATM    1  C   UNL     1      40.768 -13.446   1.908  1.00  0.00     0.191 C 
HETATM    2  S   UNL     1      40.587 -13.216   0.256  1.00  0.00    -0.039 SA
ENDROOT
BRANCH   1   3
HETATM    3  N   UNL     1      41.929 -13.015   2.487  1.00  0.00    -0.332 N 
HETATM    4  H   UNL     1      42.735 -13.549   2.177  1.00  0.00     0.168 HD
BRANCH   3   5
HETATM    5  C   UNL     1      42.168 -12.119   3.553  1.00  0.00     0.035 A 
HETATM    6  C   UNL     1      43.127 -12.514   4.496  1.00  0.00     0.049 A 
HETATM    7  C   UNL     1      43.365 -11.714   5.636  1.00  0.00     0.020 A 
HETATM    8  S   UNL     1      44.470 -12.040   6.907  1.00  0.00    -0.082 SA
HETATM    9  C   UNL     1      42.677 -10.521   5.854  1.00  0.00     0.004 A 
HETATM   10  C   UNL     1      44.031 -10.635   7.786  1.00  0.00     0.103 A 
HETATM   11  C   UNL     1      43.083  -9.906   7.093  1.00  0.00     0.068 A 
HETATM   12 CL   UNL     1      42.389  -8.418   7.612  1.00  0.00    -0.082 Cl
HETATM   13  C   UNL     1      41.720 -10.137   4.883  1.00  0.00     0.017 A 
HETATM   14  C   UNL     1      41.464 -10.940   3.762  1.00  0.00     0.030 A 
BRANCH  10  15
HETATM   15  C   UNL     1      44.621 -10.334   9.082  1.00  0.00     0.301 C 
HETATM   16  O   UNL     1      44.477 -10.997  10.102  1.00  0.00    -0.259 OA
BRANCH  15  17
HETATM   17  O   UNL     1      45.393  -9.205   9.030  1.00  0.00    -0.322 OA
HETATM   18  C   UNL     1      46.433  -9.248   8.052  1.00  0.00     0.213 C 
ENDBRANCH  15  17
ENDBRANCH  10  15
ENDBRANCH   3   5
ENDBRANCH   1   3
BRANCH   1  19
HETATM   19  N   UNL     1      39.833 -14.029   2.715  1.00  0.00    -0.274 N 
HETATM   20  H   UNL     1      38.852 -13.762   2.622  1.00  0.00     0.189 HD
BRANCH  19  21
HETATM   21  N   UNL     1      40.053 -15.273   3.329  1.00  0.00    -0.267 N 
HETATM   22  C   UNL     1      40.467 -15.249   4.649  1.00  0.00     0.245 C 
HETATM   23  O   UNL     1      40.380 -14.246   5.357  1.00  0.00    -0.271 OA
HETATM   24  H   UNL     1      40.382 -16.013   2.710  1.00  0.00     0.190 HD
BRANCH  22  25
HETATM   25  C   UNL     1      41.046 -16.562   5.140  1.00  0.00     0.178 C 
BRANCH  25  26
HETATM   26  S   UNL     1      42.469 -16.212   6.218  1.00  0.00    -0.155 SA
BRANCH  26  27
HETATM   27  C   UNL     1      43.797 -16.375   4.987  1.00  0.00     0.114 C 
BRANCH  27  28
HETATM   28  C   UNL     1      43.770 -17.731   4.325  1.00  0.00    -0.032 A 
HETATM   29  C   UNL     1      43.505 -17.921   2.958  1.00  0.00     0.018 A 
HETATM   30 BR   UNL     1      43.128 -16.475   1.782  1.00  0.00    -0.051 Br
HETATM   31  C   UNL     1      43.515 -19.205   2.401  1.00  0.00     0.019 A 
HETATM   32  C   UNL     1      43.794 -20.315   3.197  1.00  0.00     0.001 A 
HETATM   33  C   UNL     1      44.067 -20.145   4.551  1.00  0.00     0.001 A 
HETATM   34  C   UNL     1      44.058 -18.866   5.108  1.00  0.00     0.009 A 
ENDBRANCH  27  28
ENDBRANCH  26  27
ENDBRANCH  25  26
ENDBRANCH  22  25
ENDBRANCH  19  21
ENDBRANCH   1  19
TORSDOF 10
ENDMDL
MODEL 6
REMARK VINA RESULT:      -7.8      4.545      7.631
REMARK  10 active torsions:
REMARK  status: ('A' for Active; 'I' for Inactive)
REMARK    1  A    between atoms: O_2  and  C_3 
REMARK    2  A    between atoms: C_3  and  C_4 
REMARK    3  A    between atoms: C_11  and  N_12 
REMARK    4  A    between atoms: N_12  and  C_13 
REMARK    5  A    between atoms: C_13  and  N_14 
REMARK    6  A    between atoms: N_14  and  N_15 
REMARK       I    between atoms: N_15  and  C_16 
REMARK    7  A    between atoms: C_16  and  C_17 
REMARK    8  A    between atoms: C_17  and  S_18 
REMARK    9  A    between atoms: S_18  and  C_19 
REMARK   10  A    between atoms: C_19  and  C_20 
ROOT
HETATM    1  C   UNL     1      41.082 -12.842   3.366  1.00  0.00     0.191 C 
HETATM    2  S   UNL     1      40.851 -12.059   1.900  1.00  0.00    -0.039 SA
ENDROOT
BRANCH   1   3
HETATM    3  N   UNL     1      42.330 -12.795   3.922  1.00  0.00    -0.332 N 
HETATM    4  H   UNL     1      42.985 -13.410   3.449  1.00  0.00     0.168 HD
BRANCH   3   5
HETATM    5  C   UNL     1      42.801 -12.212   5.120  1.00  0.00     0.035 A 
HETATM    6  C   UNL     1      42.267 -10.959   5.455  1.00  0.00     0.049 A 
HETATM    7  C   UNL     1      42.747 -10.271   6.591  1.00  0.00     0.020 A 
HETATM    8  S   UNL     1      42.243  -8.728   7.146  1.00  0.00    -0.082 SA
HETATM    9  C   UNL     1      43.738 -10.807   7.411  1.00  0.00     0.004 A 
HETATM   10  C   UNL     1      43.353  -8.723   8.453  1.00  0.00     0.103 A 
HETATM   11  C   UNL     1      44.067  -9.905   8.487  1.00  0.00     0.068 A 
HETATM   12 CL   UNL     1      45.268 -10.316   9.652  1.00  0.00    -0.082 Cl
HETATM   13  C   UNL     1      44.256 -12.077   7.059  1.00  0.00     0.017 A 
HETATM   14  C   UNL     1      43.800 -12.754   5.918  1.00  0.00     0.030 A 
BRANCH  10  15
HETATM   15  C   UNL     1      43.466  -7.581   9.349  1.00  0.00     0.301 C 
HETATM   16  O   UNL     1      43.784  -6.445   9.020  1.00  0.00    -0.259 OA
BRANCH  15  17
HETATM   17  O   UNL     1      43.151  -7.922  10.636  1.00  0.00    -0.322 OA
HETATM   18  C   UNL     1      42.276  -7.002  11.291  1.00  0.00     0.213 C 
ENDBRANCH  15  17
ENDBRANCH  10  15
ENDBRANCH   3   5
ENDBRANCH   1   3
BRANCH   1  19
HETATM   19  N   UNL     1      40.107 -13.517   4.045  1.00  0.00    -0.274 N 
HETATM   20  H   UNL     1      39.144 -13.182   4.007  1.00  0.00     0.189 HD
BRANCH  19  21
HETATM   21  N   UNL     1      40.252 -14.867   4.403  1.00  0.00    -0.267 N 
HETATM   22  C   UNL     1      40.428 -15.138   5.749  1.00  0.00     0.245 C 
HETATM   23  O   UNL     1      40.192 -14.312   6.631  1.00  0.00    -0.271 OA
HETATM   24  H   UNL     1      40.704 -15.458   3.707  1.00  0.00     0.190 HD
BRANCH  22  25
HETATM   25  C   UNL     1      40.949 -16.532   6.037  1.00  0.00     0.178 C 
BRANCH  25  26
HETATM   26  S   UNL     1      42.633 -16.405   6.715  1.00  0.00    -0.155 SA
BRANCH  26  27
HETATM   27  C   UNL     1      43.551 -16.248   5.154  1.00  0.00     0.114 C 
BRANCH  27  28
HETATM   28  C   UNL     1      43.607 -17.564   4.415  1.00  0.00    -0.032 A 
HETATM   29  C   UNL     1      43.321 -17.697   3.046  1.00  0.00     0.018 A 
HETATM   30 BR   UNL     1      42.803 -16.222   1.964  1.00  0.00    -0.051 Br
HETATM   31  C   UNL     1      43.413 -18.945   2.417  1.00  0.00     0.019 A 
HETATM   32  C   UNL     1      43.795 -20.072   3.141  1.00  0.00     0.001 A 
HETATM   33  C   UNL     1      44.091 -19.957   4.496  1.00  0.00     0.001 A 
HETATM   34  C   UNL     1      44.001 -18.715   5.126  1.00  0.00     0.009 A 
ENDBRANCH  27  28
ENDBRANCH  26  27
ENDBRANCH  25  26
ENDBRANCH  22  25
ENDBRANCH  19  21
ENDBRANCH   1  19
TORSDOF 10
ENDMDL
MODEL 7
REMARK VINA RESULT:      -7.7      5.991      9.238
REMARK  10 active torsions:
REMARK  status: ('A' for Active; 'I' for Inactive)
REMARK    1  A    between atoms: O_2  and  C_3 
REMARK    2  A    between atoms: C_3  and  C_4 
REMARK    3  A    between atoms: C_11  and  N_12 
REMARK    4  A    between atoms: N_12  and  C_13 
REMARK    5  A    between atoms: C_13  and  N_14 
REMARK    6  A    between atoms: N_14  and  N_15 
REMARK       I    between atoms: N_15  and  C_16 
REMARK    7  A    between atoms: C_16  and  C_17 
REMARK    8  A    between atoms: C_17  and  S_18 
REMARK    9  A    between atoms: S_18  and  C_19 
REMARK   10  A    between atoms: C_19  and  C_20 
ROOT
HETATM    1  C   UNL     1      41.534 -10.621   6.723  1.00  0.00     0.191 C 
HETATM    2  S   UNL     1      40.462  -9.330   6.735  1.00  0.00    -0.039 SA
ENDROOT
BRANCH   1   3
HETATM    3  N   UNL     1      41.046 -11.850   6.378  1.00  0.00    -0.332 N 
HETATM    4  H   UNL     1      40.328 -12.173   7.019  1.00  0.00     0.168 HD
BRANCH   3   5
HETATM    5  C   UNL     1      41.489 -12.802   5.433  1.00  0.00     0.035 A 
HETATM    6  C   UNL     1      41.736 -14.094   5.919  1.00  0.00     0.049 A 
HETATM    7  C   UNL     1      42.261 -15.083   5.057  1.00  0.00     0.020 A 
HETATM    8  S   UNL     1      42.653 -16.701   5.468  1.00  0.00    -0.082 SA
HETATM    9  C   UNL     1      42.536 -14.818   3.716  1.00  0.00     0.004 A 
HETATM   10  C   UNL     1      43.230 -17.069   3.896  1.00  0.00     0.103 A 
HETATM   11  C   UNL     1      43.083 -15.979   3.059  1.00  0.00     0.068 A 
HETATM   12 CL   UNL     1      43.517 -15.931   1.393  1.00  0.00    -0.082 Cl
HETATM   13  C   UNL     1      42.271 -13.509   3.245  1.00  0.00     0.017 A 
HETATM   14  C   UNL     1      41.771 -12.518   4.103  1.00  0.00     0.030 A 
BRANCH  10  15
HETATM   15  C   UNL     1      43.789 -18.374   3.578  1.00  0.00     0.301 C 
HETATM   16  O   UNL     1      44.747 -18.895   4.138  1.00  0.00    -0.259 OA
BRANCH  15  17
HETATM   17  O   UNL     1      43.097 -18.982   2.567  1.00  0.00    -0.322 OA
HETATM   18  C   UNL     1      43.661 -20.220   2.130  1.00  0.00     0.213 C 
ENDBRANCH  15  17
ENDBRANCH  10  15
ENDBRANCH   3   5
ENDBRANCH   1   3
BRANCH   1  19
HETATM   19  N   UNL     1      42.862 -10.527   7.030  1.00  0.00    -0.274 N 
HETATM   20  H   UNL     1      43.485 -10.006   6.411  1.00  0.00     0.189 HD
BRANCH  19  21
HETATM   21  N   UNL     1      43.335 -10.698   8.341  1.00  0.00    -0.267 N 
HETATM   22  C   UNL     1      44.058  -9.649   8.882  1.00  0.00     0.245 C 
HETATM   23  O   UNL     1      44.062  -8.519   8.393  1.00  0.00    -0.271 OA
HETATM   24  H   UNL     1      43.565 -11.656   8.601  1.00  0.00     0.190 HD
BRANCH  22  25
HETATM   25  C   UNL     1      44.854 -10.019  10.119  1.00  0.00     0.178 C 
BRANCH  25  26
HETATM   26  S   UNL     1      43.699 -10.496  11.442  1.00  0.00    -0.155 SA
BRANCH  26  27
HETATM   27  C   UNL     1      42.629  -9.026  11.419  1.00  0.00     0.114 C 
BRANCH  27  28
HETATM   28  C   UNL     1      42.345  -8.531  12.817  1.00  0.00    -0.032 A 
HETATM   29  C   UNL     1      41.261  -8.977  13.592  1.00  0.00     0.018 A 
HETATM   30 BR   UNL     1      40.004 -10.251  12.950  1.00  0.00    -0.051 Br
HETATM   31  C   UNL     1      41.066  -8.493  14.891  1.00  0.00     0.019 A 
HETATM   32  C   UNL     1      41.951  -7.564  15.436  1.00  0.00     0.001 A 
HETATM   33  C   UNL     1      43.035  -7.118  14.686  1.00  0.00     0.001 A 
HETATM   34  C   UNL     1      43.232  -7.599  13.391  1.00  0.00     0.009 A 
ENDBRANCH  27  28
ENDBRANCH  26  27
ENDBRANCH  25  26
ENDBRANCH  22  25
ENDBRANCH  19  21
ENDBRANCH   1  19
TORSDOF 10
ENDMDL
MODEL 8
REMARK VINA RESULT:      -7.7      3.934      7.369
REMARK  10 active torsions:
REMARK  status: ('A' for Active; 'I' for Inactive)
REMARK    1  A    between atoms: O_2  and  C_3 
REMARK    2  A    between atoms: C_3  and  C_4 
REMARK    3  A    between atoms: C_11  and  N_12 
REMARK    4  A    between atoms: N_12  and  C_13 
REMARK    5  A    between atoms: C_13  and  N_14 
REMARK    6  A    between atoms: N_14  and  N_15 
REMARK       I    between atoms: N_15  and  C_16 
REMARK    7  A    between atoms: C_16  and  C_17 
REMARK    8  A    between atoms: C_17  and  S_18 
REMARK    9  A    between atoms: S_18  and  C_19 
REMARK   10  A    between atoms: C_19  and  C_20 
ROOT
HETATM    1  C   UNL     1      40.108 -11.127   1.201  1.00  0.00     0.191 C 
HETATM    2  S   UNL     1      40.887 -10.751  -0.236  1.00  0.00    -0.039 SA
ENDROOT
BRANCH   1   3
HETATM    3  N   UNL     1      40.467 -10.429   2.320  1.00  0.00    -0.332 N 
HETATM    4  H   UNL     1      40.038  -9.510   2.354  1.00  0.00     0.168 HD
BRANCH   3   5
HETATM    5  C   UNL     1      41.450 -10.677   3.304  1.00  0.00     0.035 A 
HETATM    6  C   UNL     1      41.254 -10.063   4.550  1.00  0.00     0.049 A 
HETATM    7  C   UNL     1      42.233 -10.191   5.560  1.00  0.00     0.020 A 
HETATM    8  S   UNL     1      42.188  -9.497   7.128  1.00  0.00    -0.082 SA
HETATM    9  C   UNL     1      43.399 -10.929   5.364  1.00  0.00     0.004 A 
HETATM   10  C   UNL     1      43.724 -10.124   7.560  1.00  0.00     0.103 A 
HETATM   11  C   UNL     1      44.242 -10.889   6.533  1.00  0.00     0.068 A 
HETATM   12 CL   UNL     1      45.752 -11.716   6.565  1.00  0.00    -0.082 Cl
HETATM   13  C   UNL     1      43.571 -11.549   4.102  1.00  0.00     0.017 A 
HETATM   14  C   UNL     1      42.613 -11.405   3.088  1.00  0.00     0.030 A 
BRANCH  10  15
HETATM   15  C   UNL     1      44.328  -9.830   8.851  1.00  0.00     0.301 C 
HETATM   16  O   UNL     1      44.820  -8.758   9.182  1.00  0.00    -0.259 OA
BRANCH  15  17
HETATM   17  O   UNL     1      44.268 -10.911   9.689  1.00  0.00    -0.322 OA
HETATM   18  C   UNL     1      43.718 -10.628  10.976  1.00  0.00     0.213 C 
ENDBRANCH  15  17
ENDBRANCH  10  15
ENDBRANCH   3   5
ENDBRANCH   1   3
BRANCH   1  19
HETATM   19  N   UNL     1      39.137 -12.080   1.328  1.00  0.00    -0.274 N 
HETATM   20  H   UNL     1      38.157 -11.815   1.221  1.00  0.00     0.189 HD
BRANCH  19  21
HETATM   21  N   UNL     1      39.407 -13.445   1.142  1.00  0.00    -0.267 N 
HETATM   22  C   UNL     1      39.961 -14.121   2.215  1.00  0.00     0.245 C 
HETATM   23  O   UNL     1      39.965 -13.666   3.359  1.00  0.00    -0.271 OA
HETATM   24  H   UNL     1      39.657 -13.715   0.192  1.00  0.00     0.190 HD
BRANCH  22  25
HETATM   25  C   UNL     1      40.573 -15.460   1.854  1.00  0.00     0.178 C 
BRANCH  25  26
HETATM   26  S   UNL     1      42.364 -15.244   1.616  1.00  0.00    -0.155 SA
BRANCH  26  27
HETATM   27  C   UNL     1      42.921 -15.672   3.293  1.00  0.00     0.114 C 
BRANCH  27  28
HETATM   28  C   UNL     1      43.309 -17.129   3.388  1.00  0.00    -0.032 A 
HETATM   29  C   UNL     1      43.921 -17.695   4.519  1.00  0.00     0.018 A 
HETATM   30 BR   UNL     1      44.354 -16.674   6.063  1.00  0.00    -0.051 Br
HETATM   31  C   UNL     1      44.237 -19.059   4.551  1.00  0.00     0.019 A 
HETATM   32  C   UNL     1      43.941 -19.875   3.460  1.00  0.00     0.001 A 
HETATM   33  C   UNL     1      43.327 -19.333   2.336  1.00  0.00     0.001 A 
HETATM   34  C   UNL     1      43.011 -17.974   2.301  1.00  0.00     0.009 A 
ENDBRANCH  27  28
ENDBRANCH  26  27
ENDBRANCH  25  26
ENDBRANCH  22  25
ENDBRANCH  19  21
ENDBRANCH   1  19
TORSDOF 10
ENDMDL
MODEL 9
REMARK VINA RESULT:      -7.6      6.751     10.441
REMARK  10 active torsions:
REMARK  status: ('A' for Active; 'I' for Inactive)
REMARK    1  A    between atoms: O_2  and  C_3 
REMARK    2  A    between atoms: C_3  and  C_4 
REMARK    3  A    between atoms: C_11  and  N_12 
REMARK    4  A    between atoms: N_12  and  C_13 
REMARK    5  A    between atoms: C_13  and  N_14 
REMARK    6  A    between atoms: N_14  and  N_15 
REMARK       I    between atoms: N_15  and  C_16 
REMARK    7  A    between atoms: C_16  and  C_17 
REMARK    8  A    between atoms: C_17  and  S_18 
REMARK    9  A    between atoms: S_18  and  C_19 
REMARK   10  A    between atoms: C_19  and  C_20 
ROOT
HETATM    1  C   UNL     1      44.677 -11.044   7.881  1.00  0.00     0.191 C 
HETATM    2  S   UNL     1      45.836 -11.185   6.677  1.00  0.00    -0.039 SA
ENDROOT
BRANCH   1   3
HETATM    3  N   UNL     1      44.925 -10.171   8.903  1.00  0.00    -0.332 N 
HETATM    4  H   UNL     1      45.895  -9.871   8.926  1.00  0.00     0.168 HD
BRANCH   3   5
HETATM    5  C   UNL     1      44.142  -9.781  10.012  1.00  0.00     0.035 A 
HETATM    6  C   UNL     1      43.644  -8.470   9.994  1.00  0.00     0.049 A 
HETATM    7  C   UNL     1      42.923  -7.975  11.103  1.00  0.00     0.020 A 
HETATM    8  S   UNL     1      42.262  -6.402  11.279  1.00  0.00    -0.082 SA
HETATM    9  C   UNL     1      42.674  -8.759  12.228  1.00  0.00     0.004 A 
HETATM   10  C   UNL     1      41.672  -6.715  12.858  1.00  0.00     0.103 A 
HETATM   11  C   UNL     1      41.941  -8.020  13.225  1.00  0.00     0.068 A 
HETATM   12 CL   UNL     1      41.501  -8.749  14.722  1.00  0.00    -0.082 Cl
HETATM   13  C   UNL     1      43.178 -10.083  12.221  1.00  0.00     0.017 A 
HETATM   14  C   UNL     1      43.915 -10.571  11.132  1.00  0.00     0.030 A 
BRANCH  10  15
HETATM   15  C   UNL     1      41.001  -5.686  13.636  1.00  0.00     0.301 C 
HETATM   16  O   UNL     1      41.542  -4.921  14.426  1.00  0.00    -0.259 OA
BRANCH  15  17
HETATM   17  O   UNL     1      39.659  -5.651  13.368  1.00  0.00    -0.322 OA
HETATM   18  C   UNL     1      38.836  -6.153  14.422  1.00  0.00     0.213 C 
ENDBRANCH  15  17
ENDBRANCH  10  15
ENDBRANCH   3   5
ENDBRANCH   1   3
BRANCH   1  19
HETATM   19  N   UNL     1      43.501 -11.738   7.908  1.00  0.00    -0.274 N 
HETATM   20  H   UNL     1      42.775 -11.470   8.573  1.00  0.00     0.189 HD
BRANCH  19  21
HETATM   21  N   UNL     1      43.048 -12.476   6.802  1.00  0.00    -0.267 N 
HETATM   22  C   UNL     1      42.031 -11.912   6.052  1.00  0.00     0.245 C 
HETATM   23  O   UNL     1      41.717 -10.725   6.142  1.00  0.00    -0.271 OA
HETATM   24  H   UNL     1      43.098 -13.489   6.903  1.00  0.00     0.190 HD
BRANCH  22  25
HETATM   25  C   UNL     1      41.332 -12.887   5.125  1.00  0.00     0.178 C 
BRANCH  25  26
HETATM   26  S   UNL     1      42.579 -13.959   4.348  1.00  0.00    -0.155 SA
BRANCH  26  27
HETATM   27  C   UNL     1      41.776 -15.567   4.626  1.00  0.00     0.114 C 
BRANCH  27  28
HETATM   28  C   UNL     1      42.624 -16.702   4.106  1.00  0.00    -0.032 A 
HETATM   29  C   UNL     1      43.661 -17.296   4.846  1.00  0.00     0.018 A 
HETATM   30 BR   UNL     1      44.130 -16.714   6.594  1.00  0.00    -0.051 Br
HETATM   31  C   UNL     1      44.398 -18.361   4.313  1.00  0.00     0.019 A 
HETATM   32  C   UNL     1      44.106 -18.851   3.040  1.00  0.00     0.001 A 
HETATM   33  C   UNL     1      43.077 -18.281   2.298  1.00  0.00     0.001 A 
HETATM   34  C   UNL     1      42.341 -17.219   2.827  1.00  0.00     0.009 A 
ENDBRANCH  27  28
ENDBRANCH  26  27
ENDBRANCH  25  26
ENDBRANCH  22  25
ENDBRANCH  19  21
ENDBRANCH   1  19
TORSDOF 10
ENDMDL
MODEL 10
REMARK VINA RESULT:      -7.5      7.402     10.913
REMARK  10 active torsions:
REMARK  status: ('A' for Active; 'I' for Inactive)
REMARK    1  A    between atoms: O_2  and  C_3 
REMARK    2  A    between atoms: C_3  and  C_4 
REMARK    3  A    between atoms: C_11  and  N_12 
REMARK    4  A    between atoms: N_12  and  C_13 
REMARK    5  A    between atoms: C_13  and  N_14 
REMARK    6  A    between atoms: N_14  and  N_15 
REMARK       I    between atoms: N_15  and  C_16 
REMARK    7  A    between atoms: C_16  and  C_17 
REMARK    8  A    between atoms: C_17  and  S_18 
REMARK    9  A    between atoms: S_18  and  C_19 
REMARK   10  A    between atoms: C_19  and  C_20 
ROOT
HETATM    1  C   UNL     1      43.545  -9.863   8.921  1.00  0.00     0.191 C 
HETATM    2  S   UNL     1      43.465  -8.298   8.321  1.00  0.00    -0.039 SA
ENDROOT
BRANCH   1   3
HETATM    3  N   UNL     1      42.823 -10.151  10.045  1.00  0.00    -0.332 N 
HETATM    4  H   UNL     1      42.349 -11.046   9.979  1.00  0.00     0.168 HD
BRANCH   3   5
HETATM    5  C   UNL     1      42.474  -9.359  11.162  1.00  0.00     0.035 A 
HETATM    6  C   UNL     1      41.118  -9.025  11.291  1.00  0.00     0.049 A 
HETATM    7  C   UNL     1      40.700  -8.167  12.332  1.00  0.00     0.020 A 
HETATM    8  S   UNL     1      39.101  -7.625  12.636  1.00  0.00    -0.082 SA
HETATM    9  C   UNL     1      41.599  -7.643  13.259  1.00  0.00     0.004 A 
HETATM   10  C   UNL     1      39.574  -6.657  13.970  1.00  0.00     0.103 A 
HETATM   11  C   UNL     1      40.930  -6.784  14.204  1.00  0.00     0.068 A 
HETATM   12 CL   UNL     1      41.806  -5.999  15.462  1.00  0.00    -0.082 Cl
HETATM   13  C   UNL     1      42.962  -8.002  13.116  1.00  0.00     0.017 A 
HETATM   14  C   UNL     1      43.386  -8.834  12.070  1.00  0.00     0.030 A 
BRANCH  10  15
HETATM   15  C   UNL     1      38.613  -5.839  14.694  1.00  0.00     0.301 C 
HETATM   16  O   UNL     1      37.993  -6.182  15.694  1.00  0.00    -0.259 OA
BRANCH  15  17
HETATM   17  O   UNL     1      38.485  -4.599  14.129  1.00  0.00    -0.322 OA
HETATM   18  C   UNL     1      37.358  -3.855  14.592  1.00  0.00     0.213 C 
ENDBRANCH  15  17
ENDBRANCH  10  15
ENDBRANCH   3   5
ENDBRANCH   1   3
BRANCH   1  19
HETATM   19  N   UNL     1      44.277 -10.871   8.359  1.00  0.00    -0.274 N 
HETATM   20  H   UNL     1      45.268 -10.959   8.587  1.00  0.00     0.189 HD
BRANCH  19  21
HETATM   21  N   UNL     1      43.675 -12.040   7.867  1.00  0.00    -0.267 N 
HETATM   22  C   UNL     1      43.735 -12.240   6.498  1.00  0.00     0.245 C 
HETATM   23  O   UNL     1      44.499 -11.612   5.765  1.00  0.00    -0.271 OA
HETATM   24  H   UNL     1      42.865 -12.368   8.389  1.00  0.00     0.190 HD
BRANCH  22  25
HETATM   25  C   UNL     1      42.767 -13.288   5.984  1.00  0.00     0.178 C 
BRANCH  25  26
HETATM   26  S   UNL     1      43.474 -14.939   6.278  1.00  0.00    -0.155 SA
BRANCH  26  27
HETATM   27  C   UNL     1      42.201 -15.938   5.450  1.00  0.00     0.114 C 
BRANCH  27  28
HETATM   28  C   UNL     1      42.820 -16.955   4.521  1.00  0.00    -0.032 A 
HETATM   29  C   UNL     1      42.453 -17.096   3.172  1.00  0.00     0.018 A 
HETATM   30 BR   UNL     1      41.106 -16.025   2.364  1.00  0.00    -0.051 Br
HETATM   31  C   UNL     1      43.081 -18.047   2.358  1.00  0.00     0.019 A 
HETATM   32  C   UNL     1      44.085 -18.863   2.875  1.00  0.00     0.001 A 
HETATM   33  C   UNL     1      44.468 -18.731   4.206  1.00  0.00     0.001 A 
HETATM   34  C   UNL     1      43.843 -17.784   5.020  1.00  0.00     0.009 A 
ENDBRANCH  27  28
ENDBRANCH  26  27
ENDBRANCH  25  26
ENDBRANCH  22  25
ENDBRANCH  19  21
ENDBRANCH   1  19
TORSDOF 10
ENDMDL
