MODEL 1
REMARK VINA RESULT:      -8.3      0.000      0.000
REMARK  3 active torsions:
REMARK  status: ('A' for Active; 'I' for Inactive)
REMARK    1  A    between atoms: C_8  and  C_9 
REMARK    2  A    between atoms: C_10  and  O_11 
REMARK    3  A    between atoms: C_24  and  N_25 
ROOT
HETATM    1  C   UNL     1      43.931 -18.542   2.596  1.00  0.00     0.070 C 
HETATM    2  C   UNL     1      43.812 -18.609   4.069  1.00  0.00     0.035 A 
HETATM    3  N   UNL     1      43.767 -19.806   4.748  1.00  0.00    -0.280 N 
HETATM    4  H   UNL     1      43.802 -20.744   4.364  1.00  0.00     0.189 HD
HETATM    5  N   UNL     1      43.683 -19.672   6.086  1.00  0.00    -0.148 NA
HETATM    6  C   UNL     1      43.619 -18.355   6.237  1.00  0.00     0.199 A 
HETATM    7  C   UNL     1      43.691 -17.633   5.040  1.00  0.00     0.034 A 
HETATM    8  C   UNL     1      43.665 -16.146   5.056  1.00  0.00     0.108 A 
HETATM    9  C   UNL     1      43.623 -15.611   6.485  1.00  0.00     0.081 A 
HETATM   10  C   UNL     1      43.718 -14.197   6.645  1.00  0.00     0.100 C 
HETATM   11  N   UNL     1      43.840 -13.049   6.771  1.00  0.00    -0.191 NA
HETATM   12  C   UNL     1      43.546 -16.421   7.574  1.00  0.00     0.140 A 
HETATM   13  O   UNL     1      43.520 -17.817   7.465  1.00  0.00    -0.277 OA
ENDROOT
BRANCH   8  14
HETATM   14  C   UNL     1      42.502 -15.649   4.202  1.00  0.00    -0.010 A 
HETATM   15  C   UNL     1      41.142 -15.840   4.500  1.00  0.00     0.076 A 
HETATM   16  C   UNL     1      40.141 -15.304   3.681  1.00  0.00     0.049 A 
HETATM   17  C   UNL     1      40.464 -14.487   2.588  1.00  0.00    -0.023 A 
HETATM   18  C   UNL     1      41.820 -14.234   2.298  1.00  0.00    -0.025 A 
HETATM   19  C   UNL     1      39.468 -13.905   1.787  1.00  0.00     0.012 A 
HETATM   20  C   UNL     1      42.815 -14.827   3.095  1.00  0.00     0.023 A 
HETATM   21  C   UNL     1      42.146 -13.387   1.226  1.00  0.00     0.012 A 
HETATM   22  C   UNL     1      41.147 -12.802   0.448  1.00  0.00     0.001 A 
HETATM   23  C   UNL     1      39.808 -13.065   0.725  1.00  0.00     0.001 A 
BRANCH  15  24
HETATM   24  O   UNL     1      40.790 -16.626   5.564  1.00  0.00    -0.355 OA
HETATM   25  C   UNL     1      40.039 -15.914   6.545  1.00  0.00     0.210 C 
ENDBRANCH  15  24
ENDBRANCH   8  14
BRANCH  12  26
HETATM   26  N   UNL     1      43.511 -15.989   8.884  1.00  0.00    -0.282 NA
HETATM   27  H   UNL     1      43.214 -16.680   9.569  1.00  0.00     0.126 HD
HETATM   28  H   UNL     1      43.020 -15.102   8.973  1.00  0.00     0.126 HD
ENDBRANCH  12  26
TORSDOF 3
ENDMDL
MODEL 2
REMARK VINA RESULT:      -8.2      2.604      5.441
REMARK  3 active torsions:
REMARK  status: ('A' for Active; 'I' for Inactive)
REMARK    1  A    between atoms: C_8  and  C_9 
REMARK    2  A    between atoms: C_10  and  O_11 
REMARK    3  A    between atoms: C_24  and  N_25 
ROOT
HETATM    1  C   UNL     1      39.487 -15.764   3.044  1.00  0.00     0.070 C 
HETATM    2  C   UNL     1      40.406 -14.694   2.596  1.00  0.00     0.035 A 
HETATM    3  N   UNL     1      40.347 -14.158   1.330  1.00  0.00    -0.280 N 
HETATM    4  H   UNL     1      39.714 -14.405   0.575  1.00  0.00     0.189 HD
HETATM    5  N   UNL     1      41.244 -13.178   1.108  1.00  0.00    -0.148 NA
HETATM    6  C   UNL     1      41.915 -13.143   2.253  1.00  0.00     0.199 A 
HETATM    7  C   UNL     1      41.457 -14.048   3.218  1.00  0.00     0.034 A 
HETATM    8  C   UNL     1      42.092 -14.099   4.562  1.00  0.00     0.108 A 
HETATM    9  C   UNL     1      43.178 -13.034   4.699  1.00  0.00     0.081 A 
HETATM   10  C   UNL     1      43.782 -12.896   5.984  1.00  0.00     0.100 C 
HETATM   11  N   UNL     1      44.239 -12.757   7.042  1.00  0.00    -0.191 NA
HETATM   12  C   UNL     1      43.539 -12.213   3.678  1.00  0.00     0.140 A 
HETATM   13  O   UNL     1      42.924 -12.270   2.421  1.00  0.00    -0.277 OA
ENDROOT
BRANCH   8  14
HETATM   14  C   UNL     1      42.609 -15.511   4.827  1.00  0.00    -0.010 A 
HETATM   15  C   UNL     1      42.596 -16.153   6.077  1.00  0.00     0.076 A 
HETATM   16  C   UNL     1      43.049 -17.471   6.216  1.00  0.00     0.049 A 
HETATM   17  C   UNL     1      43.446 -18.219   5.098  1.00  0.00    -0.023 A 
HETATM   18  C   UNL     1      43.417 -17.616   3.824  1.00  0.00    -0.025 A 
HETATM   19  C   UNL     1      43.857 -19.556   5.218  1.00  0.00     0.012 A 
HETATM   20  C   UNL     1      43.016 -16.273   3.709  1.00  0.00     0.023 A 
HETATM   21  C   UNL     1      43.779 -18.373   2.698  1.00  0.00     0.012 A 
HETATM   22  C   UNL     1      44.171 -19.706   2.829  1.00  0.00     0.001 A 
HETATM   23  C   UNL     1      44.214 -20.297   4.090  1.00  0.00     0.001 A 
BRANCH  15  24
HETATM   24  O   UNL     1      42.208 -15.456   7.189  1.00  0.00    -0.355 OA
HETATM   25  C   UNL     1      43.067 -15.681   8.305  1.00  0.00     0.210 C 
ENDBRANCH  15  24
ENDBRANCH   8  14
BRANCH  12  26
HETATM   26  N   UNL     1      44.507 -11.233   3.752  1.00  0.00    -0.282 NA
HETATM   27  H   UNL     1      45.460 -11.539   3.567  1.00  0.00     0.126 HD
HETATM   28  H   UNL     1      44.422 -10.685   4.606  1.00  0.00     0.126 HD
ENDBRANCH  12  26
TORSDOF 3
ENDMDL
MODEL 3
REMARK VINA RESULT:      -8.0      9.142     11.259
REMARK  3 active torsions:
REMARK  status: ('A' for Active; 'I' for Inactive)
REMARK    1  A    between atoms: C_8  and  C_9 
REMARK    2  A    between atoms: C_10  and  O_11 
REMARK    3  A    between atoms: C_24  and  N_25 
ROOT
HETATM    1  C   UNL     1      42.145  -5.456  13.064  1.00  0.00     0.070 C 
HETATM    2  C   UNL     1      41.708  -6.730  13.677  1.00  0.00     0.035 A 
HETATM    3  N   UNL     1      41.912  -7.012  15.009  1.00  0.00    -0.280 N 
HETATM    4  H   UNL     1      42.363  -6.432  15.708  1.00  0.00     0.189 HD
HETATM    5  N   UNL     1      41.424  -8.207  15.395  1.00  0.00    -0.148 NA
HETATM    6  C   UNL     1      40.954  -8.704  14.257  1.00  0.00     0.199 A 
HETATM    7  C   UNL     1      41.093  -7.852  13.155  1.00  0.00     0.034 A 
HETATM    8  C   UNL     1      40.582  -8.261  11.820  1.00  0.00     0.108 A 
HETATM    9  C   UNL     1      39.882  -9.616  11.890  1.00  0.00     0.081 A 
HETATM   10  C   UNL     1      39.238 -10.069  10.700  1.00  0.00     0.100 C 
HETATM   11  N   UNL     1      38.678 -10.411   9.742  1.00  0.00    -0.191 NA
HETATM   12  C   UNL     1      39.819 -10.356  13.028  1.00  0.00     0.140 A 
HETATM   13  O   UNL     1      40.379  -9.919  14.235  1.00  0.00    -0.277 OA
ENDROOT
BRANCH   8  14
HETATM   14  C   UNL     1      41.724  -8.235  10.808  1.00  0.00    -0.010 A 
HETATM   15  C   UNL     1      41.895  -7.261   9.810  1.00  0.00     0.076 A 
HETATM   16  C   UNL     1      43.003  -7.291   8.954  1.00  0.00     0.049 A 
HETATM   17  C   UNL     1      44.019  -8.243   9.123  1.00  0.00    -0.023 A 
HETATM   18  C   UNL     1      43.898  -9.199  10.151  1.00  0.00    -0.025 A 
HETATM   19  C   UNL     1      45.158  -8.255   8.301  1.00  0.00     0.012 A 
HETATM   20  C   UNL     1      42.752  -9.192  10.965  1.00  0.00     0.023 A 
HETATM   21  C   UNL     1      44.930 -10.132  10.346  1.00  0.00     0.012 A 
HETATM   22  C   UNL     1      46.064 -10.123   9.533  1.00  0.00     0.001 A 
HETATM   23  C   UNL     1      46.176  -9.188   8.507  1.00  0.00     0.001 A 
BRANCH  15  24
HETATM   24  O   UNL     1      40.927  -6.311   9.621  1.00  0.00    -0.355 OA
HETATM   25  C   UNL     1      41.470  -5.007   9.429  1.00  0.00     0.210 C 
ENDBRANCH  15  24
ENDBRANCH   8  14
BRANCH  12  26
HETATM   26  N   UNL     1      39.195 -11.582  13.145  1.00  0.00    -0.282 NA
HETATM   27  H   UNL     1      38.952 -12.039  12.270  1.00  0.00     0.126 HD
HETATM   28  H   UNL     1      38.421 -11.547  13.806  1.00  0.00     0.126 HD
ENDBRANCH  12  26
TORSDOF 3
ENDMDL
MODEL 4
REMARK VINA RESULT:      -7.7      4.616      7.206
REMARK  3 active torsions:
REMARK  status: ('A' for Active; 'I' for Inactive)
REMARK    1  A    between atoms: C_8  and  C_9 
REMARK    2  A    between atoms: C_10  and  O_11 
REMARK    3  A    between atoms: C_24  and  N_25 
ROOT
HETATM    1  C   UNL     1      39.149 -14.732  -1.348  1.00  0.00     0.070 C 
HETATM    2  C   UNL     1      40.031 -13.585  -1.659  1.00  0.00     0.035 A 
HETATM    3  N   UNL     1      40.628 -13.429  -2.889  1.00  0.00    -0.280 N 
HETATM    4  H   UNL     1      40.560 -14.038  -3.698  1.00  0.00     0.189 HD
HETATM    5  N   UNL     1      41.375 -12.313  -2.997  1.00  0.00    -0.148 NA
HETATM    6  C   UNL     1      41.281 -11.790  -1.780  1.00  0.00     0.199 A 
HETATM    7  C   UNL     1      40.471 -12.516  -0.901  1.00  0.00     0.034 A 
HETATM    8  C   UNL     1      40.246 -12.032   0.487  1.00  0.00     0.108 A 
HETATM    9  C   UNL     1      40.937 -10.691   0.722  1.00  0.00     0.081 A 
HETATM   10  C   UNL     1      40.699 -10.057   1.977  1.00  0.00     0.100 C 
HETATM   11  N   UNL     1      40.466  -9.524   2.982  1.00  0.00    -0.191 NA
HETATM   12  C   UNL     1      41.709 -10.085  -0.218  1.00  0.00     0.140 A 
HETATM   13  O   UNL     1      41.914 -10.640  -1.487  1.00  0.00    -0.277 OA
ENDROOT
BRANCH   8  14
HETATM   14  C   UNL     1      40.686 -13.107   1.479  1.00  0.00    -0.010 A 
HETATM   15  C   UNL     1      40.030 -13.410   2.683  1.00  0.00     0.076 A 
HETATM   16  C   UNL     1      40.479 -14.448   3.509  1.00  0.00     0.049 A 
HETATM   17  C   UNL     1      41.543 -15.272   3.116  1.00  0.00    -0.023 A 
HETATM   18  C   UNL     1      42.185 -15.025   1.886  1.00  0.00    -0.025 A 
HETATM   19  C   UNL     1      41.973 -16.346   3.913  1.00  0.00     0.012 A 
HETATM   20  C   UNL     1      41.760 -13.942   1.096  1.00  0.00     0.023 A 
HETATM   21  C   UNL     1      43.227 -15.870   1.472  1.00  0.00     0.012 A 
HETATM   22  C   UNL     1      43.634 -16.943   2.266  1.00  0.00     0.001 A 
HETATM   23  C   UNL     1      43.011 -17.179   3.489  1.00  0.00     0.001 A 
BRANCH  15  24
HETATM   24  O   UNL     1      38.982 -12.631   3.095  1.00  0.00    -0.355 OA
HETATM   25  C   UNL     1      39.067 -12.283   4.475  1.00  0.00     0.210 C 
ENDBRANCH  15  24
ENDBRANCH   8  14
BRANCH  12  26
HETATM   26  N   UNL     1      42.349  -8.873  -0.058  1.00  0.00    -0.282 NA
HETATM   27  H   UNL     1      43.337  -8.923   0.180  1.00  0.00     0.126 HD
HETATM   28  H   UNL     1      41.823  -8.248   0.549  1.00  0.00     0.126 HD
ENDBRANCH  12  26
TORSDOF 3
ENDMDL
MODEL 5
REMARK VINA RESULT:      -7.7      3.594      6.003
REMARK  3 active torsions:
REMARK  status: ('A' for Active; 'I' for Inactive)
REMARK    1  A    between atoms: C_8  and  C_9 
REMARK    2  A    between atoms: C_10  and  O_11 
REMARK    3  A    between atoms: C_24  and  N_25 
ROOT
HETATM    1  C   UNL     1      45.179 -11.689   4.146  1.00  0.00     0.070 C 
HETATM    2  C   UNL     1      44.078 -11.485   5.113  1.00  0.00     0.035 A 
HETATM    3  N   UNL     1      44.299 -11.024   6.391  1.00  0.00    -0.280 N 
HETATM    4  H   UNL     1      45.184 -10.781   6.823  1.00  0.00     0.189 HD
HETATM    5  N   UNL     1      43.176 -10.876   7.121  1.00  0.00    -0.148 NA
HETATM    6  C   UNL     1      42.237 -11.310   6.288  1.00  0.00     0.199 A 
HETATM    7  C   UNL     1      42.716 -11.703   5.033  1.00  0.00     0.034 A 
HETATM    8  C   UNL     1      41.774 -12.179   3.985  1.00  0.00     0.108 A 
HETATM    9  C   UNL     1      40.327 -12.098   4.466  1.00  0.00     0.081 A 
HETATM   10  C   UNL     1      39.315 -12.411   3.511  1.00  0.00     0.100 C 
HETATM   11  N   UNL     1      38.494 -12.624   2.719  1.00  0.00    -0.191 NA
HETATM   12  C   UNL     1      39.988 -11.703   5.721  1.00  0.00     0.140 A 
HETATM   13  O   UNL     1      40.947 -11.321   6.669  1.00  0.00    -0.277 OA
ENDROOT
BRANCH   8  14
HETATM   14  C   UNL     1      42.174 -13.585   3.544  1.00  0.00    -0.010 A 
HETATM   15  C   UNL     1      42.317 -14.002   2.210  1.00  0.00     0.076 A 
HETATM   16  C   UNL     1      42.735 -15.302   1.901  1.00  0.00     0.049 A 
HETATM   17  C   UNL     1      43.107 -16.200   2.912  1.00  0.00    -0.023 A 
HETATM   18  C   UNL     1      43.026 -15.789   4.258  1.00  0.00    -0.025 A 
HETATM   19  C   UNL     1      43.574 -17.490   2.613  1.00  0.00     0.012 A 
HETATM   20  C   UNL     1      42.547 -14.501   4.554  1.00  0.00     0.023 A 
HETATM   21  C   UNL     1      43.432 -16.672   5.271  1.00  0.00     0.012 A 
HETATM   22  C   UNL     1      43.908 -17.946   4.959  1.00  0.00     0.001 A 
HETATM   23  C   UNL     1      43.975 -18.358   3.631  1.00  0.00     0.001 A 
BRANCH  15  24
HETATM   24  O   UNL     1      41.969 -13.150   1.197  1.00  0.00    -0.355 OA
HETATM   25  C   UNL     1      40.949 -13.685   0.356  1.00  0.00     0.210 C 
ENDBRANCH  15  24
ENDBRANCH   8  14
BRANCH  12  26
HETATM   26  N   UNL     1      38.699 -11.607   6.203  1.00  0.00    -0.282 NA
HETATM   27  H   UNL     1      38.102 -10.929   5.735  1.00  0.00     0.126 HD
HETATM   28  H   UNL     1      38.683 -11.521   7.217  1.00  0.00     0.126 HD
ENDBRANCH  12  26
TORSDOF 3
ENDMDL
MODEL 6
REMARK VINA RESULT:      -7.4      3.412      6.663
REMARK  3 active torsions:
REMARK  status: ('A' for Active; 'I' for Inactive)
REMARK    1  A    between atoms: C_8  and  C_9 
REMARK    2  A    between atoms: C_10  and  O_11 
REMARK    3  A    between atoms: C_24  and  N_25 
ROOT
HETATM    1  C   UNL     1      44.288 -11.633   3.889  1.00  0.00     0.070 C 
HETATM    2  C   UNL     1      42.923 -11.199   3.520  1.00  0.00     0.035 A 
HETATM    3  N   UNL     1      42.452  -9.936   3.800  1.00  0.00    -0.280 N 
HETATM    4  H   UNL     1      42.937  -9.179   4.270  1.00  0.00     0.189 HD
HETATM    5  N   UNL     1      41.196  -9.712   3.366  1.00  0.00    -0.148 NA
HETATM    6  C   UNL     1      40.859 -10.888   2.852  1.00  0.00     0.199 A 
HETATM    7  C   UNL     1      41.870 -11.855   2.910  1.00  0.00     0.034 A 
HETATM    8  C   UNL     1      41.647 -13.210   2.341  1.00  0.00     0.108 A 
HETATM    9  C   UNL     1      40.273 -13.313   1.683  1.00  0.00     0.081 A 
HETATM   10  C   UNL     1      39.981 -14.526   0.991  1.00  0.00     0.100 C 
HETATM   11  N   UNL     1      39.766 -15.496   0.392  1.00  0.00    -0.191 NA
HETATM   12  C   UNL     1      39.370 -12.298   1.700  1.00  0.00     0.140 A 
HETATM   13  O   UNL     1      39.642 -11.066   2.310  1.00  0.00    -0.277 OA
ENDROOT
BRANCH   8  14
HETATM   14  C   UNL     1      41.864 -14.260   3.428  1.00  0.00    -0.010 A 
HETATM   15  C   UNL     1      41.069 -14.408   4.577  1.00  0.00     0.076 A 
HETATM   16  C   UNL     1      41.315 -15.434   5.498  1.00  0.00     0.049 A 
HETATM   17  C   UNL     1      42.306 -16.396   5.257  1.00  0.00    -0.023 A 
HETATM   18  C   UNL     1      43.082 -16.304   4.084  1.00  0.00    -0.025 A 
HETATM   19  C   UNL     1      42.531 -17.458   6.149  1.00  0.00     0.012 A 
HETATM   20  C   UNL     1      42.863 -15.234   3.199  1.00  0.00     0.023 A 
HETATM   21  C   UNL     1      44.051 -17.286   3.822  1.00  0.00     0.012 A 
HETATM   22  C   UNL     1      44.253 -18.344   4.710  1.00  0.00     0.001 A 
HETATM   23  C   UNL     1      43.497 -18.427   5.876  1.00  0.00     0.001 A 
BRANCH  15  24
HETATM   24  O   UNL     1      40.088 -13.491   4.840  1.00  0.00    -0.355 OA
HETATM   25  C   UNL     1      40.284 -12.820   6.083  1.00  0.00     0.210 C 
ENDBRANCH  15  24
ENDBRANCH   8  14
BRANCH  12  26
HETATM   26  N   UNL     1      38.119 -12.337   1.117  1.00  0.00    -0.282 NA
HETATM   27  H   UNL     1      37.708 -13.262   1.017  1.00  0.00     0.126 HD
HETATM   28  H   UNL     1      38.088 -11.791   0.258  1.00  0.00     0.126 HD
ENDBRANCH  12  26
TORSDOF 3
ENDMDL
MODEL 7
REMARK VINA RESULT:      -7.4      3.375      5.545
REMARK  3 active torsions:
REMARK  status: ('A' for Active; 'I' for Inactive)
REMARK    1  A    between atoms: C_8  and  C_9 
REMARK    2  A    between atoms: C_10  and  O_11 
REMARK    3  A    between atoms: C_24  and  N_25 
ROOT
HETATM    1  C   UNL     1      42.791 -15.703   7.888  1.00  0.00     0.070 C 
HETATM    2  C   UNL     1      43.168 -15.955   6.479  1.00  0.00     0.035 A 
HETATM    3  N   UNL     1      44.050 -16.950   6.122  1.00  0.00    -0.280 N 
HETATM    4  H   UNL     1      44.537 -17.601   6.729  1.00  0.00     0.189 HD
HETATM    5  N   UNL     1      44.254 -17.049   4.794  1.00  0.00    -0.148 NA
HETATM    6  C   UNL     1      43.519 -16.050   4.319  1.00  0.00     0.199 A 
HETATM    7  C   UNL     1      42.821 -15.332   5.296  1.00  0.00     0.034 A 
HETATM    8  C   UNL     1      41.930 -14.206   4.909  1.00  0.00     0.108 A 
HETATM    9  C   UNL     1      41.870 -14.048   3.391  1.00  0.00     0.081 A 
HETATM   10  C   UNL     1      40.953 -13.081   2.882  1.00  0.00     0.100 C 
HETATM   11  N   UNL     1      40.175 -12.324   2.471  1.00  0.00    -0.191 NA
HETATM   12  C   UNL     1      42.607 -14.810   2.541  1.00  0.00     0.140 A 
HETATM   13  O   UNL     1      43.468 -15.817   2.996  1.00  0.00    -0.277 OA
ENDROOT
BRANCH   8  14
HETATM   14  C   UNL     1      42.380 -12.932   5.620  1.00  0.00    -0.010 A 
HETATM   15  C   UNL     1      41.519 -11.983   6.195  1.00  0.00     0.076 A 
HETATM   16  C   UNL     1      42.025 -10.865   6.871  1.00  0.00     0.049 A 
HETATM   17  C   UNL     1      43.404 -10.707   7.070  1.00  0.00    -0.023 A 
HETATM   18  C   UNL     1      44.287 -11.674   6.551  1.00  0.00    -0.025 A 
HETATM   19  C   UNL     1      43.921  -9.616   7.788  1.00  0.00     0.012 A 
HETATM   20  C   UNL     1      43.767 -12.759   5.823  1.00  0.00     0.023 A 
HETATM   21  C   UNL     1      45.666 -11.538   6.779  1.00  0.00     0.012 A 
HETATM   22  C   UNL     1      46.166 -10.457   7.508  1.00  0.00     0.001 A 
HETATM   23  C   UNL     1      45.294  -9.493   8.007  1.00  0.00     0.001 A 
BRANCH  15  24
HETATM   24  O   UNL     1      40.166 -12.109   6.027  1.00  0.00    -0.355 OA
HETATM   25  C   UNL     1      39.516 -10.853   5.851  1.00  0.00     0.210 C 
ENDBRANCH  15  24
ENDBRANCH   8  14
BRANCH  12  26
HETATM   26  N   UNL     1      42.585 -14.711   1.165  1.00  0.00    -0.282 NA
HETATM   27  H   UNL     1      41.776 -14.239   0.768  1.00  0.00     0.126 HD
HETATM   28  H   UNL     1      42.782 -15.607   0.721  1.00  0.00     0.126 HD
ENDBRANCH  12  26
TORSDOF 3
ENDMDL
MODEL 8
REMARK VINA RESULT:      -7.4     14.215     16.170
REMARK  3 active torsions:
REMARK  status: ('A' for Active; 'I' for Inactive)
REMARK    1  A    between atoms: C_8  and  C_9 
REMARK    2  A    between atoms: C_10  and  O_11 
REMARK    3  A    between atoms: C_24  and  N_25 
ROOT
HETATM    1  C   UNL     1      48.107 -28.464  -1.714  1.00  0.00     0.070 C 
HETATM    2  C   UNL     1      47.873 -29.020  -0.363  1.00  0.00     0.035 A 
HETATM    3  N   UNL     1      48.906 -29.408   0.460  1.00  0.00    -0.280 N 
HETATM    4  H   UNL     1      49.902 -29.376   0.270  1.00  0.00     0.189 HD
HETATM    5  N   UNL     1      48.505 -29.866   1.662  1.00  0.00    -0.148 NA
HETATM    6  C   UNL     1      47.183 -29.811   1.560  1.00  0.00     0.199 A 
HETATM    7  C   UNL     1      46.719 -29.301   0.342  1.00  0.00     0.034 A 
HETATM    8  C   UNL     1      45.260 -29.149   0.097  1.00  0.00     0.108 A 
HETATM    9  C   UNL     1      44.451 -29.546   1.330  1.00  0.00     0.081 A 
HETATM   10  C   UNL     1      43.041 -29.331   1.270  1.00  0.00     0.100 C 
HETATM   11  N   UNL     1      41.902 -29.113   1.232  1.00  0.00    -0.191 NA
HETATM   12  C   UNL     1      45.022 -30.038   2.460  1.00  0.00     0.140 A 
HETATM   13  O   UNL     1      46.407 -30.202   2.587  1.00  0.00    -0.277 OA
ENDROOT
BRANCH   8  14
HETATM   14  C   UNL     1      44.868 -29.940  -1.149  1.00  0.00    -0.010 A 
HETATM   15  C   UNL     1      44.685 -29.389  -2.428  1.00  0.00     0.076 A 
HETATM   16  C   UNL     1      44.372 -30.202  -3.526  1.00  0.00     0.049 A 
HETATM   17  C   UNL     1      44.317 -31.597  -3.398  1.00  0.00    -0.023 A 
HETATM   18  C   UNL     1      44.550 -32.179  -2.135  1.00  0.00    -0.025 A 
HETATM   19  C   UNL     1      44.051 -32.426  -4.500  1.00  0.00     0.012 A 
HETATM   20  C   UNL     1      44.804 -31.347  -1.031  1.00  0.00     0.023 A 
HETATM   21  C   UNL     1      44.531 -33.578  -2.010  1.00  0.00     0.012 A 
HETATM   22  C   UNL     1      44.281 -34.391  -3.117  1.00  0.00     0.001 A 
HETATM   23  C   UNL     1      44.036 -33.815  -4.361  1.00  0.00     0.001 A 
BRANCH  15  24
HETATM   24  O   UNL     1      44.740 -28.031  -2.593  1.00  0.00    -0.355 OA
HETATM   25  C   UNL     1      45.182 -27.654  -3.895  1.00  0.00     0.210 C 
ENDBRANCH  15  24
ENDBRANCH   8  14
BRANCH  12  26
HETATM   26  N   UNL     1      44.338 -30.406   3.601  1.00  0.00    -0.282 NA
HETATM   27  H   UNL     1      44.596 -31.305   4.001  1.00  0.00     0.126 HD
HETATM   28  H   UNL     1      43.332 -30.293   3.488  1.00  0.00     0.126 HD
ENDBRANCH  12  26
TORSDOF 3
ENDMDL
MODEL 9
REMARK VINA RESULT:      -7.4      3.150      4.975
REMARK  3 active torsions:
REMARK  status: ('A' for Active; 'I' for Inactive)
REMARK    1  A    between atoms: C_8  and  C_9 
REMARK    2  A    between atoms: C_10  and  O_11 
REMARK    3  A    between atoms: C_24  and  N_25 
ROOT
HETATM    1  C   UNL     1      43.693 -15.387   1.521  1.00  0.00     0.070 C 
HETATM    2  C   UNL     1      42.732 -15.448   2.645  1.00  0.00     0.035 A 
HETATM    3  N   UNL     1      42.538 -16.593   3.385  1.00  0.00    -0.280 N 
HETATM    4  H   UNL     1      42.989 -17.495   3.270  1.00  0.00     0.189 HD
HETATM    5  N   UNL     1      41.645 -16.454   4.384  1.00  0.00    -0.148 NA
HETATM    6  C   UNL     1      41.232 -15.203   4.223  1.00  0.00     0.199 A 
HETATM    7  C   UNL     1      41.856 -14.520   3.173  1.00  0.00     0.034 A 
HETATM    8  C   UNL     1      41.518 -13.098   2.896  1.00  0.00     0.108 A 
HETATM    9  C   UNL     1      40.519 -12.560   3.918  1.00  0.00     0.081 A 
HETATM   10  C   UNL     1      40.204 -11.171   3.838  1.00  0.00     0.100 C 
HETATM   11  N   UNL     1      39.985 -10.031   3.796  1.00  0.00    -0.191 NA
HETATM   12  C   UNL     1      39.975 -13.331   4.895  1.00  0.00     0.140 A 
HETATM   13  O   UNL     1      40.309 -14.683   5.051  1.00  0.00    -0.277 OA
ENDROOT
BRANCH   8  14
HETATM   14  C   UNL     1      41.027 -12.963   1.457  1.00  0.00    -0.010 A 
HETATM   15  C   UNL     1      41.336 -11.897   0.596  1.00  0.00     0.076 A 
HETATM   16  C   UNL     1      40.878 -11.882  -0.728  1.00  0.00     0.049 A 
HETATM   17  C   UNL     1      40.170 -12.970  -1.258  1.00  0.00    -0.023 A 
HETATM   18  C   UNL     1      39.893 -14.077  -0.431  1.00  0.00    -0.025 A 
HETATM   19  C   UNL     1      39.747 -12.988  -2.597  1.00  0.00     0.012 A 
HETATM   20  C   UNL     1      40.308 -14.051   0.912  1.00  0.00     0.023 A 
HETATM   21  C   UNL     1      39.216 -15.183  -0.968  1.00  0.00     0.012 A 
HETATM   22  C   UNL     1      38.814 -15.195  -2.305  1.00  0.00     0.001 A 
HETATM   23  C   UNL     1      39.075 -14.095  -3.118  1.00  0.00     0.001 A 
BRANCH  15  24
HETATM   24  O   UNL     1      42.032 -10.821   1.078  1.00  0.00    -0.355 OA
HETATM   25  C   UNL     1      41.699  -9.608   0.406  1.00  0.00     0.210 C 
ENDBRANCH  15  24
ENDBRANCH   8  14
BRANCH  12  26
HETATM   26  N   UNL     1      39.074 -12.894   5.844  1.00  0.00    -0.282 NA
HETATM   27  H   UNL     1      38.717 -13.606   6.476  1.00  0.00     0.126 HD
HETATM   28  H   UNL     1      38.339 -12.324   5.428  1.00  0.00     0.126 HD
ENDBRANCH  12  26
TORSDOF 3
ENDMDL
MODEL 10
REMARK VINA RESULT:      -7.3      4.122      6.287
REMARK  3 active torsions:
REMARK  status: ('A' for Active; 'I' for Inactive)
REMARK    1  A    between atoms: C_8  and  C_9 
REMARK    2  A    between atoms: C_10  and  O_11 
REMARK    3  A    between atoms: C_24  and  N_25 
ROOT
HETATM    1  C   UNL     1      44.990 -12.085   6.719  1.00  0.00     0.070 C 
HETATM    2  C   UNL     1      43.911 -11.073   6.776  1.00  0.00     0.035 A 
HETATM    3  N   UNL     1      43.617 -10.377   7.927  1.00  0.00    -0.280 N 
HETATM    4  H   UNL     1      44.061 -10.457   8.836  1.00  0.00     0.189 HD
HETATM    5  N   UNL     1      42.622  -9.480   7.784  1.00  0.00    -0.148 NA
HETATM    6  C   UNL     1      42.252  -9.664   6.522  1.00  0.00     0.199 A 
HETATM    7  C   UNL     1      42.999 -10.629   5.837  1.00  0.00     0.034 A 
HETATM    8  C   UNL     1      42.720 -10.919   4.406  1.00  0.00     0.108 A 
HETATM    9  C   UNL     1      41.625 -10.004   3.862  1.00  0.00     0.081 A 
HETATM   10  C   UNL     1      41.346 -10.096   2.466  1.00  0.00     0.100 C 
HETATM   11  N   UNL     1      41.155 -10.144   1.322  1.00  0.00    -0.191 NA
HETATM   12  C   UNL     1      40.964  -9.105   4.636  1.00  0.00     0.140 A 
HETATM   13  O   UNL     1      41.253  -8.934   5.996  1.00  0.00    -0.277 OA
ENDROOT
BRANCH   8  14
HETATM   14  C   UNL     1      42.391 -12.401   4.241  1.00  0.00    -0.010 A 
HETATM   15  C   UNL     1      41.359 -13.077   4.913  1.00  0.00     0.076 A 
HETATM   16  C   UNL     1      41.100 -14.430   4.661  1.00  0.00     0.049 A 
HETATM   17  C   UNL     1      41.805 -15.128   3.669  1.00  0.00    -0.023 A 
HETATM   18  C   UNL     1      42.809 -14.457   2.942  1.00  0.00    -0.025 A 
HETATM   19  C   UNL     1      41.522 -16.471   3.374  1.00  0.00     0.012 A 
HETATM   20  C   UNL     1      43.098 -13.115   3.247  1.00  0.00     0.023 A 
HETATM   21  C   UNL     1      43.492 -15.141   1.924  1.00  0.00     0.012 A 
HETATM   22  C   UNL     1      43.191 -16.472   1.630  1.00  0.00     0.001 A 
HETATM   23  C   UNL     1      42.209 -17.139   2.359  1.00  0.00     0.001 A 
BRANCH  15  24
HETATM   24  O   UNL     1      40.645 -12.426   5.882  1.00  0.00    -0.355 OA
HETATM   25  C   UNL     1      39.260 -12.315   5.561  1.00  0.00     0.210 C 
ENDBRANCH  15  24
ENDBRANCH   8  14
BRANCH  12  26
HETATM   26  N   UNL     1      39.973  -8.253   4.193  1.00  0.00    -0.282 NA
HETATM   27  H   UNL     1      40.290  -7.363   3.817  1.00  0.00     0.126 HD
HETATM   28  H   UNL     1      39.229  -8.153   4.882  1.00  0.00     0.126 HD
ENDBRANCH  12  26
TORSDOF 3
ENDMDL
