MODEL 1
REMARK VINA RESULT:      -9.4      0.000      0.000
REMARK  9 active torsions:
REMARK  status: ('A' for Active; 'I' for Inactive)
REMARK    1  A    between atoms: O_2  and  C_3 
REMARK    2  A    between atoms: C_6  and  N_7 
REMARK    3  A    between atoms: N_10  and  C_12 
REMARK    4  A    between atoms: C_12  and  C_13 
REMARK    5  A    between atoms: C_13  and  C_14 
REMARK    6  A    between atoms: C_14  and  N_15 
REMARK       I    between atoms: N_15  and  C_16 
REMARK    7  A    between atoms: C_16  and  C_17 
REMARK    8  A    between atoms: C_17  and  C_18 
REMARK    9  A    between atoms: C_18  and  C_19 
ROOT
HETATM    1  N   UNL     1      45.482 -11.075   7.788  1.00  0.00    -0.361 N 
HETATM    2  C   UNL     1      45.187 -11.622   6.556  1.00  0.00     0.217 C 
HETATM    3  O   UNL     1      45.562 -11.123   5.497  1.00  0.00    -0.274 OA
HETATM    4  H   UNL     1      44.962 -11.421   8.587  1.00  0.00     0.162 HD
ENDROOT
BRANCH   1   5
HETATM    5  C   UNL     1      46.012  -9.731   7.880  1.00  0.00     0.124 C 
BRANCH   5   6
HETATM    6  C   UNL     1      45.359  -8.924   9.001  1.00  0.00     0.047 C 
BRANCH   6   7
HETATM    7  C   UNL     1      44.979  -9.836  10.160  1.00  0.00     0.236 C 
BRANCH   7   8
HETATM    8  N   UNL     1      43.548  -9.580  10.584  1.00  0.00    -0.068 N 
HETATM    9  C   UNL     1      43.156 -10.321  11.872  1.00  0.00     0.254 C 
HETATM   10  C   UNL     1      41.677 -10.045  12.221  1.00  0.00     0.150 C 
HETATM   11  N   UNL     1      41.397  -8.599  12.293  1.00  0.00    -0.378 N 
HETATM   12  C   UNL     1      41.777  -7.847  11.079  1.00  0.00     0.150 C 
HETATM   13  C   UNL     1      43.264  -8.080  10.738  1.00  0.00     0.254 C 
HETATM   14  H   UNL     1      42.927  -9.921   9.839  1.00  0.00     0.280 HD
BRANCH  11  15
HETATM   15  C   UNL     1      41.476  -7.917  13.510  1.00  0.00     0.030 A 
HETATM   16  C   UNL     1      41.468  -8.558  14.756  1.00  0.00     0.032 A 
HETATM   17  C   UNL     1      41.556  -7.833  15.953  1.00  0.00     0.039 A 
HETATM   18  C   UNL     1      41.638  -6.444  15.947  1.00  0.00     0.068 A 
HETATM   19  C   UNL     1      41.609  -5.782  14.727  1.00  0.00     0.039 A 
HETATM   20  C   UNL     1      41.524  -6.512  13.532  1.00  0.00     0.032 A 
BRANCH  18  21
HETATM   21  O   UNL     1      41.725  -5.866  17.180  1.00  0.00    -0.356 OA
HETATM   22  C   UNL     1      42.087  -6.711  18.266  1.00  0.00     0.210 C 
ENDBRANCH  18  21
ENDBRANCH  11  15
ENDBRANCH   7   8
ENDBRANCH   6   7
ENDBRANCH   5   6
ENDBRANCH   1   5
BRANCH   2  23
HETATM   23  C   UNL     1      44.324 -12.864   6.606  1.00  0.00     0.105 C 
BRANCH  23  24
HETATM   24  C   UNL     1      42.847 -12.601   6.287  1.00  0.00     0.046 C 
BRANCH  24  25
HETATM   25  C   UNL     1      41.989 -13.836   6.004  1.00  0.00     0.203 A 
HETATM   26  N   UNL     1      42.828 -15.044   5.857  1.00  0.00    -0.257 NA
HETATM   27  C   UNL     1      42.476 -15.539   4.709  1.00  0.00     0.147 A 
HETATM   28  N   UNL     1      41.538 -14.864   3.982  1.00  0.00    -0.239 N 
HETATM   29  C   UNL     1      43.038 -16.774   4.154  1.00  0.00     0.037 A 
HETATM   30  C   UNL     1      41.108 -15.244   2.706  1.00  0.00     0.187 A 
HETATM   31  C   UNL     1      41.181 -13.756   4.722  1.00  0.00     0.257 A 
HETATM   32  S   UNL     1      40.036 -14.426   1.709  1.00  0.00    -0.040 SA
HETATM   33  N   UNL     1      41.636 -16.419   2.218  1.00  0.00    -0.332 N 
HETATM   34  C   UNL     1      42.583 -17.188   2.904  1.00  0.00     0.048 A 
HETATM   35  H   UNL     1      41.319 -16.723   1.304  1.00  0.00     0.168 HD
HETATM   36  C   UNL     1      43.075 -18.362   2.337  1.00  0.00     0.030 A 
HETATM   37  C   UNL     1      44.024 -19.117   3.029  1.00  0.00     0.002 A 
HETATM   38  C   UNL     1      44.481 -18.699   4.282  1.00  0.00     0.001 A 
HETATM   39  C   UNL     1      43.987 -17.524   4.850  1.00  0.00     0.017 A 
HETATM   40  O   UNL     1      40.412 -12.842   4.457  1.00  0.00    -0.270 OA
ENDBRANCH  24  25
ENDBRANCH  23  24
ENDBRANCH   2  23
TORSDOF 9
ENDMDL
MODEL 2
REMARK VINA RESULT:      -9.3      2.435      4.712
REMARK  9 active torsions:
REMARK  status: ('A' for Active; 'I' for Inactive)
REMARK    1  A    between atoms: O_2  and  C_3 
REMARK    2  A    between atoms: C_6  and  N_7 
REMARK    3  A    between atoms: N_10  and  C_12 
REMARK    4  A    between atoms: C_12  and  C_13 
REMARK    5  A    between atoms: C_13  and  C_14 
REMARK    6  A    between atoms: C_14  and  N_15 
REMARK       I    between atoms: N_15  and  C_16 
REMARK    7  A    between atoms: C_16  and  C_17 
REMARK    8  A    between atoms: C_17  and  C_18 
REMARK    9  A    between atoms: C_18  and  C_19 
ROOT
HETATM    1  N   UNL     1      40.021 -13.292   4.513  1.00  0.00    -0.361 N 
HETATM    2  C   UNL     1      39.626 -13.487   3.205  1.00  0.00     0.217 C 
HETATM    3  O   UNL     1      38.857 -12.728   2.619  1.00  0.00    -0.274 OA
HETATM    4  H   UNL     1      40.477 -14.068   4.981  1.00  0.00     0.162 HD
ENDROOT
BRANCH   1   5
HETATM    5  C   UNL     1      39.325 -12.336   5.349  1.00  0.00     0.124 C 
BRANCH   5   6
HETATM    6  C   UNL     1      40.277 -11.554   6.252  1.00  0.00     0.047 C 
BRANCH   6   7
HETATM    7  C   UNL     1      41.606 -11.320   5.548  1.00  0.00     0.236 C 
BRANCH   7   8
HETATM    8  N   UNL     1      42.392 -10.235   6.254  1.00  0.00    -0.068 N 
HETATM    9  C   UNL     1      41.501  -9.214   6.978  1.00  0.00     0.254 C 
HETATM   10  C   UNL     1      42.367  -8.120   7.639  1.00  0.00     0.150 C 
HETATM   11  N   UNL     1      43.395  -8.701   8.524  1.00  0.00    -0.378 N 
HETATM   12  C   UNL     1      44.262  -9.702   7.868  1.00  0.00     0.150 C 
HETATM   13  C   UNL     1      43.413 -10.826   7.235  1.00  0.00     0.254 C 
HETATM   14  H   UNL     1      42.930  -9.718   5.547  1.00  0.00     0.280 HD
BRANCH  11  15
HETATM   15  C   UNL     1      43.146  -8.875   9.887  1.00  0.00     0.030 A 
HETATM   16  C   UNL     1      42.698  -7.848  10.728  1.00  0.00     0.032 A 
HETATM   17  C   UNL     1      42.456  -8.070  12.092  1.00  0.00     0.039 A 
HETATM   18  C   UNL     1      42.668  -9.321  12.664  1.00  0.00     0.068 A 
HETATM   19  C   UNL     1      43.148 -10.347  11.860  1.00  0.00     0.039 A 
HETATM   20  C   UNL     1      43.386 -10.119  10.496  1.00  0.00     0.032 A 
BRANCH  18  21
HETATM   21  O   UNL     1      42.386  -9.401  13.997  1.00  0.00    -0.356 OA
HETATM   22  C   UNL     1      41.249  -8.682  14.461  1.00  0.00     0.210 C 
ENDBRANCH  18  21
ENDBRANCH  11  15
ENDBRANCH   7   8
ENDBRANCH   6   7
ENDBRANCH   5   6
ENDBRANCH   1   5
BRANCH   2  23
HETATM   23  C   UNL     1      40.181 -14.737   2.557  1.00  0.00     0.105 C 
BRANCH  23  24
HETATM   24  C   UNL     1      41.308 -14.462   1.554  1.00  0.00     0.046 C 
BRANCH  24  25
HETATM   25  C   UNL     1      42.695 -14.979   1.942  1.00  0.00     0.203 A 
HETATM   26  N   UNL     1      42.792 -16.441   1.742  1.00  0.00    -0.257 NA
HETATM   27  C   UNL     1      43.195 -16.894   2.891  1.00  0.00     0.147 A 
HETATM   28  N   UNL     1      43.373 -15.997   3.906  1.00  0.00    -0.239 N 
HETATM   29  C   UNL     1      43.458 -18.311   3.155  1.00  0.00     0.037 A 
HETATM   30  C   UNL     1      43.744 -16.346   5.208  1.00  0.00     0.187 A 
HETATM   31  C   UNL     1      43.062 -14.753   3.397  1.00  0.00     0.257 A 
HETATM   32  S   UNL     1      43.893 -15.326   6.531  1.00  0.00    -0.040 SA
HETATM   33  N   UNL     1      44.005 -17.682   5.422  1.00  0.00    -0.332 N 
HETATM   34  C   UNL     1      43.872 -18.666   4.437  1.00  0.00     0.048 A 
HETATM   35  H   UNL     1      44.297 -17.950   6.355  1.00  0.00     0.168 HD
HETATM   36  C   UNL     1      44.148 -19.998   4.737  1.00  0.00     0.030 A 
HETATM   37  C   UNL     1      44.006 -20.972   3.745  1.00  0.00     0.002 A 
HETATM   38  C   UNL     1      43.588 -20.614   2.460  1.00  0.00     0.001 A 
HETATM   39  C   UNL     1      43.313 -19.280   2.160  1.00  0.00     0.017 A 
HETATM   40  O   UNL     1      43.033 -13.659   3.945  1.00  0.00    -0.270 OA
ENDBRANCH  24  25
ENDBRANCH  23  24
ENDBRANCH   2  23
TORSDOF 9
ENDMDL
MODEL 3
REMARK VINA RESULT:      -9.2      1.547      2.106
REMARK  9 active torsions:
REMARK  status: ('A' for Active; 'I' for Inactive)
REMARK    1  A    between atoms: O_2  and  C_3 
REMARK    2  A    between atoms: C_6  and  N_7 
REMARK    3  A    between atoms: N_10  and  C_12 
REMARK    4  A    between atoms: C_12  and  C_13 
REMARK    5  A    between atoms: C_13  and  C_14 
REMARK    6  A    between atoms: C_14  and  N_15 
REMARK       I    between atoms: N_15  and  C_16 
REMARK    7  A    between atoms: C_16  and  C_17 
REMARK    8  A    between atoms: C_17  and  C_18 
REMARK    9  A    between atoms: C_18  and  C_19 
ROOT
HETATM    1  N   UNL     1      42.143 -10.708   6.924  1.00  0.00    -0.361 N 
HETATM    2  C   UNL     1      43.433 -10.769   7.411  1.00  0.00     0.217 C 
HETATM    3  O   UNL     1      44.046  -9.778   7.804  1.00  0.00    -0.274 OA
HETATM    4  H   UNL     1      41.795 -11.521   6.428  1.00  0.00     0.162 HD
ENDROOT
BRANCH   1   5
HETATM    5  C   UNL     1      41.551  -9.429   6.589  1.00  0.00     0.124 C 
BRANCH   5   6
HETATM    6  C   UNL     1      40.509  -8.986   7.614  1.00  0.00     0.047 C 
BRANCH   6   7
HETATM    7  C   UNL     1      41.115  -7.986   8.590  1.00  0.00     0.236 C 
BRANCH   7   8
HETATM    8  N   UNL     1      41.839  -8.710   9.704  1.00  0.00    -0.068 N 
HETATM    9  C   UNL     1      42.974  -7.881  10.327  1.00  0.00     0.254 C 
HETATM   10  C   UNL     1      43.691  -8.695  11.427  1.00  0.00     0.150 C 
HETATM   11  N   UNL     1      42.741  -9.200  12.436  1.00  0.00    -0.378 N 
HETATM   12  C   UNL     1      41.624  -9.988  11.874  1.00  0.00     0.150 C 
HETATM   13  C   UNL     1      40.870  -9.174  10.800  1.00  0.00     0.254 C 
HETATM   14  H   UNL     1      42.266  -9.558   9.312  1.00  0.00     0.280 HD
BRANCH  11  15
HETATM   15  C   UNL     1      42.479  -8.470  13.597  1.00  0.00     0.030 A 
HETATM   16  C   UNL     1      43.219  -7.346  13.986  1.00  0.00     0.032 A 
HETATM   17  C   UNL     1      42.917  -6.639  15.159  1.00  0.00     0.039 A 
HETATM   18  C   UNL     1      41.876  -7.040  15.991  1.00  0.00     0.068 A 
HETATM   19  C   UNL     1      41.150  -8.174  15.648  1.00  0.00     0.039 A 
HETATM   20  C   UNL     1      41.456  -8.875  14.472  1.00  0.00     0.032 A 
BRANCH  18  21
HETATM   21  O   UNL     1      41.686  -6.260  17.094  1.00  0.00    -0.356 OA
HETATM   22  C   UNL     1      40.434  -5.592  17.205  1.00  0.00     0.210 C 
ENDBRANCH  18  21
ENDBRANCH  11  15
ENDBRANCH   7   8
ENDBRANCH   6   7
ENDBRANCH   5   6
ENDBRANCH   1   5
BRANCH   2  23
HETATM   23  C   UNL     1      44.054 -12.149   7.385  1.00  0.00     0.105 C 
BRANCH  23  24
HETATM   24  C   UNL     1      43.938 -12.849   6.025  1.00  0.00     0.046 C 
BRANCH  24  25
HETATM   25  C   UNL     1      42.906 -13.975   5.934  1.00  0.00     0.203 A 
HETATM   26  N   UNL     1      43.557 -15.271   5.644  1.00  0.00    -0.257 NA
HETATM   27  C   UNL     1      42.932 -15.713   4.594  1.00  0.00     0.147 A 
HETATM   28  N   UNL     1      41.953 -14.929   4.054  1.00  0.00    -0.239 N 
HETATM   29  C   UNL     1      43.230 -17.000   3.958  1.00  0.00     0.037 A 
HETATM   30  C   UNL     1      41.241 -15.247   2.893  1.00  0.00     0.187 A 
HETATM   31  C   UNL     1      41.877 -13.793   4.833  1.00  0.00     0.257 A 
HETATM   32  S   UNL     1      40.095 -14.303   2.113  1.00  0.00    -0.040 SA
HETATM   33  N   UNL     1      41.526 -16.471   2.329  1.00  0.00    -0.332 N 
HETATM   34  C   UNL     1      42.494 -17.349   2.828  1.00  0.00     0.048 A 
HETATM   35  H   UNL     1      41.003 -16.729   1.499  1.00  0.00     0.168 HD
HETATM   36  C   UNL     1      42.729 -18.567   2.192  1.00  0.00     0.030 A 
HETATM   37  C   UNL     1      43.703 -19.431   2.697  1.00  0.00     0.002 A 
HETATM   38  C   UNL     1      44.441 -19.078   3.830  1.00  0.00     0.001 A 
HETATM   39  C   UNL     1      44.205 -17.859   4.466  1.00  0.00     0.017 A 
HETATM   40  O   UNL     1      41.181 -12.794   4.710  1.00  0.00    -0.270 OA
ENDBRANCH  24  25
ENDBRANCH  23  24
ENDBRANCH   2  23
TORSDOF 9
ENDMDL
MODEL 4
REMARK VINA RESULT:      -9.2      2.259      3.381
REMARK  9 active torsions:
REMARK  status: ('A' for Active; 'I' for Inactive)
REMARK    1  A    between atoms: O_2  and  C_3 
REMARK    2  A    between atoms: C_6  and  N_7 
REMARK    3  A    between atoms: N_10  and  C_12 
REMARK    4  A    between atoms: C_12  and  C_13 
REMARK    5  A    between atoms: C_13  and  C_14 
REMARK    6  A    between atoms: C_14  and  N_15 
REMARK       I    between atoms: N_15  and  C_16 
REMARK    7  A    between atoms: C_16  and  C_17 
REMARK    8  A    between atoms: C_17  and  C_18 
REMARK    9  A    between atoms: C_18  and  C_19 
ROOT
HETATM    1  N   UNL     1      41.043 -11.833   5.336  1.00  0.00    -0.361 N 
HETATM    2  C   UNL     1      40.147 -12.883   5.330  1.00  0.00     0.217 C 
HETATM    3  O   UNL     1      39.150 -12.914   6.048  1.00  0.00    -0.274 OA
HETATM    4  H   UNL     1      41.937 -11.982   4.881  1.00  0.00     0.162 HD
ENDROOT
BRANCH   1   5
HETATM    5  C   UNL     1      41.000 -10.845   6.394  1.00  0.00     0.124 C 
BRANCH   5   6
HETATM    6  C   UNL     1      42.284 -10.022   6.473  1.00  0.00     0.047 C 
BRANCH   6   7
HETATM    7  C   UNL     1      42.176  -8.973   7.571  1.00  0.00     0.236 C 
BRANCH   7   8
HETATM    8  N   UNL     1      41.962  -9.636   8.915  1.00  0.00    -0.068 N 
HETATM    9  C   UNL     1      43.185  -9.535   9.842  1.00  0.00     0.254 C 
HETATM   10  C   UNL     1      42.908 -10.265  11.175  1.00  0.00     0.150 C 
HETATM   11  N   UNL     1      41.672  -9.778  11.815  1.00  0.00    -0.378 N 
HETATM   12  C   UNL     1      40.476  -9.843  10.949  1.00  0.00     0.150 C 
HETATM   13  C   UNL     1      40.720  -9.083   9.627  1.00  0.00     0.254 C 
HETATM   14  H   UNL     1      41.787 -10.636   8.755  1.00  0.00     0.280 HD
BRANCH  11  15
HETATM   15  C   UNL     1      41.715  -8.749  12.759  1.00  0.00     0.030 A 
HETATM   16  C   UNL     1      40.573  -8.210  13.366  1.00  0.00     0.032 A 
HETATM   17  C   UNL     1      40.664  -7.180  14.313  1.00  0.00     0.039 A 
HETATM   18  C   UNL     1      41.896  -6.644  14.674  1.00  0.00     0.068 A 
HETATM   19  C   UNL     1      43.041  -7.134  14.060  1.00  0.00     0.039 A 
HETATM   20  C   UNL     1      42.944  -8.166  13.114  1.00  0.00     0.032 A 
BRANCH  18  21
HETATM   21  O   UNL     1      41.841  -5.653  15.612  1.00  0.00    -0.356 OA
HETATM   22  C   UNL     1      41.805  -6.056  16.976  1.00  0.00     0.210 C 
ENDBRANCH  18  21
ENDBRANCH  11  15
ENDBRANCH   7   8
ENDBRANCH   6   7
ENDBRANCH   5   6
ENDBRANCH   1   5
BRANCH   2  23
HETATM   23  C   UNL     1      40.512 -14.019   4.398  1.00  0.00     0.105 C 
BRANCH  23  24
HETATM   24  C   UNL     1      41.621 -13.664   3.401  1.00  0.00     0.046 C 
BRANCH  24  25
HETATM   25  C   UNL     1      42.952 -14.396   3.585  1.00  0.00     0.203 A 
HETATM   26  N   UNL     1      42.949 -15.691   2.871  1.00  0.00    -0.257 NA
HETATM   27  C   UNL     1      43.277 -16.558   3.782  1.00  0.00     0.147 A 
HETATM   28  N   UNL     1      43.484 -16.103   5.053  1.00  0.00    -0.239 N 
HETATM   29  C   UNL     1      43.426 -17.992   3.518  1.00  0.00     0.037 A 
HETATM   30  C   UNL     1      43.782 -16.925   6.144  1.00  0.00     0.187 A 
HETATM   31  C   UNL     1      43.283 -14.738   5.026  1.00  0.00     0.257 A 
HETATM   32  S   UNL     1      43.958 -16.464   7.747  1.00  0.00    -0.040 SA
HETATM   33  N   UNL     1      43.937 -18.265   5.863  1.00  0.00    -0.332 N 
HETATM   34  C   UNL     1      43.768 -18.815   4.588  1.00  0.00     0.048 A 
HETATM   35  H   UNL     1      44.175 -18.874   6.638  1.00  0.00     0.168 HD
HETATM   36  C   UNL     1      43.935 -20.184   4.388  1.00  0.00     0.030 A 
HETATM   37  C   UNL     1      43.757 -20.721   3.111  1.00  0.00     0.002 A 
HETATM   38  C   UNL     1      43.413 -19.893   2.039  1.00  0.00     0.001 A 
HETATM   39  C   UNL     1      43.247 -18.523   2.239  1.00  0.00     0.017 A 
HETATM   40  O   UNL     1      43.313 -13.916   5.931  1.00  0.00    -0.270 OA
ENDBRANCH  24  25
ENDBRANCH  23  24
ENDBRANCH   2  23
TORSDOF 9
ENDMDL
MODEL 5
REMARK VINA RESULT:      -9.1      6.143      9.163
REMARK  9 active torsions:
REMARK  status: ('A' for Active; 'I' for Inactive)
REMARK    1  A    between atoms: O_2  and  C_3 
REMARK    2  A    between atoms: C_6  and  N_7 
REMARK    3  A    between atoms: N_10  and  C_12 
REMARK    4  A    between atoms: C_12  and  C_13 
REMARK    5  A    between atoms: C_13  and  C_14 
REMARK    6  A    between atoms: C_14  and  N_15 
REMARK       I    between atoms: N_15  and  C_16 
REMARK    7  A    between atoms: C_16  and  C_17 
REMARK    8  A    between atoms: C_17  and  C_18 
REMARK    9  A    between atoms: C_18  and  C_19 
ROOT
HETATM    1  N   UNL     1      39.449 -14.671  -0.154  1.00  0.00    -0.361 N 
HETATM    2  C   UNL     1      40.406 -14.100   0.660  1.00  0.00     0.217 C 
HETATM    3  O   UNL     1      41.135 -13.182   0.292  1.00  0.00    -0.274 OA
HETATM    4  H   UNL     1      39.045 -15.551   0.148  1.00  0.00     0.162 HD
ENDROOT
BRANCH   1   5
HETATM    5  C   UNL     1      39.450 -14.403  -1.577  1.00  0.00     0.124 C 
BRANCH   5   6
HETATM    6  C   UNL     1      38.300 -13.489  -1.997  1.00  0.00     0.047 C 
BRANCH   6   7
HETATM    7  C   UNL     1      38.837 -12.155  -2.498  1.00  0.00     0.236 C 
BRANCH   7   8
HETATM    8  N   UNL     1      38.548 -11.060  -1.493  1.00  0.00    -0.068 N 
HETATM    9  C   UNL     1      37.733 -11.546  -0.284  1.00  0.00     0.254 C 
HETATM   10  C   UNL     1      37.444 -10.370   0.675  1.00  0.00     0.150 C 
HETATM   11  N   UNL     1      38.683  -9.675   1.072  1.00  0.00    -0.378 N 
HETATM   12  C   UNL     1      39.505  -9.208  -0.064  1.00  0.00     0.150 C 
HETATM   13  C   UNL     1      39.837 -10.379  -1.014  1.00  0.00     0.254 C 
HETATM   14  H   UNL     1      37.990 -10.334  -1.961  1.00  0.00     0.280 HD
BRANCH  11  15
HETATM   15  C   UNL     1      39.363 -10.038   2.237  1.00  0.00     0.030 A 
HETATM   16  C   UNL     1      38.742 -10.648   3.335  1.00  0.00     0.032 A 
HETATM   17  C   UNL     1      39.465 -11.001   4.484  1.00  0.00     0.039 A 
HETATM   18  C   UNL     1      40.829 -10.742   4.580  1.00  0.00     0.068 A 
HETATM   19  C   UNL     1      41.462 -10.104   3.521  1.00  0.00     0.039 A 
HETATM   20  C   UNL     1      40.733  -9.756   2.374  1.00  0.00     0.032 A 
BRANCH  18  21
HETATM   21  O   UNL     1      41.410 -11.143   5.748  1.00  0.00    -0.356 OA
HETATM   22  C   UNL     1      42.636 -10.516   6.108  1.00  0.00     0.210 C 
ENDBRANCH  18  21
ENDBRANCH  11  15
ENDBRANCH   7   8
ENDBRANCH   6   7
ENDBRANCH   5   6
ENDBRANCH   1   5
BRANCH   2  23
HETATM   23  C   UNL     1      40.519 -14.724   2.035  1.00  0.00     0.105 C 
BRANCH  23  24
HETATM   24  C   UNL     1      41.474 -13.977   2.973  1.00  0.00     0.046 C 
BRANCH  24  25
HETATM   25  C   UNL     1      42.828 -14.645   3.226  1.00  0.00     0.203 A 
HETATM   26  N   UNL     1      42.893 -15.975   2.585  1.00  0.00    -0.257 NA
HETATM   27  C   UNL     1      43.232 -16.777   3.549  1.00  0.00     0.147 A 
HETATM   28  N   UNL     1      43.390 -16.246   4.798  1.00  0.00    -0.239 N 
HETATM   29  C   UNL     1      43.442 -18.216   3.368  1.00  0.00     0.037 A 
HETATM   30  C   UNL     1      43.693 -16.996   5.939  1.00  0.00     0.187 A 
HETATM   31  C   UNL     1      43.137 -14.894   4.691  1.00  0.00     0.257 A 
HETATM   32  S   UNL     1      43.812 -16.442   7.517  1.00  0.00    -0.040 SA
HETATM   33  N   UNL     1      43.906 -18.342   5.736  1.00  0.00    -0.332 N 
HETATM   34  C   UNL     1      43.790 -18.966   4.489  1.00  0.00     0.048 A 
HETATM   35  H   UNL     1      44.149 -18.898   6.548  1.00  0.00     0.168 HD
HETATM   36  C   UNL     1      44.014 -20.337   4.369  1.00  0.00     0.030 A 
HETATM   37  C   UNL     1      43.888 -20.948   3.120  1.00  0.00     0.002 A 
HETATM   38  C   UNL     1      43.538 -20.195   1.997  1.00  0.00     0.001 A 
HETATM   39  C   UNL     1      43.314 -18.823   2.117  1.00  0.00     0.017 A 
HETATM   40  O   UNL     1      43.115 -14.024   5.550  1.00  0.00    -0.270 OA
ENDBRANCH  24  25
ENDBRANCH  23  24
ENDBRANCH   2  23
TORSDOF 9
ENDMDL
MODEL 6
REMARK VINA RESULT:      -8.9      1.897      2.271
REMARK  9 active torsions:
REMARK  status: ('A' for Active; 'I' for Inactive)
REMARK    1  A    between atoms: O_2  and  C_3 
REMARK    2  A    between atoms: C_6  and  N_7 
REMARK    3  A    between atoms: N_10  and  C_12 
REMARK    4  A    between atoms: C_12  and  C_13 
REMARK    5  A    between atoms: C_13  and  C_14 
REMARK    6  A    between atoms: C_14  and  N_15 
REMARK       I    between atoms: N_15  and  C_16 
REMARK    7  A    between atoms: C_16  and  C_17 
REMARK    8  A    between atoms: C_17  and  C_18 
REMARK    9  A    between atoms: C_18  and  C_19 
ROOT
HETATM    1  N   UNL     1      44.173 -11.237   7.973  1.00  0.00    -0.361 N 
HETATM    2  C   UNL     1      44.836 -11.686   6.848  1.00  0.00     0.217 C 
HETATM    3  O   UNL     1      46.001 -11.388   6.596  1.00  0.00    -0.274 OA
HETATM    4  H   UNL     1      43.166 -11.351   7.996  1.00  0.00     0.162 HD
ENDROOT
BRANCH   1   5
HETATM    5  C   UNL     1      44.733 -10.163   8.767  1.00  0.00     0.124 C 
BRANCH   5   6
HETATM    6  C   UNL     1      43.681  -9.474   9.635  1.00  0.00     0.047 C 
BRANCH   6   7
HETATM    7  C   UNL     1      43.487 -10.234  10.939  1.00  0.00     0.236 C 
BRANCH   7   8
HETATM    8  N   UNL     1      42.022 -10.269  11.316  1.00  0.00    -0.068 N 
HETATM    9  C   UNL     1      41.778 -10.068  12.821  1.00  0.00     0.254 C 
HETATM   10  C   UNL     1      40.268 -10.154  13.136  1.00  0.00     0.150 C 
HETATM   11  N   UNL     1      39.486  -9.218  12.306  1.00  0.00    -0.378 N 
HETATM   12  C   UNL     1      39.706  -9.368  10.853  1.00  0.00     0.150 C 
HETATM   13  C   UNL     1      41.208  -9.244  10.514  1.00  0.00     0.254 C 
HETATM   14  H   UNL     1      41.649 -11.195  11.072  1.00  0.00     0.280 HD
BRANCH  11  15
HETATM   15  C   UNL     1      39.182  -7.936  12.771  1.00  0.00     0.030 A 
HETATM   16  C   UNL     1      39.825  -7.338  13.862  1.00  0.00     0.032 A 
HETATM   17  C   UNL     1      39.491  -6.045  14.292  1.00  0.00     0.039 A 
HETATM   18  C   UNL     1      38.493  -5.314  13.655  1.00  0.00     0.068 A 
HETATM   19  C   UNL     1      37.813  -5.898  12.594  1.00  0.00     0.039 A 
HETATM   20  C   UNL     1      38.154  -7.191  12.168  1.00  0.00     0.032 A 
BRANCH  18  21
HETATM   21  O   UNL     1      38.274  -4.068  14.169  1.00  0.00    -0.356 OA
HETATM   22  C   UNL     1      37.207  -3.314  13.604  1.00  0.00     0.210 C 
ENDBRANCH  18  21
ENDBRANCH  11  15
ENDBRANCH   7   8
ENDBRANCH   6   7
ENDBRANCH   5   6
ENDBRANCH   1   5
BRANCH   2  23
HETATM   23  C   UNL     1      43.999 -12.544   5.923  1.00  0.00     0.105 C 
BRANCH  23  24
HETATM   24  C   UNL     1      42.495 -12.478   6.216  1.00  0.00     0.046 C 
BRANCH  24  25
HETATM   25  C   UNL     1      41.692 -13.741   5.898  1.00  0.00     0.203 A 
HETATM   26  N   UNL     1      42.573 -14.925   5.818  1.00  0.00    -0.257 NA
HETATM   27  C   UNL     1      42.305 -15.443   4.657  1.00  0.00     0.147 A 
HETATM   28  N   UNL     1      41.393 -14.804   3.866  1.00  0.00    -0.239 N 
HETATM   29  C   UNL     1      42.934 -16.667   4.152  1.00  0.00     0.037 A 
HETATM   30  C   UNL     1      41.051 -15.211   2.572  1.00  0.00     0.187 A 
HETATM   31  C   UNL     1      40.961 -13.699   4.569  1.00  0.00     0.257 A 
HETATM   32  S   UNL     1      40.018 -14.437   1.502  1.00  0.00    -0.040 SA
HETATM   33  N   UNL     1      41.642 -16.376   2.132  1.00  0.00    -0.332 N 
HETATM   34  C   UNL     1      42.567 -17.108   2.883  1.00  0.00     0.048 A 
HETATM   35  H   UNL     1      41.389 -16.699   1.205  1.00  0.00     0.168 HD
HETATM   36  C   UNL     1      43.127 -18.273   2.361  1.00  0.00     0.030 A 
HETATM   37  C   UNL     1      44.054 -18.992   3.119  1.00  0.00     0.002 A 
HETATM   38  C   UNL     1      44.422 -18.546   4.391  1.00  0.00     0.001 A 
HETATM   39  C   UNL     1      43.862 -17.381   4.914  1.00  0.00     0.017 A 
HETATM   40  O   UNL     1      40.183 -12.811   4.247  1.00  0.00    -0.270 OA
ENDBRANCH  24  25
ENDBRANCH  23  24
ENDBRANCH   2  23
TORSDOF 9
ENDMDL
MODEL 7
REMARK VINA RESULT:      -8.9      3.727     11.099
REMARK  9 active torsions:
REMARK  status: ('A' for Active; 'I' for Inactive)
REMARK    1  A    between atoms: O_2  and  C_3 
REMARK    2  A    between atoms: C_6  and  N_7 
REMARK    3  A    between atoms: N_10  and  C_12 
REMARK    4  A    between atoms: C_12  and  C_13 
REMARK    5  A    between atoms: C_13  and  C_14 
REMARK    6  A    between atoms: C_14  and  N_15 
REMARK       I    between atoms: N_15  and  C_16 
REMARK    7  A    between atoms: C_16  and  C_17 
REMARK    8  A    between atoms: C_17  and  C_18 
REMARK    9  A    between atoms: C_18  and  C_19 
ROOT
HETATM    1  N   UNL     1      39.396  -9.196   5.657  1.00  0.00    -0.361 N 
HETATM    2  C   UNL     1      39.244  -8.787   6.966  1.00  0.00     0.217 C 
HETATM    3  O   UNL     1      38.880  -9.543   7.864  1.00  0.00    -0.274 OA
HETATM    4  H   UNL     1      39.490  -8.473   4.952  1.00  0.00     0.162 HD
ENDROOT
BRANCH   1   5
HETATM    5  C   UNL     1      38.860 -10.470   5.225  1.00  0.00     0.124 C 
BRANCH   5   6
HETATM    6  C   UNL     1      39.950 -11.523   5.030  1.00  0.00     0.047 C 
BRANCH   6   7
HETATM    7  C   UNL     1      39.579 -12.812   5.751  1.00  0.00     0.236 C 
BRANCH   7   8
HETATM    8  N   UNL     1      40.824 -13.520   6.239  1.00  0.00    -0.068 N 
HETATM    9  C   UNL     1      40.582 -14.996   6.592  1.00  0.00     0.254 C 
HETATM   10  C   UNL     1      41.883 -15.642   7.118  1.00  0.00     0.150 C 
HETATM   11  N   UNL     1      43.000 -15.464   6.171  1.00  0.00    -0.378 N 
HETATM   12  C   UNL     1      43.253 -14.057   5.792  1.00  0.00     0.150 C 
HETATM   13  C   UNL     1      41.972 -13.407   5.226  1.00  0.00     0.254 C 
HETATM   14  H   UNL     1      41.143 -13.053   7.097  1.00  0.00     0.280 HD
BRANCH  11  15
HETATM   15  C   UNL     1      43.284 -16.438   5.211  1.00  0.00     0.030 A 
HETATM   16  C   UNL     1      44.200 -17.479   5.415  1.00  0.00     0.032 A 
HETATM   17  C   UNL     1      44.450 -18.439   4.425  1.00  0.00     0.039 A 
HETATM   18  C   UNL     1      43.807 -18.384   3.192  1.00  0.00     0.068 A 
HETATM   19  C   UNL     1      42.922 -17.341   2.950  1.00  0.00     0.039 A 
HETATM   20  C   UNL     1      42.674 -16.384   3.946  1.00  0.00     0.032 A 
BRANCH  18  21
HETATM   21  O   UNL     1      44.136 -19.384   2.324  1.00  0.00    -0.356 OA
HETATM   22  C   UNL     1      43.696 -20.696   2.653  1.00  0.00     0.210 C 
ENDBRANCH  18  21
ENDBRANCH  11  15
ENDBRANCH   7   8
ENDBRANCH   6   7
ENDBRANCH   5   6
ENDBRANCH   1   5
BRANCH   2  23
HETATM   23  C   UNL     1      39.522  -7.319   7.206  1.00  0.00     0.105 C 
BRANCH  23  24
HETATM   24  C   UNL     1      38.953  -6.793   8.529  1.00  0.00     0.046 C 
BRANCH  24  25
HETATM   25  C   UNL     1      39.918  -6.776   9.717  1.00  0.00     0.203 A 
HETATM   26  N   UNL     1      41.294  -7.109   9.290  1.00  0.00    -0.257 NA
HETATM   27  C   UNL     1      41.639  -8.092  10.066  1.00  0.00     0.147 A 
HETATM   28  N   UNL     1      40.720  -8.548  10.967  1.00  0.00    -0.239 N 
HETATM   29  C   UNL     1      42.954  -8.737  10.017  1.00  0.00     0.037 A 
HETATM   30  C   UNL     1      40.930  -9.635  11.823  1.00  0.00     0.187 A 
HETATM   31  C   UNL     1      39.587  -7.779  10.806  1.00  0.00     0.257 A 
HETATM   32  S   UNL     1      39.830 -10.318  12.888  1.00  0.00    -0.040 SA
HETATM   33  N   UNL     1      42.182 -10.209  11.771  1.00  0.00    -0.332 N 
HETATM   34  C   UNL     1      43.191  -9.790  10.897  1.00  0.00     0.048 A 
HETATM   35  H   UNL     1      42.360 -10.984  12.400  1.00  0.00     0.168 HD
HETATM   36  C   UNL     1      44.430 -10.430  10.901  1.00  0.00     0.030 A 
HETATM   37  C   UNL     1      45.427 -10.006  10.019  1.00  0.00     0.002 A 
HETATM   38  C   UNL     1      45.186  -8.950   9.136  1.00  0.00     0.001 A 
HETATM   39  C   UNL     1      43.947  -8.310   9.133  1.00  0.00     0.017 A 
HETATM   40  O   UNL     1      38.498  -7.850  11.360  1.00  0.00    -0.270 OA
ENDBRANCH  24  25
ENDBRANCH  23  24
ENDBRANCH   2  23
TORSDOF 9
ENDMDL
MODEL 8
REMARK VINA RESULT:      -8.8      3.224     12.380
REMARK  9 active torsions:
REMARK  status: ('A' for Active; 'I' for Inactive)
REMARK    1  A    between atoms: O_2  and  C_3 
REMARK    2  A    between atoms: C_6  and  N_7 
REMARK    3  A    between atoms: N_10  and  C_12 
REMARK    4  A    between atoms: C_12  and  C_13 
REMARK    5  A    between atoms: C_13  and  C_14 
REMARK    6  A    between atoms: C_14  and  N_15 
REMARK       I    between atoms: N_15  and  C_16 
REMARK    7  A    between atoms: C_16  and  C_17 
REMARK    8  A    between atoms: C_17  and  C_18 
REMARK    9  A    between atoms: C_18  and  C_19 
ROOT
HETATM    1  N   UNL     1      42.861 -10.026   9.029  1.00  0.00    -0.361 N 
HETATM    2  C   UNL     1      44.035  -9.920   9.748  1.00  0.00     0.217 C 
HETATM    3  O   UNL     1      45.048  -9.390   9.299  1.00  0.00    -0.274 OA
HETATM    4  H   UNL     1      42.152 -10.658   9.385  1.00  0.00     0.162 HD
ENDROOT
BRANCH   1   5
HETATM    5  C   UNL     1      42.855  -9.767   7.604  1.00  0.00     0.124 C 
BRANCH   5   6
HETATM    6  C   UNL     1      43.307 -10.979   6.791  1.00  0.00     0.047 C 
BRANCH   6   7
HETATM    7  C   UNL     1      42.115 -11.633   6.106  1.00  0.00     0.236 C 
BRANCH   7   8
HETATM    8  N   UNL     1      41.918 -13.042   6.624  1.00  0.00    -0.068 N 
HETATM    9  C   UNL     1      40.950 -13.873   5.765  1.00  0.00     0.254 C 
HETATM   10  C   UNL     1      40.769 -15.282   6.373  1.00  0.00     0.150 C 
HETATM   11  N   UNL     1      42.064 -15.956   6.577  1.00  0.00    -0.378 N 
HETATM   12  C   UNL     1      43.030 -15.180   7.383  1.00  0.00     0.150 C 
HETATM   13  C   UNL     1      43.255 -13.783   6.767  1.00  0.00     0.254 C 
HETATM   14  H   UNL     1      41.512 -12.985   7.566  1.00  0.00     0.280 HD
BRANCH  11  15
HETATM   15  C   UNL     1      42.592 -16.799   5.596  1.00  0.00     0.030 A 
HETATM   16  C   UNL     1      43.424 -17.890   5.881  1.00  0.00     0.032 A 
HETATM   17  C   UNL     1      43.927 -18.713   4.863  1.00  0.00     0.039 A 
HETATM   18  C   UNL     1      43.629 -18.466   3.527  1.00  0.00     0.068 A 
HETATM   19  C   UNL     1      42.837 -17.368   3.214  1.00  0.00     0.039 A 
HETATM   20  C   UNL     1      42.335 -16.550   4.237  1.00  0.00     0.032 A 
BRANCH  18  21
HETATM   21  O   UNL     1      44.177 -19.348   2.641  1.00  0.00    -0.356 OA
HETATM   22  C   UNL     1      43.921 -20.730   2.863  1.00  0.00     0.210 C 
ENDBRANCH  18  21
ENDBRANCH  11  15
ENDBRANCH   7   8
ENDBRANCH   6   7
ENDBRANCH   5   6
ENDBRANCH   1   5
BRANCH   2  23
HETATM   23  C   UNL     1      43.990 -10.548  11.125  1.00  0.00     0.105 C 
BRANCH  23  24
HETATM   24  C   UNL     1      42.772 -10.126  11.954  1.00  0.00     0.046 C 
BRANCH  24  25
HETATM   25  C   UNL     1      42.735  -8.663  12.401  1.00  0.00     0.203 A 
HETATM   26  N   UNL     1      42.519  -8.558  13.860  1.00  0.00    -0.257 NA
HETATM   27  C   UNL     1      41.491  -7.772  13.974  1.00  0.00     0.147 A 
HETATM   28  N   UNL     1      40.905  -7.315  12.828  1.00  0.00    -0.239 N 
HETATM   29  C   UNL     1      40.927  -7.359  15.262  1.00  0.00     0.037 A 
HETATM   30  C   UNL     1      39.759  -6.514  12.796  1.00  0.00     0.187 A 
HETATM   31  C   UNL     1      41.621  -7.846  11.775  1.00  0.00     0.257 A 
HETATM   32  S   UNL     1      38.923  -5.989  11.440  1.00  0.00    -0.040 SA
HETATM   33  N   UNL     1      39.262  -6.124  14.020  1.00  0.00    -0.332 N 
HETATM   34  C   UNL     1      39.813  -6.523  15.243  1.00  0.00     0.048 A 
HETATM   35  H   UNL     1      38.445  -5.524  14.017  1.00  0.00     0.168 HD
HETATM   36  C   UNL     1      39.245  -6.091  16.440  1.00  0.00     0.030 A 
HETATM   37  C   UNL     1      39.801  -6.502  17.654  1.00  0.00     0.002 A 
HETATM   38  C   UNL     1      40.917  -7.342  17.671  1.00  0.00     0.001 A 
HETATM   39  C   UNL     1      41.485  -7.774  16.472  1.00  0.00     0.017 A 
HETATM   40  O   UNL     1      41.441  -7.751  10.569  1.00  0.00    -0.270 OA
ENDBRANCH  24  25
ENDBRANCH  23  24
ENDBRANCH   2  23
TORSDOF 9
ENDMDL
MODEL 9
REMARK VINA RESULT:      -8.8      3.783     11.127
REMARK  9 active torsions:
REMARK  status: ('A' for Active; 'I' for Inactive)
REMARK    1  A    between atoms: O_2  and  C_3 
REMARK    2  A    between atoms: C_6  and  N_7 
REMARK    3  A    between atoms: N_10  and  C_12 
REMARK    4  A    between atoms: C_12  and  C_13 
REMARK    5  A    between atoms: C_13  and  C_14 
REMARK    6  A    between atoms: C_14  and  N_15 
REMARK       I    between atoms: N_15  and  C_16 
REMARK    7  A    between atoms: C_16  and  C_17 
REMARK    8  A    between atoms: C_17  and  C_18 
REMARK    9  A    between atoms: C_18  and  C_19 
ROOT
HETATM    1  N   UNL     1      39.116 -10.061   3.935  1.00  0.00    -0.361 N 
HETATM    2  C   UNL     1      39.995  -9.939   4.991  1.00  0.00     0.217 C 
HETATM    3  O   UNL     1      41.215 -10.011   4.857  1.00  0.00    -0.274 OA
HETATM    4  H   UNL     1      38.137 -10.204   4.158  1.00  0.00     0.162 HD
ENDROOT
BRANCH   1   5
HETATM    5  C   UNL     1      39.578 -10.562   2.657  1.00  0.00     0.124 C 
BRANCH   5   6
HETATM    6  C   UNL     1      38.769 -11.765   2.177  1.00  0.00     0.047 C 
BRANCH   6   7
HETATM    7  C   UNL     1      39.106 -12.997   3.005  1.00  0.00     0.236 C 
BRANCH   7   8
HETATM    8  N   UNL     1      40.606 -13.182   3.090  1.00  0.00    -0.068 N 
HETATM    9  C   UNL     1      41.072 -13.741   4.444  1.00  0.00     0.254 C 
HETATM   10  C   UNL     1      42.611 -13.866   4.471  1.00  0.00     0.150 C 
HETATM   11  N   UNL     1      43.113 -14.655   3.331  1.00  0.00    -0.378 N 
HETATM   12  C   UNL     1      42.671 -14.160   2.011  1.00  0.00     0.150 C 
HETATM   13  C   UNL     1      41.131 -14.067   1.952  1.00  0.00     0.254 C 
HETATM   14  H   UNL     1      41.049 -12.262   2.975  1.00  0.00     0.280 HD
BRANCH  11  15
HETATM   15  C   UNL     1      43.321 -16.031   3.453  1.00  0.00     0.030 A 
HETATM   16  C   UNL     1      43.762 -16.644   4.633  1.00  0.00     0.032 A 
HETATM   17  C   UNL     1      43.952 -18.031   4.712  1.00  0.00     0.039 A 
HETATM   18  C   UNL     1      43.723 -18.851   3.611  1.00  0.00     0.068 A 
HETATM   19  C   UNL     1      43.322 -18.265   2.418  1.00  0.00     0.039 A 
HETATM   20  C   UNL     1      43.131 -16.877   2.346  1.00  0.00     0.032 A 
BRANCH  18  21
HETATM   21  O   UNL     1      43.940 -20.181   3.827  1.00  0.00    -0.356 OA
HETATM   22  C   UNL     1      44.324 -20.568   5.142  1.00  0.00     0.210 C 
ENDBRANCH  18  21
ENDBRANCH  11  15
ENDBRANCH   7   8
ENDBRANCH   6   7
ENDBRANCH   5   6
ENDBRANCH   1   5
BRANCH   2  23
HETATM   23  C   UNL     1      39.337  -9.751   6.342  1.00  0.00     0.105 C 
BRANCH  23  24
HETATM   24  C   UNL     1      39.092  -8.282   6.707  1.00  0.00     0.046 C 
BRANCH  24  25
HETATM   25  C   UNL     1      39.825  -7.765   7.947  1.00  0.00     0.203 A 
HETATM   26  N   UNL     1      41.284  -7.972   7.826  1.00  0.00    -0.257 NA
HETATM   27  C   UNL     1      41.605  -8.620   8.906  1.00  0.00     0.147 A 
HETATM   28  N   UNL     1      40.605  -8.947   9.776  1.00  0.00    -0.239 N 
HETATM   29  C   UNL     1      42.976  -9.023   9.230  1.00  0.00     0.037 A 
HETATM   30  C   UNL     1      40.791  -9.693  10.945  1.00  0.00     0.187 A 
HETATM   31  C   UNL     1      39.432  -8.456   9.239  1.00  0.00     0.257 A 
HETATM   32  S   UNL     1      39.612 -10.216  12.016  1.00  0.00    -0.040 SA
HETATM   33  N   UNL     1      42.093 -10.040  11.236  1.00  0.00    -0.332 N 
HETATM   34  C   UNL     1      43.181  -9.726  10.415  1.00  0.00     0.048 A 
HETATM   35  H   UNL     1      42.250 -10.562  12.091  1.00  0.00     0.168 HD
HETATM   36  C   UNL     1      44.467 -10.122  10.777  1.00  0.00     0.030 A 
HETATM   37  C   UNL     1      45.545  -9.808   9.945  1.00  0.00     0.002 A 
HETATM   38  C   UNL     1      45.336  -9.104   8.756  1.00  0.00     0.001 A 
HETATM   39  C   UNL     1      44.049  -8.707   8.395  1.00  0.00     0.017 A 
HETATM   40  O   UNL     1      38.280  -8.547   9.641  1.00  0.00    -0.270 OA
ENDBRANCH  24  25
ENDBRANCH  23  24
ENDBRANCH   2  23
TORSDOF 9
ENDMDL
MODEL 10
REMARK VINA RESULT:      -8.6      3.710     12.512
REMARK  9 active torsions:
REMARK  status: ('A' for Active; 'I' for Inactive)
REMARK    1  A    between atoms: O_2  and  C_3 
REMARK    2  A    between atoms: C_6  and  N_7 
REMARK    3  A    between atoms: N_10  and  C_12 
REMARK    4  A    between atoms: C_12  and  C_13 
REMARK    5  A    between atoms: C_13  and  C_14 
REMARK    6  A    between atoms: C_14  and  N_15 
REMARK       I    between atoms: N_15  and  C_16 
REMARK    7  A    between atoms: C_16  and  C_17 
REMARK    8  A    between atoms: C_17  and  C_18 
REMARK    9  A    between atoms: C_18  and  C_19 
ROOT
HETATM    1  N   UNL     1      45.173 -10.030   9.167  1.00  0.00    -0.361 N 
HETATM    2  C   UNL     1      43.889  -9.868   9.647  1.00  0.00     0.217 C 
HETATM    3  O   UNL     1      42.891  -9.986   8.940  1.00  0.00    -0.274 OA
HETATM    4  H   UNL     1      45.934  -9.709   9.755  1.00  0.00     0.162 HD
ENDROOT
BRANCH   1   5
HETATM    5  C   UNL     1      45.416 -10.070   7.740  1.00  0.00     0.124 C 
BRANCH   5   6
HETATM    6  C   UNL     1      45.189 -11.461   7.150  1.00  0.00     0.047 C 
BRANCH   6   7
HETATM    7  C   UNL     1      44.282 -11.380   5.931  1.00  0.00     0.236 C 
BRANCH   7   8
HETATM    8  N   UNL     1      43.236 -12.473   5.979  1.00  0.00    -0.068 N 
HETATM    9  C   UNL     1      42.678 -12.839   4.594  1.00  0.00     0.254 C 
HETATM   10  C   UNL     1      41.592 -13.930   4.724  1.00  0.00     0.150 C 
HETATM   11  N   UNL     1      42.089 -15.106   5.462  1.00  0.00    -0.378 N 
HETATM   12  C   UNL     1      42.650 -14.793   6.793  1.00  0.00     0.150 C 
HETATM   13  C   UNL     1      43.767 -13.732   6.677  1.00  0.00     0.254 C 
HETATM   14  H   UNL     1      42.445 -12.136   6.543  1.00  0.00     0.280 HD
BRANCH  11  15
HETATM   15  C   UNL     1      42.643 -16.193   4.782  1.00  0.00     0.030 A 
HETATM   16  C   UNL     1      42.389 -16.470   3.432  1.00  0.00     0.032 A 
HETATM   17  C   UNL     1      42.971 -17.571   2.787  1.00  0.00     0.039 A 
HETATM   18  C   UNL     1      43.815 -18.440   3.473  1.00  0.00     0.068 A 
HETATM   19  C   UNL     1      44.054 -18.210   4.821  1.00  0.00     0.039 A 
HETATM   20  C   UNL     1      43.469 -17.106   5.460  1.00  0.00     0.032 A 
BRANCH  18  21
HETATM   21  O   UNL     1      44.319 -19.464   2.724  1.00  0.00    -0.356 OA
HETATM   22  C   UNL     1      43.385 -20.255   1.999  1.00  0.00     0.210 C 
ENDBRANCH  18  21
ENDBRANCH  11  15
ENDBRANCH   7   8
ENDBRANCH   6   7
ENDBRANCH   5   6
ENDBRANCH   1   5
BRANCH   2  23
HETATM   23  C   UNL     1      43.805  -9.490  11.111  1.00  0.00     0.105 C 
BRANCH  23  24
HETATM   24  C   UNL     1      42.474  -9.872  11.770  1.00  0.00     0.046 C 
BRANCH  24  25
HETATM   25  C   UNL     1      41.488  -8.726  12.007  1.00  0.00     0.203 A 
HETATM   26  N   UNL     1      41.927  -7.495  11.317  1.00  0.00    -0.257 NA
HETATM   27  C   UNL     1      41.943  -6.594  12.253  1.00  0.00     0.147 A 
HETATM   28  N   UNL     1      41.618  -6.982  13.521  1.00  0.00    -0.239 N 
HETATM   29  C   UNL     1      42.299  -5.191  12.019  1.00  0.00     0.037 A 
HETATM   30  C   UNL     1      41.650  -6.138  14.636  1.00  0.00     0.187 A 
HETATM   31  C   UNL     1      41.329  -8.330  13.463  1.00  0.00     0.257 A 
HETATM   32  S   UNL     1      41.359  -6.552  16.234  1.00  0.00    -0.040 SA
HETATM   33  N   UNL     1      41.967  -4.821  14.384  1.00  0.00    -0.332 N 
HETATM   34  C   UNL     1      42.290  -4.330  13.114  1.00  0.00     0.048 A 
HETATM   35  H   UNL     1      41.974  -4.189  15.176  1.00  0.00     0.168 HD
HETATM   36  C   UNL     1      42.608  -2.984  12.944  1.00  0.00     0.030 A 
HETATM   37  C   UNL     1      42.934  -2.508  11.672  1.00  0.00     0.002 A 
HETATM   38  C   UNL     1      42.944  -3.374  10.576  1.00  0.00     0.001 A 
HETATM   39  C   UNL     1      42.625  -4.721  10.746  1.00  0.00     0.017 A 
HETATM   40  O   UNL     1      41.032  -9.114  14.354  1.00  0.00    -0.270 OA
ENDBRANCH  24  25
ENDBRANCH  23  24
ENDBRANCH   2  23
TORSDOF 9
ENDMDL
