MODEL 1
REMARK VINA RESULT:      -9.3      0.000      0.000
REMARK  8 active torsions:
REMARK  status: ('A' for Active; 'I' for Inactive)
REMARK    1  A    between atoms: C_2  and  O_3 
REMARK    2  A    between atoms: O_3  and  C_4 
REMARK    3  A    between atoms: C_4  and  C_5 
REMARK    4  A    between atoms: C_10  and  N_11 
REMARK       I    between atoms: N_11  and  C_12 
REMARK    5  A    between atoms: C_12  and  C_13 
REMARK    6  A    between atoms: C_13  and  N_14 
REMARK    7  A    between atoms: N_18  and  C_19 
REMARK    8  A    between atoms: C_21  and  C_22 
ROOT
HETATM    1  N   UNL     1      41.825  -9.882   9.310  1.00  0.00    -0.323 N 
HETATM    2  C   UNL     1      41.985  -9.116   8.175  1.00  0.00     0.248 C 
HETATM    3  O   UNL     1      42.315  -7.933   8.162  1.00  0.00    -0.271 OA
HETATM    4  H   UNL     1      42.015 -10.883   9.267  1.00  0.00     0.169 HD
ENDROOT
BRANCH   1   5
HETATM    5  C   UNL     1      41.812  -9.352  10.600  1.00  0.00     0.080 A 
HETATM    6  C   UNL     1      42.853  -9.566  11.490  1.00  0.00     0.137 A 
HETATM    7  N   UNL     1      42.543  -8.895  12.648  1.00  0.00    -0.349 N 
HETATM    8  H   UNL     1      43.142  -8.860  13.464  1.00  0.00     0.166 HD
HETATM    9  C   UNL     1      41.319  -8.279  12.549  1.00  0.00     0.048 A 
HETATM   10  C   UNL     1      40.816  -8.563  11.270  1.00  0.00     0.023 A 
HETATM   11  C   UNL     1      40.633  -7.503  13.499  1.00  0.00     0.070 A 
HETATM   12  C   UNL     1      39.526  -8.084  10.937  1.00  0.00     0.055 A 
HETATM   13  C   UNL     1      38.861  -7.317  11.874  1.00  0.00     0.106 A 
HETATM   14  C   UNL     1      39.396  -7.034  13.103  1.00  0.00     0.107 A 
HETATM   15  O   UNL     1      37.628  -6.767  11.701  1.00  0.00    -0.323 OA
HETATM   16  O   UNL     1      38.569  -6.262  13.861  1.00  0.00    -0.323 OA
HETATM   17  C   UNL     1      37.465  -6.070  12.953  1.00  0.00     0.352 A 
BRANCH   6  18
HETATM   18  C   UNL     1      44.081 -10.291  11.269  1.00  0.00     0.312 C 
HETATM   19  O   UNL     1      44.283 -11.430  11.675  1.00  0.00    -0.258 OA
BRANCH  18  20
HETATM   20  O   UNL     1      44.935  -9.536  10.529  1.00  0.00    -0.317 OA
BRANCH  20  21
HETATM   21  C   UNL     1      45.433 -10.138   9.324  1.00  0.00     0.175 C 
HETATM   22  C   UNL     1      45.835  -9.063   8.335  1.00  0.00     0.034 C 
ENDBRANCH  20  21
ENDBRANCH  18  20
ENDBRANCH   6  18
ENDBRANCH   1   5
BRANCH   2  23
HETATM   23  C   UNL     1      41.744  -9.879   6.864  1.00  0.00     0.337 C 
BRANCH  23  24
HETATM   24  N   UNL     1      41.948 -11.403   6.932  1.00  0.00    -0.060 N 
HETATM   25  H   UNL     1      41.614 -11.715   7.850  1.00  0.00     0.280 HD
HETATM   26  C   UNL     1      41.116 -12.162   5.885  1.00  0.00     0.255 C 
HETATM   27  C   UNL     1      41.352 -13.684   5.983  1.00  0.00     0.150 C 
HETATM   28  N   UNL     1      42.795 -13.973   5.907  1.00  0.00    -0.378 N 
HETATM   29  C   UNL     1      43.613 -13.320   6.939  1.00  0.00     0.150 C 
HETATM   30  C   UNL     1      43.430 -11.790   6.852  1.00  0.00     0.255 C 
BRANCH  28  31
HETATM   31  C   UNL     1      43.170 -15.219   5.410  1.00  0.00     0.030 A 
HETATM   32  C   UNL     1      42.743 -15.614   4.131  1.00  0.00     0.045 A 
HETATM   33  C   UNL     1      43.128 -16.839   3.554  1.00  0.00     0.050 A 
HETATM   34  C   UNL     1      43.977 -17.685   4.273  1.00  0.00     0.016 A 
HETATM   35  C   UNL     1      44.418 -17.315   5.540  1.00  0.00     0.003 A 
HETATM   36  C   UNL     1      44.019 -16.095   6.097  1.00  0.00     0.029 A 
BRANCH  33  37
HETATM   37  C   UNL     1      42.679 -17.208   2.162  1.00  0.00     0.417 C 
HETATM   38  F   UNL     1      41.343 -17.017   1.965  1.00  0.00    -0.166 F 
HETATM   39  F   UNL     1      43.308 -16.476   1.203  1.00  0.00    -0.166 F 
HETATM   40  F   UNL     1      42.916 -18.513   1.859  1.00  0.00    -0.166 F 
ENDBRANCH  33  37
ENDBRANCH  28  31
ENDBRANCH  23  24
ENDBRANCH   2  23
TORSDOF 8
ENDMDL
MODEL 2
REMARK VINA RESULT:      -9.2      8.095     10.714
REMARK  8 active torsions:
REMARK  status: ('A' for Active; 'I' for Inactive)
REMARK    1  A    between atoms: C_2  and  O_3 
REMARK    2  A    between atoms: O_3  and  C_4 
REMARK    3  A    between atoms: C_4  and  C_5 
REMARK    4  A    between atoms: C_10  and  N_11 
REMARK       I    between atoms: N_11  and  C_12 
REMARK    5  A    between atoms: C_12  and  C_13 
REMARK    6  A    between atoms: C_13  and  N_14 
REMARK    7  A    between atoms: N_18  and  C_19 
REMARK    8  A    between atoms: C_21  and  C_22 
ROOT
HETATM    1  N   UNL     1      41.006 -11.324  -0.311  1.00  0.00    -0.323 N 
HETATM    2  C   UNL     1      40.009 -11.114   0.618  1.00  0.00     0.248 C 
HETATM    3  O   UNL     1      39.004 -10.432   0.435  1.00  0.00    -0.271 OA
HETATM    4  H   UNL     1      41.522 -12.203  -0.299  1.00  0.00     0.169 HD
ENDROOT
BRANCH   1   5
HETATM    5  C   UNL     1      41.102 -10.615  -1.509  1.00  0.00     0.080 A 
HETATM    6  C   UNL     1      40.755 -11.183  -2.725  1.00  0.00     0.137 A 
HETATM    7  N   UNL     1      40.941 -10.222  -3.690  1.00  0.00    -0.349 N 
HETATM    8  H   UNL     1      40.742 -10.357  -4.674  1.00  0.00     0.166 HD
HETATM    9  C   UNL     1      41.427  -9.059  -3.142  1.00  0.00     0.048 A 
HETATM   10  C   UNL     1      41.560  -9.278  -1.762  1.00  0.00     0.023 A 
HETATM   11  C   UNL     1      41.756  -7.847  -3.772  1.00  0.00     0.070 A 
HETATM   12  C   UNL     1      42.104  -8.238  -0.970  1.00  0.00     0.055 A 
HETATM   13  C   UNL     1      42.420  -7.047  -1.597  1.00  0.00     0.106 A 
HETATM   14  C   UNL     1      42.247  -6.859  -2.942  1.00  0.00     0.107 A 
HETATM   15  O   UNL     1      42.928  -5.948  -0.975  1.00  0.00    -0.323 OA
HETATM   16  O   UNL     1      42.621  -5.612  -3.341  1.00  0.00    -0.323 OA
HETATM   17  C   UNL     1      43.020  -5.030  -2.084  1.00  0.00     0.352 A 
BRANCH   6  18
HETATM   18  C   UNL     1      40.232 -12.503  -2.977  1.00  0.00     0.312 C 
HETATM   19  O   UNL     1      40.875 -13.404  -3.504  1.00  0.00    -0.258 OA
BRANCH  18  20
HETATM   20  O   UNL     1      38.957 -12.589  -2.515  1.00  0.00    -0.317 OA
BRANCH  20  21
HETATM   21  C   UNL     1      38.503 -13.900  -2.144  1.00  0.00     0.175 C 
HETATM   22  C   UNL     1      39.435 -14.500  -1.112  1.00  0.00     0.034 C 
ENDBRANCH  20  21
ENDBRANCH  18  20
ENDBRANCH   6  18
ENDBRANCH   1   5
BRANCH   2  23
HETATM   23  C   UNL     1      40.230 -11.845   1.951  1.00  0.00     0.337 C 
BRANCH  23  24
HETATM   24  N   UNL     1      41.009 -13.170   1.863  1.00  0.00    -0.060 N 
HETATM   25  H   UNL     1      41.163 -13.368   0.869  1.00  0.00     0.280 HD
HETATM   26  C   UNL     1      42.400 -13.086   2.510  1.00  0.00     0.255 C 
HETATM   27  C   UNL     1      43.147 -14.433   2.406  1.00  0.00     0.150 C 
HETATM   28  N   UNL     1      42.308 -15.513   2.955  1.00  0.00    -0.378 N 
HETATM   29  C   UNL     1      40.997 -15.670   2.310  1.00  0.00     0.150 C 
HETATM   30  C   UNL     1      40.205 -14.349   2.424  1.00  0.00     0.255 C 
BRANCH  28  31
HETATM   31  C   UNL     1      42.964 -16.628   3.472  1.00  0.00     0.030 A 
HETATM   32  C   UNL     1      42.921 -17.846   2.772  1.00  0.00     0.045 A 
HETATM   33  C   UNL     1      43.604 -18.993   3.216  1.00  0.00     0.050 A 
HETATM   34  C   UNL     1      44.362 -18.915   4.387  1.00  0.00     0.016 A 
HETATM   35  C   UNL     1      44.424 -17.721   5.098  1.00  0.00     0.003 A 
HETATM   36  C   UNL     1      43.734 -16.592   4.641  1.00  0.00     0.029 A 
BRANCH  33  37
HETATM   37  C   UNL     1      43.564 -20.271   2.413  1.00  0.00     0.417 C 
HETATM   38  F   UNL     1      44.460 -20.282   1.386  1.00  0.00    -0.166 F 
HETATM   39  F   UNL     1      43.845 -21.366   3.169  1.00  0.00    -0.166 F 
HETATM   40  F   UNL     1      42.348 -20.502   1.849  1.00  0.00    -0.166 F 
ENDBRANCH  33  37
ENDBRANCH  28  31
ENDBRANCH  23  24
ENDBRANCH   2  23
TORSDOF 8
ENDMDL
MODEL 3
REMARK VINA RESULT:      -8.9      7.432     11.721
REMARK  8 active torsions:
REMARK  status: ('A' for Active; 'I' for Inactive)
REMARK    1  A    between atoms: C_2  and  O_3 
REMARK    2  A    between atoms: O_3  and  C_4 
REMARK    3  A    between atoms: C_4  and  C_5 
REMARK    4  A    between atoms: C_10  and  N_11 
REMARK       I    between atoms: N_11  and  C_12 
REMARK    5  A    between atoms: C_12  and  C_13 
REMARK    6  A    between atoms: C_13  and  N_14 
REMARK    7  A    between atoms: N_18  and  C_19 
REMARK    8  A    between atoms: C_21  and  C_22 
ROOT
HETATM    1  N   UNL     1      41.746 -15.069   1.292  1.00  0.00    -0.323 N 
HETATM    2  C   UNL     1      40.387 -15.227   1.119  1.00  0.00     0.248 C 
HETATM    3  O   UNL     1      39.600 -15.579   1.993  1.00  0.00    -0.271 OA
HETATM    4  H   UNL     1      42.242 -14.371   0.737  1.00  0.00     0.169 HD
ENDROOT
BRANCH   1   5
HETATM    5  C   UNL     1      42.431 -15.493   2.431  1.00  0.00     0.080 A 
HETATM    6  C   UNL     1      42.810 -14.608   3.428  1.00  0.00     0.137 A 
HETATM    7  N   UNL     1      43.435 -15.342   4.407  1.00  0.00    -0.349 N 
HETATM    8  H   UNL     1      43.795 -14.952   5.270  1.00  0.00     0.166 HD
HETATM    9  C   UNL     1      43.501 -16.671   4.061  1.00  0.00     0.048 A 
HETATM   10  C   UNL     1      42.891 -16.801   2.804  1.00  0.00     0.023 A 
HETATM   11  C   UNL     1      44.058 -17.749   4.770  1.00  0.00     0.070 A 
HETATM   12  C   UNL     1      42.882 -18.078   2.193  1.00  0.00     0.055 A 
HETATM   13  C   UNL     1      43.427 -19.134   2.899  1.00  0.00     0.106 A 
HETATM   14  C   UNL     1      43.987 -18.976   4.139  1.00  0.00     0.107 A 
HETATM   15  O   UNL     1      43.476 -20.423   2.463  1.00  0.00    -0.323 OA
HETATM   16  O   UNL     1      44.457 -20.148   4.647  1.00  0.00    -0.323 OA
HETATM   17  C   UNL     1      44.100 -21.066   3.593  1.00  0.00     0.352 A 
BRANCH   6  18
HETATM   18  C   UNL     1      42.562 -13.189   3.505  1.00  0.00     0.312 C 
HETATM   19  O   UNL     1      42.927 -12.385   2.655  1.00  0.00    -0.258 OA
BRANCH  18  20
HETATM   20  O   UNL     1      41.845 -12.907   4.625  1.00  0.00    -0.317 OA
BRANCH  20  21
HETATM   21  C   UNL     1      40.476 -13.340   4.629  1.00  0.00     0.175 C 
HETATM   22  C   UNL     1      39.660 -12.491   3.675  1.00  0.00     0.034 C 
ENDBRANCH  20  21
ENDBRANCH  18  20
ENDBRANCH   6  18
ENDBRANCH   1   5
BRANCH   2  23
HETATM   23  C   UNL     1      39.891 -14.890  -0.296  1.00  0.00     0.337 C 
BRANCH  23  24
HETATM   24  N   UNL     1      40.496 -13.625  -0.931  1.00  0.00    -0.060 N 
HETATM   25  H   UNL     1      41.503 -13.637  -0.735  1.00  0.00     0.280 HD
HETATM   26  C   UNL     1      40.351 -13.601  -2.461  1.00  0.00     0.255 C 
HETATM   27  C   UNL     1      40.965 -12.317  -3.059  1.00  0.00     0.150 C 
HETATM   28  N   UNL     1      40.390 -11.132  -2.396  1.00  0.00    -0.378 N 
HETATM   29  C   UNL     1      40.575 -11.087  -0.939  1.00  0.00     0.150 C 
HETATM   30  C   UNL     1      39.943 -12.342  -0.299  1.00  0.00     0.255 C 
BRANCH  28  31
HETATM   31  C   UNL     1      40.355  -9.948  -3.127  1.00  0.00     0.030 A 
HETATM   32  C   UNL     1      41.439  -9.056  -3.057  1.00  0.00     0.045 A 
HETATM   33  C   UNL     1      41.486  -7.867  -3.810  1.00  0.00     0.050 A 
HETATM   34  C   UNL     1      40.423  -7.571  -4.667  1.00  0.00     0.016 A 
HETATM   35  C   UNL     1      39.339  -8.439  -4.758  1.00  0.00     0.003 A 
HETATM   36  C   UNL     1      39.311  -9.613  -3.998  1.00  0.00     0.029 A 
BRANCH  33  37
HETATM   37  C   UNL     1      42.686  -6.956  -3.735  1.00  0.00     0.417 C 
HETATM   38  F   UNL     1      43.523  -7.089  -4.803  1.00  0.00    -0.166 F 
HETATM   39  F   UNL     1      42.337  -5.642  -3.693  1.00  0.00    -0.166 F 
HETATM   40  F   UNL     1      43.452  -7.181  -2.633  1.00  0.00    -0.166 F 
ENDBRANCH  33  37
ENDBRANCH  28  31
ENDBRANCH  23  24
ENDBRANCH   2  23
TORSDOF 8
ENDMDL
MODEL 4
REMARK VINA RESULT:      -8.9      1.720      2.151
REMARK  8 active torsions:
REMARK  status: ('A' for Active; 'I' for Inactive)
REMARK    1  A    between atoms: C_2  and  O_3 
REMARK    2  A    between atoms: O_3  and  C_4 
REMARK    3  A    between atoms: C_4  and  C_5 
REMARK    4  A    between atoms: C_10  and  N_11 
REMARK       I    between atoms: N_11  and  C_12 
REMARK    5  A    between atoms: C_12  and  C_13 
REMARK    6  A    between atoms: C_13  and  N_14 
REMARK    7  A    between atoms: N_18  and  C_19 
REMARK    8  A    between atoms: C_21  and  C_22 
ROOT
HETATM    1  N   UNL     1      41.506  -9.700   9.299  1.00  0.00    -0.323 N 
HETATM    2  C   UNL     1      41.562  -9.165   8.029  1.00  0.00     0.248 C 
HETATM    3  O   UNL     1      42.230  -8.187   7.704  1.00  0.00    -0.271 OA
HETATM    4  H   UNL     1      41.349 -10.702   9.412  1.00  0.00     0.169 HD
ENDROOT
BRANCH   1   5
HETATM    5  C   UNL     1      42.040  -9.070  10.424  1.00  0.00     0.080 A 
HETATM    6  C   UNL     1      43.137  -9.584  11.098  1.00  0.00     0.137 A 
HETATM    7  N   UNL     1      43.420  -8.721  12.130  1.00  0.00    -0.349 N 
HETATM    8  H   UNL     1      44.191  -8.839  12.776  1.00  0.00     0.166 HD
HETATM    9  C   UNL     1      42.521  -7.681  12.165  1.00  0.00     0.048 A 
HETATM   10  C   UNL     1      41.619  -7.881  11.108  1.00  0.00     0.023 A 
HETATM   11  C   UNL     1      42.449  -6.596  13.054  1.00  0.00     0.070 A 
HETATM   12  C   UNL     1      40.548  -6.966  10.962  1.00  0.00     0.055 A 
HETATM   13  C   UNL     1      40.488  -5.898  11.837  1.00  0.00     0.106 A 
HETATM   14  C   UNL     1      41.405  -5.718  12.839  1.00  0.00     0.107 A 
HETATM   15  O   UNL     1      39.538  -4.923  11.816  1.00  0.00    -0.323 OA
HETATM   16  O   UNL     1      41.153  -4.602  13.576  1.00  0.00    -0.323 OA
HETATM   17  C   UNL     1      39.987  -4.085  12.901  1.00  0.00     0.352 A 
BRANCH   6  18
HETATM   18  C   UNL     1      43.911 -10.758  10.781  1.00  0.00     0.312 C 
HETATM   19  O   UNL     1      44.273 -11.583  11.613  1.00  0.00    -0.258 OA
BRANCH  18  20
HETATM   20  O   UNL     1      44.134 -10.815   9.441  1.00  0.00    -0.317 OA
BRANCH  20  21
HETATM   21  C   UNL     1      45.386 -10.282   8.983  1.00  0.00     0.175 C 
HETATM   22  C   UNL     1      45.705 -10.818   7.602  1.00  0.00     0.034 C 
ENDBRANCH  20  21
ENDBRANCH  18  20
ENDBRANCH   6  18
ENDBRANCH   1   5
BRANCH   2  23
HETATM   23  C   UNL     1      40.719  -9.922   6.992  1.00  0.00     0.337 C 
BRANCH  23  24
HETATM   24  N   UNL     1      41.113 -11.391   6.757  1.00  0.00    -0.060 N 
HETATM   25  H   UNL     1      41.302 -11.807   7.674  1.00  0.00     0.280 HD
HETATM   26  C   UNL     1      39.978 -12.217   6.130  1.00  0.00     0.255 C 
HETATM   27  C   UNL     1      40.413 -13.682   5.905  1.00  0.00     0.150 C 
HETATM   28  N   UNL     1      41.665 -13.717   5.127  1.00  0.00    -0.378 N 
HETATM   29  C   UNL     1      42.793 -12.997   5.734  1.00  0.00     0.150 C 
HETATM   30  C   UNL     1      42.407 -11.517   5.944  1.00  0.00     0.255 C 
BRANCH  28  31
HETATM   31  C   UNL     1      41.901 -14.852   4.355  1.00  0.00     0.030 A 
HETATM   32  C   UNL     1      42.859 -15.791   4.775  1.00  0.00     0.045 A 
HETATM   33  C   UNL     1      43.108 -16.981   4.065  1.00  0.00     0.050 A 
HETATM   34  C   UNL     1      42.368 -17.243   2.909  1.00  0.00     0.016 A 
HETATM   35  C   UNL     1      41.412 -16.332   2.473  1.00  0.00     0.003 A 
HETATM   36  C   UNL     1      41.182 -15.153   3.191  1.00  0.00     0.029 A 
BRANCH  33  37
HETATM   37  C   UNL     1      44.117 -17.981   4.572  1.00  0.00     0.417 C 
HETATM   38  F   UNL     1      44.717 -18.687   3.571  1.00  0.00    -0.166 F 
HETATM   39  F   UNL     1      45.125 -17.392   5.271  1.00  0.00    -0.166 F 
HETATM   40  F   UNL     1      43.570 -18.908   5.404  1.00  0.00    -0.166 F 
ENDBRANCH  33  37
ENDBRANCH  28  31
ENDBRANCH  23  24
ENDBRANCH   2  23
TORSDOF 8
ENDMDL
MODEL 5
REMARK VINA RESULT:      -8.8      2.148      3.468
REMARK  8 active torsions:
REMARK  status: ('A' for Active; 'I' for Inactive)
REMARK    1  A    between atoms: C_2  and  O_3 
REMARK    2  A    between atoms: O_3  and  C_4 
REMARK    3  A    between atoms: C_4  and  C_5 
REMARK    4  A    between atoms: C_10  and  N_11 
REMARK       I    between atoms: N_11  and  C_12 
REMARK    5  A    between atoms: C_12  and  C_13 
REMARK    6  A    between atoms: C_13  and  N_14 
REMARK    7  A    between atoms: N_18  and  C_19 
REMARK    8  A    between atoms: C_21  and  C_22 
ROOT
HETATM    1  N   UNL     1      42.164  -9.907   9.671  1.00  0.00    -0.323 N 
HETATM    2  C   UNL     1      42.822  -9.132   8.738  1.00  0.00     0.248 C 
HETATM    3  O   UNL     1      42.789  -7.906   8.690  1.00  0.00    -0.271 OA
HETATM    4  H   UNL     1      42.570 -10.799   9.953  1.00  0.00     0.169 HD
ENDROOT
BRANCH   1   5
HETATM    5  C   UNL     1      41.207  -9.404  10.552  1.00  0.00     0.080 A 
HETATM    6  C   UNL     1      39.851  -9.476  10.279  1.00  0.00     0.137 A 
HETATM    7  N   UNL     1      39.190  -8.919  11.348  1.00  0.00    -0.349 N 
HETATM    8  H   UNL     1      38.182  -8.860  11.427  1.00  0.00     0.166 HD
HETATM    9  C   UNL     1      40.078  -8.459  12.292  1.00  0.00     0.048 A 
HETATM   10  C   UNL     1      41.368  -8.732  11.811  1.00  0.00     0.023 A 
HETATM   11  C   UNL     1      39.823  -7.825  13.519  1.00  0.00     0.070 A 
HETATM   12  C   UNL     1      42.474  -8.299  12.582  1.00  0.00     0.055 A 
HETATM   13  C   UNL     1      42.214  -7.680  13.791  1.00  0.00     0.106 A 
HETATM   14  C   UNL     1      40.941  -7.458  14.243  1.00  0.00     0.107 A 
HETATM   15  O   UNL     1      43.163  -7.227  14.656  1.00  0.00    -0.323 OA
HETATM   16  O   UNL     1      40.923  -6.839  15.455  1.00  0.00    -0.323 OA
HETATM   17  C   UNL     1      42.335  -6.726  15.725  1.00  0.00     0.352 A 
BRANCH   6  18
HETATM   18  C   UNL     1      39.200 -10.072   9.137  1.00  0.00     0.312 C 
HETATM   19  O   UNL     1      38.323 -10.925   9.219  1.00  0.00    -0.258 OA
BRANCH  18  20
HETATM   20  O   UNL     1      39.681  -9.519   7.993  1.00  0.00    -0.317 OA
BRANCH  20  21
HETATM   21  C   UNL     1      39.217  -8.195   7.683  1.00  0.00     0.175 C 
HETATM   22  C   UNL     1      39.194  -7.991   6.182  1.00  0.00     0.034 C 
ENDBRANCH  20  21
ENDBRANCH  18  20
ENDBRANCH   6  18
ENDBRANCH   1   5
BRANCH   2  23
HETATM   23  C   UNL     1      43.660  -9.937   7.733  1.00  0.00     0.337 C 
BRANCH  23  24
HETATM   24  N   UNL     1      43.075 -11.299   7.317  1.00  0.00    -0.060 N 
HETATM   25  H   UNL     1      42.471 -11.618   8.080  1.00  0.00     0.280 HD
HETATM   26  C   UNL     1      42.183 -11.205   6.067  1.00  0.00     0.255 C 
HETATM   27  C   UNL     1      41.620 -12.588   5.678  1.00  0.00     0.150 C 
HETATM   28  N   UNL     1      42.723 -13.557   5.542  1.00  0.00    -0.378 N 
HETATM   29  C   UNL     1      43.552 -13.726   6.743  1.00  0.00     0.150 C 
HETATM   30  C   UNL     1      44.163 -12.366   7.144  1.00  0.00     0.255 C 
BRANCH  28  31
HETATM   31  C   UNL     1      42.522 -14.633   4.681  1.00  0.00     0.030 A 
HETATM   32  C   UNL     1      43.299 -15.794   4.827  1.00  0.00     0.045 A 
HETATM   33  C   UNL     1      43.110 -16.933   4.022  1.00  0.00     0.050 A 
HETATM   34  C   UNL     1      42.104 -16.913   3.052  1.00  0.00     0.016 A 
HETATM   35  C   UNL     1      41.318 -15.777   2.889  1.00  0.00     0.003 A 
HETATM   36  C   UNL     1      41.525 -14.654   3.698  1.00  0.00     0.029 A 
BRANCH  33  37
HETATM   37  C   UNL     1      43.941 -18.174   4.238  1.00  0.00     0.417 C 
HETATM   38  F   UNL     1      45.211 -17.900   4.651  1.00  0.00    -0.166 F 
HETATM   39  F   UNL     1      43.409 -18.996   5.183  1.00  0.00    -0.166 F 
HETATM   40  F   UNL     1      44.071 -18.926   3.112  1.00  0.00    -0.166 F 
ENDBRANCH  33  37
ENDBRANCH  28  31
ENDBRANCH  23  24
ENDBRANCH   2  23
TORSDOF 8
ENDMDL
MODEL 6
REMARK VINA RESULT:      -8.8      5.825     11.008
REMARK  8 active torsions:
REMARK  status: ('A' for Active; 'I' for Inactive)
REMARK    1  A    between atoms: C_2  and  O_3 
REMARK    2  A    between atoms: O_3  and  C_4 
REMARK    3  A    between atoms: C_4  and  C_5 
REMARK    4  A    between atoms: C_10  and  N_11 
REMARK       I    between atoms: N_11  and  C_12 
REMARK    5  A    between atoms: C_12  and  C_13 
REMARK    6  A    between atoms: C_13  and  N_14 
REMARK    7  A    between atoms: N_18  and  C_19 
REMARK    8  A    between atoms: C_21  and  C_22 
ROOT
HETATM    1  N   UNL     1      42.565 -13.041   6.489  1.00  0.00    -0.323 N 
HETATM    2  C   UNL     1      43.642 -12.233   6.190  1.00  0.00     0.248 C 
HETATM    3  O   UNL     1      43.973 -11.889   5.059  1.00  0.00    -0.271 OA
HETATM    4  H   UNL     1      42.078 -12.914   7.376  1.00  0.00     0.169 HD
ENDROOT
BRANCH   1   5
HETATM    5  C   UNL     1      41.837 -13.741   5.527  1.00  0.00     0.080 A 
HETATM    6  C   UNL     1      40.568 -13.343   5.136  1.00  0.00     0.137 A 
HETATM    7  N   UNL     1      40.146 -14.222   4.167  1.00  0.00    -0.349 N 
HETATM    8  H   UNL     1      39.259 -14.155   3.684  1.00  0.00     0.166 HD
HETATM    9  C   UNL     1      41.090 -15.196   3.939  1.00  0.00     0.048 A 
HETATM   10  C   UNL     1      42.168 -14.934   4.799  1.00  0.00     0.023 A 
HETATM   11  C   UNL     1      41.054 -16.278   3.044  1.00  0.00     0.070 A 
HETATM   12  C   UNL     1      43.258 -15.839   4.799  1.00  0.00     0.055 A 
HETATM   13  C   UNL     1      43.217 -16.897   3.912  1.00  0.00     0.106 A 
HETATM   14  C   UNL     1      42.161 -17.104   3.065  1.00  0.00     0.107 A 
HETATM   15  O   UNL     1      44.191 -17.838   3.774  1.00  0.00    -0.323 OA
HETATM   16  O   UNL     1      42.336 -18.202   2.279  1.00  0.00    -0.323 OA
HETATM   17  C   UNL     1      43.639 -18.643   2.711  1.00  0.00     0.352 A 
BRANCH   6  18
HETATM   18  C   UNL     1      39.816 -12.196   5.581  1.00  0.00     0.312 C 
HETATM   19  O   UNL     1      38.778 -12.270   6.230  1.00  0.00    -0.258 OA
BRANCH  18  20
HETATM   20  O   UNL     1      40.448 -11.054   5.202  1.00  0.00    -0.317 OA
BRANCH  20  21
HETATM   21  C   UNL     1      40.318 -10.684   3.821  1.00  0.00     0.175 C 
HETATM   22  C   UNL     1      41.609 -10.066   3.324  1.00  0.00     0.034 C 
ENDBRANCH  20  21
ENDBRANCH  18  20
ENDBRANCH   6  18
ENDBRANCH   1   5
BRANCH   2  23
HETATM   23  C   UNL     1      44.421 -11.746   7.421  1.00  0.00     0.337 C 
BRANCH  23  24
HETATM   24  N   UNL     1      43.592 -11.003   8.483  1.00  0.00    -0.060 N 
HETATM   25  H   UNL     1      42.803 -11.609   8.733  1.00  0.00     0.280 HD
HETATM   26  C   UNL     1      44.376 -10.754   9.782  1.00  0.00     0.255 C 
HETATM   27  C   UNL     1      43.513 -10.004  10.820  1.00  0.00     0.150 C 
HETATM   28  N   UNL     1      42.965  -8.774  10.219  1.00  0.00    -0.378 N 
HETATM   29  C   UNL     1      42.148  -8.984   9.016  1.00  0.00     0.150 C 
HETATM   30  C   UNL     1      42.989  -9.703   7.939  1.00  0.00     0.255 C 
BRANCH  28  31
HETATM   31  C   UNL     1      42.672  -7.721  11.081  1.00  0.00     0.030 A 
HETATM   32  C   UNL     1      42.569  -7.961  12.462  1.00  0.00     0.045 A 
HETATM   33  C   UNL     1      42.326  -6.931  13.389  1.00  0.00     0.050 A 
HETATM   34  C   UNL     1      42.194  -5.620  12.921  1.00  0.00     0.016 A 
HETATM   35  C   UNL     1      42.296  -5.354  11.560  1.00  0.00     0.003 A 
HETATM   36  C   UNL     1      42.534  -6.394  10.654  1.00  0.00     0.029 A 
BRANCH  33  37
HETATM   37  C   UNL     1      42.261  -7.226  14.868  1.00  0.00     0.417 C 
HETATM   38  F   UNL     1      42.069  -8.548  15.139  1.00  0.00    -0.166 F 
HETATM   39  F   UNL     1      43.404  -6.872  15.517  1.00  0.00    -0.166 F 
HETATM   40  F   UNL     1      41.249  -6.567  15.494  1.00  0.00    -0.166 F 
ENDBRANCH  33  37
ENDBRANCH  28  31
ENDBRANCH  23  24
ENDBRANCH   2  23
TORSDOF 8
ENDMDL
MODEL 7
REMARK VINA RESULT:      -8.6      2.138      3.392
REMARK  8 active torsions:
REMARK  status: ('A' for Active; 'I' for Inactive)
REMARK    1  A    between atoms: C_2  and  O_3 
REMARK    2  A    between atoms: O_3  and  C_4 
REMARK    3  A    between atoms: C_4  and  C_5 
REMARK    4  A    between atoms: C_10  and  N_11 
REMARK       I    between atoms: N_11  and  C_12 
REMARK    5  A    between atoms: C_12  and  C_13 
REMARK    6  A    between atoms: C_13  and  N_14 
REMARK    7  A    between atoms: N_18  and  C_19 
REMARK    8  A    between atoms: C_21  and  C_22 
ROOT
HETATM    1  N   UNL     1      42.256  -9.948   9.611  1.00  0.00    -0.323 N 
HETATM    2  C   UNL     1      42.910  -9.210   8.646  1.00  0.00     0.248 C 
HETATM    3  O   UNL     1      42.855  -7.988   8.533  1.00  0.00    -0.271 OA
HETATM    4  H   UNL     1      42.675 -10.815   9.944  1.00  0.00     0.169 HD
ENDROOT
BRANCH   1   5
HETATM    5  C   UNL     1      41.279  -9.417  10.454  1.00  0.00     0.080 A 
HETATM    6  C   UNL     1      39.931  -9.471  10.137  1.00  0.00     0.137 A 
HETATM    7  N   UNL     1      39.245  -8.890  11.176  1.00  0.00    -0.349 N 
HETATM    8  H   UNL     1      38.236  -8.814  11.221  1.00  0.00     0.166 HD
HETATM    9  C   UNL     1      40.108  -8.433  12.143  1.00  0.00     0.048 A 
HETATM   10  C   UNL     1      41.409  -8.733  11.710  1.00  0.00     0.023 A 
HETATM   11  C   UNL     1      39.824  -7.779  13.354  1.00  0.00     0.070 A 
HETATM   12  C   UNL     1      42.496  -8.308  12.512  1.00  0.00     0.055 A 
HETATM   13  C   UNL     1      42.207  -7.670  13.703  1.00  0.00     0.106 A 
HETATM   14  C   UNL     1      40.923  -7.421  14.110  1.00  0.00     0.107 A 
HETATM   15  O   UNL     1      43.134  -7.221  14.593  1.00  0.00    -0.323 OA
HETATM   16  O   UNL     1      40.876  -6.787  15.313  1.00  0.00    -0.323 OA
HETATM   17  C   UNL     1      42.280  -6.693  15.629  1.00  0.00     0.352 A 
BRANCH   6  18
HETATM   18  C   UNL     1      39.308 -10.070   8.982  1.00  0.00     0.312 C 
HETATM   19  O   UNL     1      38.366 -10.853   9.042  1.00  0.00    -0.258 OA
BRANCH  18  20
HETATM   20  O   UNL     1      39.899  -9.609   7.848  1.00  0.00    -0.317 OA
BRANCH  20  21
HETATM   21  C   UNL     1      39.291  -8.460   7.238  1.00  0.00     0.175 C 
HETATM   22  C   UNL     1      39.719  -8.354   5.788  1.00  0.00     0.034 C 
ENDBRANCH  20  21
ENDBRANCH  18  20
ENDBRANCH   6  18
ENDBRANCH   1   5
BRANCH   2  23
HETATM   23  C   UNL     1      43.775 -10.050   7.695  1.00  0.00     0.337 C 
BRANCH  23  24
HETATM   24  N   UNL     1      43.161 -11.385   7.238  1.00  0.00    -0.060 N 
HETATM   25  H   UNL     1      42.539 -11.707   7.986  1.00  0.00     0.280 HD
HETATM   26  C   UNL     1      42.289 -11.238   5.980  1.00  0.00     0.255 C 
HETATM   27  C   UNL     1      41.695 -12.597   5.551  1.00  0.00     0.150 C 
HETATM   28  N   UNL     1      42.774 -13.590   5.405  1.00  0.00    -0.378 N 
HETATM   29  C   UNL     1      43.583 -13.809   6.612  1.00  0.00     0.150 C 
HETATM   30  C   UNL     1      44.223 -12.476   7.054  1.00  0.00     0.255 C 
BRANCH  28  31
HETATM   31  C   UNL     1      42.557 -14.640   4.517  1.00  0.00     0.030 A 
HETATM   32  C   UNL     1      41.633 -14.484   3.469  1.00  0.00     0.045 A 
HETATM   33  C   UNL     1      41.405 -15.488   2.510  1.00  0.00     0.050 A 
HETATM   34  C   UNL     1      42.133 -16.679   2.595  1.00  0.00     0.016 A 
HETATM   35  C   UNL     1      43.057 -16.858   3.620  1.00  0.00     0.003 A 
HETATM   36  C   UNL     1      43.265 -15.847   4.566  1.00  0.00     0.029 A 
BRANCH  33  37
HETATM   37  C   UNL     1      40.433 -15.265   1.378  1.00  0.00     0.417 C 
HETATM   38  F   UNL     1      41.049 -15.010   0.189  1.00  0.00    -0.166 F 
HETATM   39  F   UNL     1      39.632 -16.344   1.162  1.00  0.00    -0.166 F 
HETATM   40  F   UNL     1      39.600 -14.212   1.597  1.00  0.00    -0.166 F 
ENDBRANCH  33  37
ENDBRANCH  28  31
ENDBRANCH  23  24
ENDBRANCH   2  23
TORSDOF 8
ENDMDL
MODEL 8
REMARK VINA RESULT:      -8.6      7.563     11.595
REMARK  8 active torsions:
REMARK  status: ('A' for Active; 'I' for Inactive)
REMARK    1  A    between atoms: C_2  and  O_3 
REMARK    2  A    between atoms: O_3  and  C_4 
REMARK    3  A    between atoms: C_4  and  C_5 
REMARK    4  A    between atoms: C_10  and  N_11 
REMARK       I    between atoms: N_11  and  C_12 
REMARK    5  A    between atoms: C_12  and  C_13 
REMARK    6  A    between atoms: C_13  and  N_14 
REMARK    7  A    between atoms: N_18  and  C_19 
REMARK    8  A    between atoms: C_21  and  C_22 
ROOT
HETATM    1  N   UNL     1      41.779 -14.854   1.340  1.00  0.00    -0.323 N 
HETATM    2  C   UNL     1      40.443 -15.102   1.102  1.00  0.00     0.248 C 
HETATM    3  O   UNL     1      39.661 -15.596   1.910  1.00  0.00    -0.271 OA
HETATM    4  H   UNL     1      42.232 -14.070   0.871  1.00  0.00     0.169 HD
ENDROOT
BRANCH   1   5
HETATM    5  C   UNL     1      42.461 -15.327   2.461  1.00  0.00     0.080 A 
HETATM    6  C   UNL     1      42.880 -14.479   3.475  1.00  0.00     0.137 A 
HETATM    7  N   UNL     1      43.490 -15.257   4.429  1.00  0.00    -0.349 N 
HETATM    8  H   UNL     1      43.872 -14.900   5.296  1.00  0.00     0.166 HD
HETATM    9  C   UNL     1      43.508 -16.579   4.051  1.00  0.00     0.048 A 
HETATM   10  C   UNL     1      42.882 -16.658   2.798  1.00  0.00     0.023 A 
HETATM   11  C   UNL     1      44.037 -17.691   4.728  1.00  0.00     0.070 A 
HETATM   12  C   UNL     1      42.823 -17.920   2.158  1.00  0.00     0.055 A 
HETATM   13  C   UNL     1      43.340 -19.009   2.833  1.00  0.00     0.106 A 
HETATM   14  C   UNL     1      43.918 -18.899   4.070  1.00  0.00     0.107 A 
HETATM   15  O   UNL     1      43.342 -20.288   2.366  1.00  0.00    -0.323 OA
HETATM   16  O   UNL     1      44.354 -20.098   4.545  1.00  0.00    -0.323 OA
HETATM   17  C   UNL     1      43.956 -20.979   3.474  1.00  0.00     0.352 A 
BRANCH   6  18
HETATM   18  C   UNL     1      42.680 -13.055   3.588  1.00  0.00     0.312 C 
HETATM   19  O   UNL     1      42.602 -12.298   2.627  1.00  0.00    -0.258 OA
BRANCH  18  20
HETATM   20  O   UNL     1      42.560 -12.709   4.897  1.00  0.00    -0.317 OA
BRANCH  20  21
HETATM   21  C   UNL     1      43.558 -11.815   5.411  1.00  0.00     0.175 C 
HETATM   22  C   UNL     1      44.151 -12.376   6.687  1.00  0.00     0.034 C 
ENDBRANCH  20  21
ENDBRANCH  18  20
ENDBRANCH   6  18
ENDBRANCH   1   5
BRANCH   2  23
HETATM   23  C   UNL     1      39.965 -14.674  -0.294  1.00  0.00     0.337 C 
BRANCH  23  24
HETATM   24  N   UNL     1      40.715 -13.485  -0.920  1.00  0.00    -0.060 N 
HETATM   25  H   UNL     1      41.718 -13.663  -0.808  1.00  0.00     0.280 HD
HETATM   26  C   UNL     1      40.463 -13.352  -2.431  1.00  0.00     0.255 C 
HETATM   27  C   UNL     1      41.227 -12.147  -3.020  1.00  0.00     0.150 C 
HETATM   28  N   UNL     1      40.899 -10.927  -2.260  1.00  0.00    -0.378 N 
HETATM   29  C   UNL     1      41.196 -10.993  -0.823  1.00  0.00     0.150 C 
HETATM   30  C   UNL     1      40.421 -12.169  -0.189  1.00  0.00     0.255 C 
BRANCH  28  31
HETATM   31  C   UNL     1      40.999  -9.712  -2.934  1.00  0.00     0.030 A 
HETATM   32  C   UNL     1      40.367  -9.554  -4.179  1.00  0.00     0.045 A 
HETATM   33  C   UNL     1      40.389  -8.336  -4.885  1.00  0.00     0.050 A 
HETATM   34  C   UNL     1      41.051  -7.242  -4.320  1.00  0.00     0.016 A 
HETATM   35  C   UNL     1      41.682  -7.371  -3.087  1.00  0.00     0.003 A 
HETATM   36  C   UNL     1      41.651  -8.592  -2.404  1.00  0.00     0.029 A 
BRANCH  33  37
HETATM   37  C   UNL     1      39.665  -8.197  -6.201  1.00  0.00     0.417 C 
HETATM   38  F   UNL     1      39.278  -6.916  -6.463  1.00  0.00    -0.166 F 
HETATM   39  F   UNL     1      40.431  -8.582  -7.257  1.00  0.00    -0.166 F 
HETATM   40  F   UNL     1      38.531  -8.947  -6.262  1.00  0.00    -0.166 F 
ENDBRANCH  33  37
ENDBRANCH  28  31
ENDBRANCH  23  24
ENDBRANCH   2  23
TORSDOF 8
ENDMDL
MODEL 9
REMARK VINA RESULT:      -8.5      2.211      3.291
REMARK  8 active torsions:
REMARK  status: ('A' for Active; 'I' for Inactive)
REMARK    1  A    between atoms: C_2  and  O_3 
REMARK    2  A    between atoms: O_3  and  C_4 
REMARK    3  A    between atoms: C_4  and  C_5 
REMARK    4  A    between atoms: C_10  and  N_11 
REMARK       I    between atoms: N_11  and  C_12 
REMARK    5  A    between atoms: C_12  and  C_13 
REMARK    6  A    between atoms: C_13  and  N_14 
REMARK    7  A    between atoms: N_18  and  C_19 
REMARK    8  A    between atoms: C_21  and  C_22 
ROOT
HETATM    1  N   UNL     1      42.197  -9.125   7.252  1.00  0.00    -0.323 N 
HETATM    2  C   UNL     1      41.125  -9.655   6.564  1.00  0.00     0.248 C 
HETATM    3  O   UNL     1      40.251 -10.362   7.057  1.00  0.00    -0.271 OA
HETATM    4  H   UNL     1      42.588  -8.231   6.954  1.00  0.00     0.169 HD
ENDROOT
BRANCH   1   5
HETATM    5  C   UNL     1      42.539  -9.499   8.551  1.00  0.00     0.080 A 
HETATM    6  C   UNL     1      43.556 -10.405   8.809  1.00  0.00     0.137 A 
HETATM    7  N   UNL     1      43.651 -10.533  10.174  1.00  0.00    -0.349 N 
HETATM    8  H   UNL     1      44.330 -11.117  10.646  1.00  0.00     0.166 HD
HETATM    9  C   UNL     1      42.706  -9.762  10.809  1.00  0.00     0.048 A 
HETATM   10  C   UNL     1      41.969  -9.107   9.810  1.00  0.00     0.023 A 
HETATM   11  C   UNL     1      42.458  -9.610  12.184  1.00  0.00     0.070 A 
HETATM   12  C   UNL     1      40.885  -8.288  10.208  1.00  0.00     0.055 A 
HETATM   13  C   UNL     1      40.652  -8.139  11.562  1.00  0.00     0.106 A 
HETATM   14  C   UNL     1      41.412  -8.771  12.510  1.00  0.00     0.107 A 
HETATM   15  O   UNL     1      39.667  -7.373  12.105  1.00  0.00    -0.323 OA
HETATM   16  O   UNL     1      41.006  -8.478  13.777  1.00  0.00    -0.323 OA
HETATM   17  C   UNL     1      39.920  -7.566  13.512  1.00  0.00     0.352 A 
BRANCH   6  18
HETATM   18  C   UNL     1      44.424 -11.065   7.865  1.00  0.00     0.312 C 
HETATM   19  O   UNL     1      45.202 -10.474   7.124  1.00  0.00    -0.258 OA
BRANCH  18  20
HETATM   20  O   UNL     1      44.266 -12.412   7.957  1.00  0.00    -0.317 OA
BRANCH  20  21
HETATM   21  C   UNL     1      43.324 -13.004   7.049  1.00  0.00     0.175 C 
HETATM   22  C   UNL     1      43.593 -14.489   6.916  1.00  0.00     0.034 C 
ENDBRANCH  20  21
ENDBRANCH  18  20
ENDBRANCH   6  18
ENDBRANCH   1   5
BRANCH   2  23
HETATM   23  C   UNL     1      41.076  -9.262   5.080  1.00  0.00     0.337 C 
BRANCH  23  24
HETATM   24  N   UNL     1      41.415 -10.384   4.082  1.00  0.00    -0.060 N 
HETATM   25  H   UNL     1      41.265 -10.010   3.140  1.00  0.00     0.280 HD
HETATM   26  C   UNL     1      42.890 -10.813   4.149  1.00  0.00     0.255 C 
HETATM   27  C   UNL     1      43.189 -11.941   3.139  1.00  0.00     0.150 C 
HETATM   28  N   UNL     1      42.244 -13.054   3.338  1.00  0.00    -0.378 N 
HETATM   29  C   UNL     1      40.825 -12.694   3.208  1.00  0.00     0.150 C 
HETATM   30  C   UNL     1      40.478 -11.589   4.229  1.00  0.00     0.255 C 
BRANCH  28  31
HETATM   31  C   UNL     1      42.673 -14.327   2.968  1.00  0.00     0.030 A 
HETATM   32  C   UNL     1      42.910 -15.295   3.958  1.00  0.00     0.045 A 
HETATM   33  C   UNL     1      43.296 -16.612   3.647  1.00  0.00     0.050 A 
HETATM   34  C   UNL     1      43.434 -16.973   2.303  1.00  0.00     0.016 A 
HETATM   35  C   UNL     1      43.201 -16.035   1.303  1.00  0.00     0.003 A 
HETATM   36  C   UNL     1      42.823 -14.730   1.635  1.00  0.00     0.029 A 
BRANCH  33  37
HETATM   37  C   UNL     1      43.503 -17.632   4.739  1.00  0.00     0.417 C 
HETATM   38  F   UNL     1      43.518 -18.914   4.275  1.00  0.00    -0.166 F 
HETATM   39  F   UNL     1      44.682 -17.456   5.395  1.00  0.00    -0.166 F 
HETATM   40  F   UNL     1      42.531 -17.593   5.690  1.00  0.00    -0.166 F 
ENDBRANCH  33  37
ENDBRANCH  28  31
ENDBRANCH  23  24
ENDBRANCH   2  23
TORSDOF 8
ENDMDL
MODEL 10
REMARK VINA RESULT:      -8.5      2.677      3.036
REMARK  8 active torsions:
REMARK  status: ('A' for Active; 'I' for Inactive)
REMARK    1  A    between atoms: C_2  and  O_3 
REMARK    2  A    between atoms: O_3  and  C_4 
REMARK    3  A    between atoms: C_4  and  C_5 
REMARK    4  A    between atoms: C_10  and  N_11 
REMARK       I    between atoms: N_11  and  C_12 
REMARK    5  A    between atoms: C_12  and  C_13 
REMARK    6  A    between atoms: C_13  and  N_14 
REMARK    7  A    between atoms: N_18  and  C_19 
REMARK    8  A    between atoms: C_21  and  C_22 
ROOT
HETATM    1  N   UNL     1      42.330  -9.654   7.269  1.00  0.00    -0.323 N 
HETATM    2  C   UNL     1      41.090 -10.209   7.029  1.00  0.00     0.248 C 
HETATM    3  O   UNL     1      40.049  -9.882   7.592  1.00  0.00    -0.271 OA
HETATM    4  H   UNL     1      43.011  -9.608   6.512  1.00  0.00     0.169 HD
ENDROOT
BRANCH   1   5
HETATM    5  C   UNL     1      42.594  -8.793   8.335  1.00  0.00     0.080 A 
HETATM    6  C   UNL     1      43.259  -9.222   9.474  1.00  0.00     0.137 A 
HETATM    7  N   UNL     1      43.378  -8.136  10.308  1.00  0.00    -0.349 N 
HETATM    8  H   UNL     1      43.845  -8.156  11.206  1.00  0.00     0.166 HD
HETATM    9  C   UNL     1      42.782  -7.025   9.760  1.00  0.00     0.048 A 
HETATM   10  C   UNL     1      42.257  -7.409   8.517  1.00  0.00     0.023 A 
HETATM   11  C   UNL     1      42.673  -5.724  10.282  1.00  0.00     0.070 A 
HETATM   12  C   UNL     1      41.534  -6.448   7.770  1.00  0.00     0.055 A 
HETATM   13  C   UNL     1      41.436  -5.170   8.287  1.00  0.00     0.106 A 
HETATM   14  C   UNL     1      41.989  -4.822   9.491  1.00  0.00     0.107 A 
HETATM   15  O   UNL     1      40.797  -4.130   7.685  1.00  0.00    -0.323 OA
HETATM   16  O   UNL     1      41.772  -3.514   9.800  1.00  0.00    -0.323 OA
HETATM   17  C   UNL     1      41.045  -3.074   8.635  1.00  0.00     0.352 A 
BRANCH   6  18
HETATM   18  C   UNL     1      43.803 -10.528   9.752  1.00  0.00     0.312 C 
HETATM   19  O   UNL     1      43.741 -11.074  10.848  1.00  0.00    -0.258 OA
BRANCH  18  20
HETATM   20  O   UNL     1      44.347 -11.051   8.622  1.00  0.00    -0.317 OA
BRANCH  20  21
HETATM   21  C   UNL     1      45.681 -10.625   8.303  1.00  0.00     0.175 C 
HETATM   22  C   UNL     1      46.052 -11.078   6.906  1.00  0.00     0.034 C 
ENDBRANCH  20  21
ENDBRANCH  18  20
ENDBRANCH   6  18
ENDBRANCH   1   5
BRANCH   2  23
HETATM   23  C   UNL     1      41.090 -11.293   5.940  1.00  0.00     0.337 C 
BRANCH  23  24
HETATM   24  N   UNL     1      41.541 -12.692   6.394  1.00  0.00    -0.060 N 
HETATM   25  H   UNL     1      41.543 -12.696   7.419  1.00  0.00     0.280 HD
HETATM   26  C   UNL     1      40.570 -13.801   5.956  1.00  0.00     0.255 C 
HETATM   27  C   UNL     1      41.059 -15.188   6.425  1.00  0.00     0.150 C 
HETATM   28  N   UNL     1      42.444 -15.409   5.971  1.00  0.00    -0.378 N 
HETATM   29  C   UNL     1      43.415 -14.406   6.433  1.00  0.00     0.150 C 
HETATM   30  C   UNL     1      42.977 -13.006   5.953  1.00  0.00     0.255 C 
BRANCH  28  31
HETATM   31  C   UNL     1      42.848 -16.728   5.779  1.00  0.00     0.030 A 
HETATM   32  C   UNL     1      43.055 -17.208   4.475  1.00  0.00     0.045 A 
HETATM   33  C   UNL     1      43.511 -18.514   4.217  1.00  0.00     0.050 A 
HETATM   34  C   UNL     1      43.781 -19.359   5.297  1.00  0.00     0.016 A 
HETATM   35  C   UNL     1      43.588 -18.908   6.599  1.00  0.00     0.003 A 
HETATM   36  C   UNL     1      43.130 -17.606   6.833  1.00  0.00     0.029 A 
BRANCH  33  37
HETATM   37  C   UNL     1      43.758 -18.978   2.803  1.00  0.00     0.417 C 
HETATM   38  F   UNL     1      45.037 -18.760   2.386  1.00  0.00    -0.166 F 
HETATM   39  F   UNL     1      43.534 -20.311   2.648  1.00  0.00    -0.166 F 
HETATM   40  F   UNL     1      42.960 -18.352   1.895  1.00  0.00    -0.166 F 
ENDBRANCH  33  37
ENDBRANCH  28  31
ENDBRANCH  23  24
ENDBRANCH   2  23
TORSDOF 8
ENDMDL
