MODEL 1
REMARK VINA RESULT:      -8.1      0.000      0.000
REMARK  3 active torsions:
REMARK  status: ('A' for Active; 'I' for Inactive)
REMARK    1  A    between atoms: C_6  and  N_7 
REMARK       I    between atoms: N_7  and  C_8 
REMARK    2  A    between atoms: C_8  and  C_9 
REMARK    3  A    between atoms: C_9  and  C_10 
ROOT
HETATM    1  C   UNL     1      40.742 -13.719   5.565  1.00  0.00     0.286 C 
HETATM    2  N   UNL     1      40.198 -14.767   4.589  1.00  0.00    -0.056 N 
HETATM    3  H   UNL     1      40.532 -15.704   4.855  1.00  0.00     0.278 HD
HETATM    4  H   UNL     1      39.173 -14.789   4.689  1.00  0.00     0.278 HD
HETATM    5  C   UNL     1      40.535 -14.514   3.144  1.00  0.00     0.209 C 
HETATM    6  C   UNL     1      40.122 -13.077   2.763  1.00  0.00     0.115 C 
HETATM    7  N   UNL     1      40.647 -12.081   3.683  1.00  0.00    -0.353 N 
HETATM    8  C   UNL     1      40.700 -12.270   5.040  1.00  0.00     0.249 C 
HETATM    9  O   UNL     1      40.826 -11.315   5.802  1.00  0.00    -0.271 OA
HETATM   10  C   UNL     1      39.819 -15.528   2.257  1.00  0.00     0.035 C 
HETATM   11  C   UNL     1      40.173 -15.274   0.789  1.00  0.00     0.002 C 
HETATM   12  C   UNL     1      39.912 -13.827   0.365  1.00  0.00     0.002 C 
HETATM   13  C   UNL     1      40.540 -12.805   1.316  1.00  0.00     0.027 C 
HETATM   14  H   UNL     1      40.609 -11.100   3.411  1.00  0.00     0.163 HD
ENDROOT
BRANCH   1  15
HETATM   15  C   UNL     1      42.135 -14.084   6.094  1.00  0.00     0.146 C 
BRANCH  15  16
HETATM   16  C   UNL     1      42.418 -15.564   5.946  1.00  0.00     0.224 C 
HETATM   17  N   UNL     1      43.331 -15.863   4.957  1.00  0.00    -0.327 N 
HETATM   18  H   UNL     1      43.897 -15.108   4.576  1.00  0.00     0.169 HD
HETATM   19  O   UNL     1      41.766 -16.357   6.614  1.00  0.00    -0.273 OA
BRANCH  17  20
HETATM   20  C   UNL     1      43.535 -17.117   4.338  1.00  0.00     0.036 A 
HETATM   21  C   UNL     1      44.016 -18.245   5.005  1.00  0.00     0.053 A 
HETATM   22  C   UNL     1      44.104 -19.468   4.334  1.00  0.00     0.036 A 
HETATM   23  C   UNL     1      43.732 -19.577   2.996  1.00  0.00     0.024 A 
HETATM   24 CL   UNL     1      44.651 -20.862   5.183  1.00  0.00    -0.084 Cl
HETATM   25  C   UNL     1      43.265 -18.452   2.322  1.00  0.00     0.004 A 
HETATM   26  C   UNL     1      43.162 -17.230   2.992  1.00  0.00     0.029 A 
ENDBRANCH  17  20
ENDBRANCH  15  16
ENDBRANCH   1  15
TORSDOF 3
ENDMDL
MODEL 2
REMARK VINA RESULT:      -8.0      3.118      5.025
REMARK  3 active torsions:
REMARK  status: ('A' for Active; 'I' for Inactive)
REMARK    1  A    between atoms: C_6  and  N_7 
REMARK       I    between atoms: N_7  and  C_8 
REMARK    2  A    between atoms: C_8  and  C_9 
REMARK    3  A    between atoms: C_9  and  C_10 
ROOT
HETATM    1  C   UNL     1      43.480 -13.266   6.323  1.00  0.00     0.286 C 
HETATM    2  N   UNL     1      44.776 -12.516   6.651  1.00  0.00    -0.056 N 
HETATM    3  H   UNL     1      45.484 -13.174   7.004  1.00  0.00     0.278 HD
HETATM    4  H   UNL     1      45.150 -12.136   5.771  1.00  0.00     0.278 HD
HETATM    5  C   UNL     1      44.615 -11.387   7.633  1.00  0.00     0.209 C 
HETATM    6  C   UNL     1      43.489 -10.446   7.158  1.00  0.00     0.115 C 
HETATM    7  N   UNL     1      42.257 -11.157   6.857  1.00  0.00    -0.353 N 
HETATM    8  C   UNL     1      42.228 -12.372   6.223  1.00  0.00     0.249 C 
HETATM    9  O   UNL     1      41.199 -12.779   5.691  1.00  0.00    -0.271 OA
HETATM   10  C   UNL     1      45.929 -10.622   7.766  1.00  0.00     0.035 C 
HETATM   11  C   UNL     1      45.765  -9.482   8.775  1.00  0.00     0.002 C 
HETATM   12  C   UNL     1      44.580  -8.572   8.443  1.00  0.00     0.002 C 
HETATM   13  C   UNL     1      43.282  -9.347   8.202  1.00  0.00     0.027 C 
HETATM   14  H   UNL     1      41.401 -10.616   6.737  1.00  0.00     0.163 HD
ENDROOT
BRANCH   1  15
HETATM   15  C   UNL     1      43.245 -14.458   7.260  1.00  0.00     0.146 C 
BRANCH  15  16
HETATM   16  C   UNL     1      42.885 -15.711   6.490  1.00  0.00     0.224 C 
HETATM   17  N   UNL     1      43.883 -16.157   5.649  1.00  0.00    -0.327 N 
HETATM   18  H   UNL     1      44.820 -15.780   5.768  1.00  0.00     0.169 HD
HETATM   19  O   UNL     1      41.748 -16.156   6.588  1.00  0.00    -0.273 OA
BRANCH  17  20
HETATM   20  C   UNL     1      43.744 -17.050   4.563  1.00  0.00     0.036 A 
HETATM   21  C   UNL     1      43.982 -18.423   4.648  1.00  0.00     0.053 A 
HETATM   22  C   UNL     1      43.734 -19.244   3.544  1.00  0.00     0.036 A 
HETATM   23  C   UNL     1      43.266 -18.708   2.347  1.00  0.00     0.024 A 
HETATM   24 CL   UNL     1      43.984 -20.942   3.679  1.00  0.00    -0.084 Cl
HETATM   25  C   UNL     1      43.041 -17.338   2.251  1.00  0.00     0.004 A 
HETATM   26  C   UNL     1      43.273 -16.515   3.356  1.00  0.00     0.029 A 
ENDBRANCH  17  20
ENDBRANCH  15  16
ENDBRANCH   1  15
TORSDOF 3
ENDMDL
MODEL 3
REMARK VINA RESULT:      -7.9      2.236      3.087
REMARK  3 active torsions:
REMARK  status: ('A' for Active; 'I' for Inactive)
REMARK    1  A    between atoms: C_6  and  N_7 
REMARK       I    between atoms: N_7  and  C_8 
REMARK    2  A    between atoms: C_8  and  C_9 
REMARK    3  A    between atoms: C_9  and  C_10 
ROOT
HETATM    1  C   UNL     1      40.014 -13.556   2.138  1.00  0.00     0.286 C 
HETATM    2  N   UNL     1      39.570 -14.424   0.956  1.00  0.00    -0.056 N 
HETATM    3  H   UNL     1      39.995 -15.359   1.025  1.00  0.00     0.278 HD
HETATM    4  H   UNL     1      38.553 -14.565   1.032  1.00  0.00     0.278 HD
HETATM    5  C   UNL     1      39.874 -13.842  -0.399  1.00  0.00     0.209 C 
HETATM    6  C   UNL     1      39.321 -12.405  -0.479  1.00  0.00     0.115 C 
HETATM    7  N   UNL     1      39.750 -11.578   0.638  1.00  0.00    -0.353 N 
HETATM    8  C   UNL     1      39.828 -12.040   1.926  1.00  0.00     0.249 C 
HETATM    9  O   UNL     1      39.863 -11.259   2.873  1.00  0.00    -0.271 OA
HETATM   10  C   UNL     1      39.257 -14.713  -1.490  1.00  0.00     0.035 C 
HETATM   11  C   UNL     1      39.578 -14.124  -2.866  1.00  0.00     0.002 C 
HETATM   12  C   UNL     1      39.175 -12.652  -2.983  1.00  0.00     0.002 C 
HETATM   13  C   UNL     1      39.704 -11.796  -1.829  1.00  0.00     0.027 C 
HETATM   14  H   UNL     1      39.616 -10.570   0.576  1.00  0.00     0.163 HD
ENDROOT
BRANCH   1  15
HETATM   15  C   UNL     1      41.438 -13.887   2.601  1.00  0.00     0.146 C 
BRANCH  15  16
HETATM   16  C   UNL     1      41.516 -15.265   3.223  1.00  0.00     0.224 C 
HETATM   17  N   UNL     1      42.801 -15.744   3.365  1.00  0.00    -0.327 N 
HETATM   18  H   UNL     1      43.574 -15.091   3.269  1.00  0.00     0.169 HD
HETATM   19  O   UNL     1      40.473 -15.869   3.449  1.00  0.00    -0.273 OA
BRANCH  17  20
HETATM   20  C   UNL     1      43.191 -17.088   3.563  1.00  0.00     0.036 A 
HETATM   21  C   UNL     1      43.168 -18.062   2.564  1.00  0.00     0.053 A 
HETATM   22  C   UNL     1      43.654 -19.345   2.828  1.00  0.00     0.036 A 
HETATM   23  C   UNL     1      44.150 -19.676   4.087  1.00  0.00     0.024 A 
HETATM   24 CL   UNL     1      43.666 -20.522   1.571  1.00  0.00    -0.084 Cl
HETATM   25  C   UNL     1      44.163 -18.713   5.092  1.00  0.00     0.004 A 
HETATM   26  C   UNL     1      43.690 -17.424   4.829  1.00  0.00     0.029 A 
ENDBRANCH  17  20
ENDBRANCH  15  16
ENDBRANCH   1  15
TORSDOF 3
ENDMDL
MODEL 4
REMARK VINA RESULT:      -7.7      3.026      6.415
REMARK  3 active torsions:
REMARK  status: ('A' for Active; 'I' for Inactive)
REMARK    1  A    between atoms: C_6  and  N_7 
REMARK       I    between atoms: N_7  and  C_8 
REMARK    2  A    between atoms: C_8  and  C_9 
REMARK    3  A    between atoms: C_9  and  C_10 
ROOT
HETATM    1  C   UNL     1      43.228 -16.048   5.442  1.00  0.00     0.286 C 
HETATM    2  N   UNL     1      43.613 -16.660   4.090  1.00  0.00    -0.056 N 
HETATM    3  H   UNL     1      43.141 -16.155   3.327  1.00  0.00     0.278 HD
HETATM    4  H   UNL     1      44.622 -16.511   3.953  1.00  0.00     0.278 HD
HETATM    5  C   UNL     1      43.322 -18.132   3.964  1.00  0.00     0.209 C 
HETATM    6  C   UNL     1      43.947 -18.885   5.156  1.00  0.00     0.115 C 
HETATM    7  N   UNL     1      43.574 -18.310   6.438  1.00  0.00    -0.353 N 
HETATM    8  C   UNL     1      43.488 -16.960   6.657  1.00  0.00     0.249 C 
HETATM    9  O   UNL     1      43.505 -16.506   7.798  1.00  0.00    -0.271 OA
HETATM   10  C   UNL     1      43.881 -18.661   2.646  1.00  0.00     0.035 C 
HETATM   11  C   UNL     1      43.574 -20.155   2.515  1.00  0.00     0.002 C 
HETATM   12  C   UNL     1      44.051 -20.959   3.727  1.00  0.00     0.002 C 
HETATM   13  C   UNL     1      43.580 -20.367   5.058  1.00  0.00     0.027 C 
HETATM   14  H   UNL     1      43.759 -18.848   7.284  1.00  0.00     0.163 HD
ENDROOT
BRANCH   1  15
HETATM   15  C   UNL     1      41.795 -15.502   5.446  1.00  0.00     0.146 C 
BRANCH  15  16
HETATM   16  C   UNL     1      41.550 -14.568   4.280  1.00  0.00     0.224 C 
HETATM   17  N   UNL     1      40.376 -14.817   3.600  1.00  0.00    -0.327 N 
HETATM   18  H   UNL     1      39.681 -15.416   4.038  1.00  0.00     0.169 HD
HETATM   19  O   UNL     1      42.423 -13.764   3.976  1.00  0.00    -0.273 OA
BRANCH  17  20
HETATM   20  C   UNL     1      40.039 -14.384   2.298  1.00  0.00     0.036 A 
HETATM   21  C   UNL     1      39.647 -13.081   1.987  1.00  0.00     0.053 A 
HETATM   22  C   UNL     1      39.417 -12.720   0.656  1.00  0.00     0.036 A 
HETATM   23  C   UNL     1      39.557 -13.650  -0.370  1.00  0.00     0.024 A 
HETATM   24 CL   UNL     1      38.984 -11.096   0.283  1.00  0.00    -0.084 Cl
HETATM   25  C   UNL     1      39.933 -14.955  -0.066  1.00  0.00     0.004 A 
HETATM   26  C   UNL     1      40.178 -15.318   1.261  1.00  0.00     0.029 A 
ENDBRANCH  17  20
ENDBRANCH  15  16
ENDBRANCH   1  15
TORSDOF 3
ENDMDL
MODEL 5
REMARK VINA RESULT:      -7.7      3.792      7.294
REMARK  3 active torsions:
REMARK  status: ('A' for Active; 'I' for Inactive)
REMARK    1  A    between atoms: C_6  and  N_7 
REMARK       I    between atoms: N_7  and  C_8 
REMARK    2  A    between atoms: C_8  and  C_9 
REMARK    3  A    between atoms: C_9  and  C_10 
ROOT
HETATM    1  C   UNL     1      42.754 -16.047   2.584  1.00  0.00     0.286 C 
HETATM    2  N   UNL     1      43.274 -17.396   2.077  1.00  0.00    -0.056 N 
HETATM    3  H   UNL     1      42.762 -17.676   1.230  1.00  0.00     0.278 HD
HETATM    4  H   UNL     1      44.255 -17.267   1.790  1.00  0.00     0.278 HD
HETATM    5  C   UNL     1      43.211 -18.512   3.085  1.00  0.00     0.209 C 
HETATM    6  C   UNL     1      43.896 -18.065   4.393  1.00  0.00     0.115 C 
HETATM    7  N   UNL     1      43.395 -16.790   4.880  1.00  0.00    -0.353 N 
HETATM    8  C   UNL     1      43.101 -15.736   4.054  1.00  0.00     0.249 C 
HETATM    9  O   UNL     1      43.008 -14.595   4.500  1.00  0.00    -0.271 OA
HETATM   10  C   UNL     1      43.890 -19.758   2.526  1.00  0.00     0.035 C 
HETATM   11  C   UNL     1      43.814 -20.894   3.549  1.00  0.00     0.002 C 
HETATM   12  C   UNL     1      44.359 -20.486   4.920  1.00  0.00     0.002 C 
HETATM   13  C   UNL     1      43.757 -19.176   5.435  1.00  0.00     0.027 C 
HETATM   14  H   UNL     1      43.626 -16.508   5.831  1.00  0.00     0.163 HD
ENDROOT
BRANCH   1  15
HETATM   15  C   UNL     1      41.256 -15.861   2.310  1.00  0.00     0.146 C 
BRANCH  15  16
HETATM   16  C   UNL     1      41.004 -14.755   1.307  1.00  0.00     0.224 C 
HETATM   17  N   UNL     1      39.809 -14.874   0.631  1.00  0.00    -0.327 N 
HETATM   18  H   UNL     1      39.110 -15.519   0.992  1.00  0.00     0.169 HD
HETATM   19  O   UNL     1      41.889 -13.932   1.105  1.00  0.00    -0.273 OA
BRANCH  17  20
HETATM   20  C   UNL     1      39.450 -14.240  -0.580  1.00  0.00     0.036 A 
HETATM   21  C   UNL     1      39.335 -12.857  -0.731  1.00  0.00     0.053 A 
HETATM   22  C   UNL     1      39.060 -12.313  -1.989  1.00  0.00     0.036 A 
HETATM   23  C   UNL     1      38.883 -13.135  -3.099  1.00  0.00     0.024 A 
HETATM   24 CL   UNL     1      38.971 -10.603  -2.171  1.00  0.00    -0.084 Cl
HETATM   25  C   UNL     1      38.982 -14.515  -2.952  1.00  0.00     0.004 A 
HETATM   26  C   UNL     1      39.270 -15.064  -1.700  1.00  0.00     0.029 A 
ENDBRANCH  17  20
ENDBRANCH  15  16
ENDBRANCH   1  15
TORSDOF 3
ENDMDL
MODEL 6
REMARK VINA RESULT:      -7.6      3.350      6.902
REMARK  3 active torsions:
REMARK  status: ('A' for Active; 'I' for Inactive)
REMARK    1  A    between atoms: C_6  and  N_7 
REMARK       I    between atoms: N_7  and  C_8 
REMARK    2  A    between atoms: C_8  and  C_9 
REMARK    3  A    between atoms: C_9  and  C_10 
ROOT
HETATM    1  C   UNL     1      42.566 -15.545   3.180  1.00  0.00     0.286 C 
HETATM    2  N   UNL     1      42.925 -16.789   2.360  1.00  0.00    -0.056 N 
HETATM    3  H   UNL     1      42.253 -16.910   1.590  1.00  0.00     0.278 HD
HETATM    4  H   UNL     1      43.840 -16.622   1.919  1.00  0.00     0.278 HD
HETATM    5  C   UNL     1      43.000 -18.065   3.156  1.00  0.00     0.209 C 
HETATM    6  C   UNL     1      43.934 -17.863   4.367  1.00  0.00     0.115 C 
HETATM    7  N   UNL     1      43.587 -16.689   5.151  1.00  0.00    -0.353 N 
HETATM    8  C   UNL     1      43.192 -15.503   4.589  1.00  0.00     0.249 C 
HETATM    9  O   UNL     1      43.233 -14.458   5.233  1.00  0.00    -0.271 OA
HETATM   10  C   UNL     1      43.510 -19.200   2.272  1.00  0.00     0.035 C 
HETATM   11  C   UNL     1      43.574 -20.498   3.081  1.00  0.00     0.002 C 
HETATM   12  C   UNL     1      44.380 -20.344   4.373  1.00  0.00     0.002 C 
HETATM   13  C   UNL     1      43.941 -19.140   5.210  1.00  0.00     0.027 C 
HETATM   14  H   UNL     1      44.002 -16.582   6.075  1.00  0.00     0.163 HD
ENDROOT
BRANCH   1  15
HETATM   15  C   UNL     1      41.053 -15.299   3.231  1.00  0.00     0.146 C 
BRANCH  15  16
HETATM   16  C   UNL     1      40.443 -15.289   1.846  1.00  0.00     0.224 C 
HETATM   17  N   UNL     1      40.553 -14.078   1.194  1.00  0.00    -0.327 N 
HETATM   18  H   UNL     1      41.201 -13.387   1.563  1.00  0.00     0.169 HD
HETATM   19  O   UNL     1      39.832 -16.280   1.464  1.00  0.00    -0.273 OA
BRANCH  17  20
HETATM   20  C   UNL     1      39.800 -13.640   0.081  1.00  0.00     0.036 A 
HETATM   21  C   UNL     1      39.526 -14.433  -1.034  1.00  0.00     0.053 A 
HETATM   22  C   UNL     1      38.699 -13.945  -2.051  1.00  0.00     0.036 A 
HETATM   23  C   UNL     1      38.154 -12.666  -1.976  1.00  0.00     0.024 A 
HETATM   24 CL   UNL     1      38.329 -14.952  -3.397  1.00  0.00    -0.084 Cl
HETATM   25  C   UNL     1      38.435 -11.865  -0.873  1.00  0.00     0.004 A 
HETATM   26  C   UNL     1      39.250 -12.353   0.153  1.00  0.00     0.029 A 
ENDBRANCH  17  20
ENDBRANCH  15  16
ENDBRANCH   1  15
TORSDOF 3
ENDMDL
MODEL 7
REMARK VINA RESULT:      -7.5      4.355      6.843
REMARK  3 active torsions:
REMARK  status: ('A' for Active; 'I' for Inactive)
REMARK    1  A    between atoms: C_6  and  N_7 
REMARK       I    between atoms: N_7  and  C_8 
REMARK    2  A    between atoms: C_8  and  C_9 
REMARK    3  A    between atoms: C_9  and  C_10 
ROOT
HETATM    1  C   UNL     1      41.966 -14.562   5.146  1.00  0.00     0.286 C 
HETATM    2  N   UNL     1      42.759 -15.795   5.594  1.00  0.00    -0.056 N 
HETATM    3  H   UNL     1      43.518 -15.514   6.231  1.00  0.00     0.278 HD
HETATM    4  H   UNL     1      42.128 -16.392   6.147  1.00  0.00     0.278 HD
HETATM    5  C   UNL     1      43.334 -16.613   4.470  1.00  0.00     0.209 C 
HETATM    6  C   UNL     1      42.219 -16.960   3.462  1.00  0.00     0.115 C 
HETATM    7  N   UNL     1      41.473 -15.790   3.029  1.00  0.00    -0.353 N 
HETATM    8  C   UNL     1      41.118 -14.772   3.876  1.00  0.00     0.249 C 
HETATM    9  O   UNL     1      40.224 -13.986   3.573  1.00  0.00    -0.271 OA
HETATM   10  C   UNL     1      43.967 -17.887   5.024  1.00  0.00     0.035 C 
HETATM   11  C   UNL     1      44.561 -18.711   3.879  1.00  0.00     0.002 C 
HETATM   12  C   UNL     1      43.545 -18.989   2.768  1.00  0.00     0.002 C 
HETATM   13  C   UNL     1      42.829 -17.724   2.285  1.00  0.00     0.027 C 
HETATM   14  H   UNL     1      40.861 -15.876   2.219  1.00  0.00     0.163 HD
ENDROOT
BRANCH   1  15
HETATM   15  C   UNL     1      42.848 -13.313   5.032  1.00  0.00     0.146 C 
BRANCH  15  16
HETATM   16  C   UNL     1      43.269 -12.801   6.393  1.00  0.00     0.224 C 
HETATM   17  N   UNL     1      43.434 -11.433   6.450  1.00  0.00    -0.327 N 
HETATM   18  H   UNL     1      43.058 -10.868   5.692  1.00  0.00     0.169 HD
HETATM   19  O   UNL     1      43.521 -13.613   7.275  1.00  0.00    -0.273 OA
BRANCH  17  20
HETATM   20  C   UNL     1      44.144 -10.702   7.429  1.00  0.00     0.036 A 
HETATM   21  C   UNL     1      43.592 -10.280   8.639  1.00  0.00     0.053 A 
HETATM   22  C   UNL     1      44.395  -9.637   9.586  1.00  0.00     0.036 A 
HETATM   23  C   UNL     1      45.743  -9.396   9.334  1.00  0.00     0.024 A 
HETATM   24 CL   UNL     1      43.712  -9.167  11.095  1.00  0.00    -0.084 Cl
HETATM   25  C   UNL     1      46.296  -9.802   8.123  1.00  0.00     0.004 A 
HETATM   26  C   UNL     1      45.502 -10.457   7.178  1.00  0.00     0.029 A 
ENDBRANCH  17  20
ENDBRANCH  15  16
ENDBRANCH   1  15
TORSDOF 3
ENDMDL
MODEL 8
REMARK VINA RESULT:      -7.3      4.269      6.411
REMARK  3 active torsions:
REMARK  status: ('A' for Active; 'I' for Inactive)
REMARK    1  A    between atoms: C_6  and  N_7 
REMARK       I    between atoms: N_7  and  C_8 
REMARK    2  A    between atoms: C_8  and  C_9 
REMARK    3  A    between atoms: C_9  and  C_10 
ROOT
HETATM    1  C   UNL     1      42.587 -14.718   5.100  1.00  0.00     0.286 C 
HETATM    2  N   UNL     1      42.731 -14.020   3.742  1.00  0.00    -0.056 N 
HETATM    3  H   UNL     1      42.956 -13.025   3.879  1.00  0.00     0.278 HD
HETATM    4  H   UNL     1      43.541 -14.434   3.260  1.00  0.00     0.278 HD
HETATM    5  C   UNL     1      41.527 -14.137   2.847  1.00  0.00     0.209 C 
HETATM    6  C   UNL     1      41.127 -15.620   2.712  1.00  0.00     0.115 C 
HETATM    7  N   UNL     1      40.980 -16.279   4.000  1.00  0.00    -0.353 N 
HETATM    8  C   UNL     1      41.826 -16.057   5.055  1.00  0.00     0.249 C 
HETATM    9  O   UNL     1      41.887 -16.852   5.990  1.00  0.00    -0.271 OA
HETATM   10  C   UNL     1      41.838 -13.541   1.477  1.00  0.00     0.035 C 
HETATM   11  C   UNL     1      40.608 -13.651   0.572  1.00  0.00     0.002 C 
HETATM   12  C   UNL     1      40.068 -15.081   0.489  1.00  0.00     0.002 C 
HETATM   13  C   UNL     1      39.857 -15.719   1.864  1.00  0.00     0.027 C 
HETATM   14  H   UNL     1      40.521 -17.188   4.031  1.00  0.00     0.163 HD
ENDROOT
BRANCH   1  15
HETATM   15  C   UNL     1      42.019 -13.784   6.176  1.00  0.00     0.146 C 
BRANCH  15  16
HETATM   16  C   UNL     1      42.816 -12.502   6.280  1.00  0.00     0.224 C 
HETATM   17  N   UNL     1      43.735 -12.496   7.308  1.00  0.00    -0.327 N 
HETATM   18  H   UNL     1      43.970 -13.380   7.752  1.00  0.00     0.169 HD
HETATM   19  O   UNL     1      42.527 -11.567   5.543  1.00  0.00    -0.273 OA
BRANCH  17  20
HETATM   20  C   UNL     1      44.358 -11.366   7.886  1.00  0.00     0.036 A 
HETATM   21  C   UNL     1      43.911 -10.741   9.050  1.00  0.00     0.053 A 
HETATM   22  C   UNL     1      44.641  -9.681   9.598  1.00  0.00     0.036 A 
HETATM   23  C   UNL     1      45.807  -9.227   8.988  1.00  0.00     0.024 A 
HETATM   24 CL   UNL     1      44.105  -8.952  11.063  1.00  0.00    -0.084 Cl
HETATM   25  C   UNL     1      46.250  -9.837   7.818  1.00  0.00     0.004 A 
HETATM   26  C   UNL     1      45.532 -10.905   7.274  1.00  0.00     0.029 A 
ENDBRANCH  17  20
ENDBRANCH  15  16
ENDBRANCH   1  15
TORSDOF 3
ENDMDL
MODEL 9
REMARK VINA RESULT:      -7.2      5.276      7.647
REMARK  3 active torsions:
REMARK  status: ('A' for Active; 'I' for Inactive)
REMARK    1  A    between atoms: C_6  and  N_7 
REMARK       I    between atoms: N_7  and  C_8 
REMARK    2  A    between atoms: C_8  and  C_9 
REMARK    3  A    between atoms: C_9  and  C_10 
ROOT
HETATM    1  C   UNL     1      43.213 -13.202   6.605  1.00  0.00     0.286 C 
HETATM    2  N   UNL     1      43.537 -14.683   6.376  1.00  0.00    -0.056 N 
HETATM    3  H   UNL     1      44.520 -14.871   6.617  1.00  0.00     0.278 HD
HETATM    4  H   UNL     1      42.970 -15.234   7.034  1.00  0.00     0.278 HD
HETATM    5  C   UNL     1      43.267 -15.175   4.979  1.00  0.00     0.209 C 
HETATM    6  C   UNL     1      41.823 -14.815   4.575  1.00  0.00     0.115 C 
HETATM    7  N   UNL     1      41.519 -13.408   4.782  1.00  0.00    -0.353 N 
HETATM    8  C   UNL     1      41.951 -12.701   5.875  1.00  0.00     0.249 C 
HETATM    9  O   UNL     1      41.415 -11.642   6.190  1.00  0.00    -0.271 OA
HETATM   10  C   UNL     1      43.480 -16.685   4.909  1.00  0.00     0.035 C 
HETATM   11  C   UNL     1      43.216 -17.180   3.485  1.00  0.00     0.002 C 
HETATM   12  C   UNL     1      41.844 -16.749   2.960  1.00  0.00     0.002 C 
HETATM   13  C   UNL     1      41.586 -15.250   3.128  1.00  0.00     0.027 C 
HETATM   14  H   UNL     1      40.675 -13.026   4.360  1.00  0.00     0.163 HD
ENDROOT
BRANCH   1  15
HETATM   15  C   UNL     1      44.419 -12.294   6.329  1.00  0.00     0.146 C 
BRANCH  15  16
HETATM   16  C   UNL     1      44.782 -11.466   7.543  1.00  0.00     0.224 C 
HETATM   17  N   UNL     1      43.714 -11.184   8.369  1.00  0.00    -0.327 N 
HETATM   18  H   UNL     1      42.854 -11.713   8.246  1.00  0.00     0.169 HD
HETATM   19  O   UNL     1      45.926 -11.039   7.643  1.00  0.00    -0.273 OA
BRANCH  17  20
HETATM   20  C   UNL     1      43.643 -10.170   9.351  1.00  0.00     0.036 A 
HETATM   21  C   UNL     1      43.473  -8.815   9.060  1.00  0.00     0.053 A 
HETATM   22  C   UNL     1      43.326  -7.892  10.099  1.00  0.00     0.036 A 
HETATM   23  C   UNL     1      43.362  -8.302  11.429  1.00  0.00     0.024 A 
HETATM   24 CL   UNL     1      43.066  -6.231   9.725  1.00  0.00    -0.084 Cl
HETATM   25  C   UNL     1      43.545  -9.649  11.726  1.00  0.00     0.004 A 
HETATM   26  C   UNL     1      43.679 -10.579  10.691  1.00  0.00     0.029 A 
ENDBRANCH  17  20
ENDBRANCH  15  16
ENDBRANCH   1  15
TORSDOF 3
ENDMDL
MODEL 10
REMARK VINA RESULT:      -7.1      3.779      6.583
REMARK  3 active torsions:
REMARK  status: ('A' for Active; 'I' for Inactive)
REMARK    1  A    between atoms: C_6  and  N_7 
REMARK       I    between atoms: N_7  and  C_8 
REMARK    2  A    between atoms: C_8  and  C_9 
REMARK    3  A    between atoms: C_9  and  C_10 
ROOT
HETATM    1  C   UNL     1      40.636 -12.811   4.280  1.00  0.00     0.286 C 
HETATM    2  N   UNL     1      41.765 -13.055   3.272  1.00  0.00    -0.056 N 
HETATM    3  H   UNL     1      41.625 -12.469   2.438  1.00  0.00     0.278 HD
HETATM    4  H   UNL     1      42.644 -12.738   3.702  1.00  0.00     0.278 HD
HETATM    5  C   UNL     1      41.926 -14.490   2.848  1.00  0.00     0.209 C 
HETATM    6  C   UNL     1      42.043 -15.387   4.098  1.00  0.00     0.115 C 
HETATM    7  N   UNL     1      40.966 -15.163   5.049  1.00  0.00    -0.353 N 
HETATM    8  C   UNL     1      40.471 -13.918   5.340  1.00  0.00     0.249 C 
HETATM    9  O   UNL     1      39.820 -13.724   6.363  1.00  0.00    -0.271 OA
HETATM   10  C   UNL     1      43.165 -14.637   1.970  1.00  0.00     0.035 C 
HETATM   11  C   UNL     1      43.321 -16.095   1.531  1.00  0.00     0.002 C 
HETATM   12  C   UNL     1      43.314 -17.067   2.713  1.00  0.00     0.002 C 
HETATM   13  C   UNL     1      42.128 -16.849   3.657  1.00  0.00     0.027 C 
HETATM   14  H   UNL     1      40.832 -15.838   5.800  1.00  0.00     0.163 HD
ENDROOT
BRANCH   1  15
HETATM   15  C   UNL     1      39.303 -12.488   3.594  1.00  0.00     0.146 C 
BRANCH  15  16
HETATM   16  C   UNL     1      39.510 -11.982   2.182  1.00  0.00     0.224 C 
HETATM   17  N   UNL     1      38.875 -12.736   1.218  1.00  0.00    -0.327 N 
HETATM   18  H   UNL     1      38.162 -13.399   1.513  1.00  0.00     0.169 HD
HETATM   19  O   UNL     1      40.277 -11.044   2.000  1.00  0.00    -0.273 OA
BRANCH  17  20
HETATM   20  C   UNL     1      39.151 -12.752  -0.168  1.00  0.00     0.036 A 
HETATM   21  C   UNL     1      38.834 -11.707  -1.037  1.00  0.00     0.053 A 
HETATM   22  C   UNL     1      39.223 -11.772  -2.378  1.00  0.00     0.036 A 
HETATM   23  C   UNL     1      39.914 -12.878  -2.868  1.00  0.00     0.024 A 
HETATM   24 CL   UNL     1      38.869 -10.454  -3.428  1.00  0.00    -0.084 Cl
HETATM   25  C   UNL     1      40.221 -13.929  -2.010  1.00  0.00     0.004 A 
HETATM   26  C   UNL     1      39.846 -13.863  -0.665  1.00  0.00     0.029 A 
ENDBRANCH  17  20
ENDBRANCH  15  16
ENDBRANCH   1  15
TORSDOF 3
ENDMDL
