MODEL 1
REMARK VINA RESULT:      -7.5      0.000      0.000
REMARK  5 active torsions:
REMARK  status: ('A' for Active; 'I' for Inactive)
REMARK    1  A    between atoms: C_2  and  O_3 
REMARK    2  A    between atoms: O_3  and  C_4 
REMARK    3  A    between atoms: C_9  and  C_10 
REMARK       I    between atoms: C_10  and  N_11 
REMARK    4  A    between atoms: N_11  and  C_12 
REMARK    5  A    between atoms: C_12  and  C_13 
ROOT
HETATM    1  C   UNL     1      43.100 -16.530   2.690  1.00  0.00     0.256 C 
HETATM    2  N   UNL     1      42.300 -15.814   3.545  1.00  0.00    -0.348 N 
HETATM    3  O   UNL     1      43.580 -16.039   1.672  1.00  0.00    -0.267 OA
HETATM    4  H   UNL     1      41.935 -16.273   4.374  1.00  0.00     0.163 HD
ENDROOT
BRANCH   1   5
HETATM    5  C   UNL     1      43.386 -17.955   3.031  1.00  0.00     0.084 A 
HETATM    6  C   UNL     1      43.883 -18.407   4.256  1.00  0.00     0.180 A 
HETATM    7  N   UNL     1      44.133 -19.714   4.528  1.00  0.00    -0.236 NA
HETATM    8  C   UNL     1      43.889 -20.609   3.547  1.00  0.00     0.119 A 
HETATM    9  C   UNL     1      43.402 -20.266   2.301  1.00  0.00     0.020 A 
HETATM   10  C   UNL     1      43.149 -18.921   2.042  1.00  0.00     0.023 A 
BRANCH   6  11
HETATM   11  O   UNL     1      44.123 -17.486   5.258  1.00  0.00    -0.334 OA
BRANCH  11  12
HETATM   12  C   UNL     1      43.370 -17.709   6.452  1.00  0.00     0.173 C 
HETATM   13  C   UNL     1      43.956 -16.821   7.536  1.00  0.00     0.034 C 
ENDBRANCH  11  12
ENDBRANCH   6  11
ENDBRANCH   1   5
BRANCH   2  14
HETATM   14  C   UNL     1      41.961 -14.419   3.335  1.00  0.00     0.114 C 
HETATM   15  C   UNL     1      40.452 -14.184   3.460  1.00  0.00     0.037 C 
BRANCH  14  16
HETATM   16  C   UNL     1      42.772 -13.561   4.293  1.00  0.00    -0.036 A 
HETATM   17  C   UNL     1      43.008 -13.955   5.622  1.00  0.00     0.010 A 
HETATM   18  C   UNL     1      43.790 -13.169   6.471  1.00  0.00     0.019 A 
HETATM   19  C   UNL     1      44.352 -11.987   5.997  1.00  0.00     0.011 A 
HETATM   20 BR   UNL     1      45.417 -10.927   7.144  1.00  0.00    -0.051 Br
HETATM   21  C   UNL     1      44.142 -11.585   4.681  1.00  0.00     0.019 A 
HETATM   22  C   UNL     1      43.360 -12.371   3.833  1.00  0.00     0.010 A 
ENDBRANCH  14  16
ENDBRANCH   2  14
TORSDOF 5
ENDMDL
MODEL 2
REMARK VINA RESULT:      -7.1      2.366      2.610
REMARK  5 active torsions:
REMARK  status: ('A' for Active; 'I' for Inactive)
REMARK    1  A    between atoms: C_2  and  O_3 
REMARK    2  A    between atoms: O_3  and  C_4 
REMARK    3  A    between atoms: C_9  and  C_10 
REMARK       I    between atoms: C_10  and  N_11 
REMARK    4  A    between atoms: N_11  and  C_12 
REMARK    5  A    between atoms: C_12  and  C_13 
ROOT
HETATM    1  C   UNL     1      42.832 -16.914   2.283  1.00  0.00     0.256 C 
HETATM    2  N   UNL     1      41.576 -16.437   2.569  1.00  0.00    -0.348 N 
HETATM    3  O   UNL     1      43.586 -16.348   1.497  1.00  0.00    -0.267 OA
HETATM    4  H   UNL     1      40.999 -16.946   3.230  1.00  0.00     0.163 HD
ENDROOT
BRANCH   1   5
HETATM    5  C   UNL     1      43.276 -18.164   2.967  1.00  0.00     0.084 A 
HETATM    6  C   UNL     1      43.706 -18.249   4.293  1.00  0.00     0.180 A 
HETATM    7  N   UNL     1      44.105 -19.407   4.881  1.00  0.00    -0.236 NA
HETATM    8  C   UNL     1      44.085 -20.524   4.123  1.00  0.00     0.119 A 
HETATM    9  C   UNL     1      43.682 -20.547   2.802  1.00  0.00     0.020 A 
HETATM   10  C   UNL     1      43.273 -19.351   2.219  1.00  0.00     0.023 A 
BRANCH   6  11
HETATM   11  O   UNL     1      43.715 -17.102   5.065  1.00  0.00    -0.334 OA
BRANCH  11  12
HETATM   12  C   UNL     1      43.708 -17.343   6.474  1.00  0.00     0.173 C 
HETATM   13  C   UNL     1      42.627 -16.467   7.083  1.00  0.00     0.034 C 
ENDBRANCH  11  12
ENDBRANCH   6  11
ENDBRANCH   1   5
BRANCH   2  14
HETATM   14  C   UNL     1      41.034 -15.225   1.983  1.00  0.00     0.114 C 
HETATM   15  C   UNL     1      39.933 -15.539   0.966  1.00  0.00     0.037 C 
BRANCH  14  16
HETATM   16  C   UNL     1      40.562 -14.305   3.097  1.00  0.00    -0.036 A 
HETATM   17  C   UNL     1      40.901 -14.534   4.442  1.00  0.00     0.010 A 
HETATM   18  C   UNL     1      40.488 -13.652   5.443  1.00  0.00     0.019 A 
HETATM   19  C   UNL     1      39.741 -12.526   5.107  1.00  0.00     0.011 A 
HETATM   20 BR   UNL     1      39.189 -11.328   6.461  1.00  0.00    -0.051 Br
HETATM   21  C   UNL     1      39.405 -12.272   3.781  1.00  0.00     0.019 A 
HETATM   22  C   UNL     1      39.818 -13.156   2.781  1.00  0.00     0.010 A 
ENDBRANCH  14  16
ENDBRANCH   2  14
TORSDOF 5
ENDMDL
MODEL 3
REMARK VINA RESULT:      -6.9      3.141      6.270
REMARK  5 active torsions:
REMARK  status: ('A' for Active; 'I' for Inactive)
REMARK    1  A    between atoms: C_2  and  O_3 
REMARK    2  A    between atoms: O_3  and  C_4 
REMARK    3  A    between atoms: C_9  and  C_10 
REMARK       I    between atoms: C_10  and  N_11 
REMARK    4  A    between atoms: N_11  and  C_12 
REMARK    5  A    between atoms: C_12  and  C_13 
ROOT
HETATM    1  C   UNL     1      42.409 -13.606   4.357  1.00  0.00     0.256 C 
HETATM    2  N   UNL     1      43.240 -14.588   3.877  1.00  0.00    -0.348 N 
HETATM    3  O   UNL     1      41.288 -13.410   3.895  1.00  0.00    -0.267 OA
HETATM    4  H   UNL     1      44.154 -14.705   4.302  1.00  0.00     0.163 HD
ENDROOT
BRANCH   1   5
HETATM    5  C   UNL     1      42.905 -12.760   5.482  1.00  0.00     0.084 A 
HETATM    6  C   UNL     1      43.545 -13.237   6.628  1.00  0.00     0.180 A 
HETATM    7  N   UNL     1      43.981 -12.435   7.634  1.00  0.00    -0.236 NA
HETATM    8  C   UNL     1      43.769 -11.108   7.503  1.00  0.00     0.119 A 
HETATM    9  C   UNL     1      43.143 -10.535   6.412  1.00  0.00     0.020 A 
HETATM   10  C   UNL     1      42.706 -11.374   5.391  1.00  0.00     0.023 A 
BRANCH   6  11
HETATM   11  O   UNL     1      43.765 -14.596   6.751  1.00  0.00    -0.334 OA
BRANCH  11  12
HETATM   12  C   UNL     1      42.999 -15.224   7.781  1.00  0.00     0.173 C 
HETATM   13  C   UNL     1      41.794 -15.873   7.124  1.00  0.00     0.034 C 
ENDBRANCH  11  12
ENDBRANCH   6  11
ENDBRANCH   1   5
BRANCH   2  14
HETATM   14  C   UNL     1      42.869 -15.486   2.799  1.00  0.00     0.114 C 
HETATM   15  C   UNL     1      43.549 -15.091   1.484  1.00  0.00     0.037 C 
BRANCH  14  16
HETATM   16  C   UNL     1      43.178 -16.915   3.216  1.00  0.00    -0.036 A 
HETATM   17  C   UNL     1      43.045 -17.993   2.324  1.00  0.00     0.010 A 
HETATM   18  C   UNL     1      43.373 -19.292   2.719  1.00  0.00     0.019 A 
HETATM   19  C   UNL     1      43.847 -19.523   4.008  1.00  0.00     0.011 A 
HETATM   20 BR   UNL     1      44.299 -21.280   4.540  1.00  0.00    -0.051 Br
HETATM   21  C   UNL     1      43.999 -18.469   4.903  1.00  0.00     0.019 A 
HETATM   22  C   UNL     1      43.670 -17.170   4.507  1.00  0.00     0.010 A 
ENDBRANCH  14  16
ENDBRANCH   2  14
TORSDOF 5
ENDMDL
MODEL 4
REMARK VINA RESULT:      -6.7      3.438      6.826
REMARK  5 active torsions:
REMARK  status: ('A' for Active; 'I' for Inactive)
REMARK    1  A    between atoms: C_2  and  O_3 
REMARK    2  A    between atoms: O_3  and  C_4 
REMARK    3  A    between atoms: C_9  and  C_10 
REMARK       I    between atoms: C_10  and  N_11 
REMARK    4  A    between atoms: N_11  and  C_12 
REMARK    5  A    between atoms: C_12  and  C_13 
ROOT
HETATM    1  C   UNL     1      42.520 -13.388   5.761  1.00  0.00     0.256 C 
HETATM    2  N   UNL     1      42.476 -14.751   5.603  1.00  0.00    -0.348 N 
HETATM    3  O   UNL     1      43.490 -12.814   6.247  1.00  0.00    -0.267 OA
HETATM    4  H   UNL     1      41.648 -15.169   5.192  1.00  0.00     0.163 HD
ENDROOT
BRANCH   1   5
HETATM    5  C   UNL     1      41.336 -12.596   5.315  1.00  0.00     0.084 A 
HETATM    6  C   UNL     1      40.556 -12.874   4.191  1.00  0.00     0.180 A 
HETATM    7  N   UNL     1      39.485 -12.127   3.815  1.00  0.00    -0.236 NA
HETATM    8  C   UNL     1      39.179 -11.057   4.579  1.00  0.00     0.119 A 
HETATM    9  C   UNL     1      39.888 -10.692   5.707  1.00  0.00     0.020 A 
HETATM   10  C   UNL     1      40.980 -11.473   6.077  1.00  0.00     0.023 A 
BRANCH   6  11
HETATM   11  O   UNL     1      40.871 -13.977   3.418  1.00  0.00    -0.334 OA
BRANCH  11  12
HETATM   12  C   UNL     1      39.955 -14.225   2.349  1.00  0.00     0.173 C 
HETATM   13  C   UNL     1      39.913 -15.726   2.122  1.00  0.00     0.034 C 
ENDBRANCH  11  12
ENDBRANCH   6  11
ENDBRANCH   1   5
BRANCH   2  14
HETATM   14  C   UNL     1      43.567 -15.630   5.982  1.00  0.00     0.114 C 
HETATM   15  C   UNL     1      43.427 -16.103   7.432  1.00  0.00     0.037 C 
BRANCH  14  16
HETATM   16  C   UNL     1      43.642 -16.781   4.991  1.00  0.00    -0.036 A 
HETATM   17  C   UNL     1      44.040 -18.071   5.382  1.00  0.00     0.010 A 
HETATM   18  C   UNL     1      44.063 -19.121   4.462  1.00  0.00     0.019 A 
HETATM   19  C   UNL     1      43.677 -18.893   3.143  1.00  0.00     0.011 A 
HETATM   20 BR   UNL     1      43.700 -20.317   1.899  1.00  0.00    -0.051 Br
HETATM   21  C   UNL     1      43.267 -17.627   2.737  1.00  0.00     0.019 A 
HETATM   22  C   UNL     1      43.245 -16.577   3.659  1.00  0.00     0.010 A 
ENDBRANCH  14  16
ENDBRANCH   2  14
TORSDOF 5
ENDMDL
MODEL 5
REMARK VINA RESULT:      -6.7      3.534      4.627
REMARK  5 active torsions:
REMARK  status: ('A' for Active; 'I' for Inactive)
REMARK    1  A    between atoms: C_2  and  O_3 
REMARK    2  A    between atoms: O_3  and  C_4 
REMARK    3  A    between atoms: C_9  and  C_10 
REMARK       I    between atoms: C_10  and  N_11 
REMARK    4  A    between atoms: N_11  and  C_12 
REMARK    5  A    between atoms: C_12  and  C_13 
ROOT
HETATM    1  C   UNL     1      42.105 -16.122   3.422  1.00  0.00     0.256 C 
HETATM    2  N   UNL     1      42.531 -15.115   2.592  1.00  0.00    -0.348 N 
HETATM    3  O   UNL     1      41.136 -15.995   4.165  1.00  0.00    -0.267 OA
HETATM    4  H   UNL     1      43.336 -15.280   1.997  1.00  0.00     0.163 HD
ENDROOT
BRANCH   1   5
HETATM    5  C   UNL     1      42.860 -17.409   3.402  1.00  0.00     0.084 A 
HETATM    6  C   UNL     1      43.774 -17.824   4.373  1.00  0.00     0.180 A 
HETATM    7  N   UNL     1      44.445 -19.004   4.318  1.00  0.00    -0.236 NA
HETATM    8  C   UNL     1      44.208 -19.802   3.256  1.00  0.00     0.119 A 
HETATM    9  C   UNL     1      43.327 -19.484   2.240  1.00  0.00     0.020 A 
HETATM   10  C   UNL     1      42.647 -18.272   2.316  1.00  0.00     0.023 A 
BRANCH   6  11
HETATM   11  O   UNL     1      44.005 -17.004   5.462  1.00  0.00    -0.334 OA
BRANCH  11  12
HETATM   12  C   UNL     1      43.344 -17.419   6.659  1.00  0.00     0.173 C 
HETATM   13  C   UNL     1      43.068 -16.175   7.485  1.00  0.00     0.034 C 
ENDBRANCH  11  12
ENDBRANCH   6  11
ENDBRANCH   1   5
BRANCH   2  14
HETATM   14  C   UNL     1      41.873 -13.824   2.507  1.00  0.00     0.114 C 
HETATM   15  C   UNL     1      42.868 -12.676   2.703  1.00  0.00     0.037 C 
BRANCH  14  16
HETATM   16  C   UNL     1      41.124 -13.736   1.187  1.00  0.00    -0.036 A 
HETATM   17  C   UNL     1      41.165 -12.580   0.387  1.00  0.00     0.010 A 
HETATM   18  C   UNL     1      40.500 -12.538  -0.841  1.00  0.00     0.019 A 
HETATM   19  C   UNL     1      39.798 -13.654  -1.286  1.00  0.00     0.011 A 
HETATM   20 BR   UNL     1      38.905 -13.600  -2.951  1.00  0.00    -0.051 Br
HETATM   21  C   UNL     1      39.755 -14.813  -0.517  1.00  0.00     0.019 A 
HETATM   22  C   UNL     1      40.420 -14.854   0.712  1.00  0.00     0.010 A 
ENDBRANCH  14  16
ENDBRANCH   2  14
TORSDOF 5
ENDMDL
MODEL 6
REMARK VINA RESULT:      -6.5      1.756      2.207
REMARK  5 active torsions:
REMARK  status: ('A' for Active; 'I' for Inactive)
REMARK    1  A    between atoms: C_2  and  O_3 
REMARK    2  A    between atoms: O_3  and  C_4 
REMARK    3  A    between atoms: C_9  and  C_10 
REMARK       I    between atoms: C_10  and  N_11 
REMARK    4  A    between atoms: N_11  and  C_12 
REMARK    5  A    between atoms: C_12  and  C_13 
ROOT
HETATM    1  C   UNL     1      41.802 -15.355   4.340  1.00  0.00     0.256 C 
HETATM    2  N   UNL     1      42.466 -14.344   4.989  1.00  0.00    -0.348 N 
HETATM    3  O   UNL     1      40.603 -15.295   4.083  1.00  0.00    -0.267 OA
HETATM    4  H   UNL     1      43.459 -14.449   5.171  1.00  0.00     0.163 HD
ENDROOT
BRANCH   1   5
HETATM    5  C   UNL     1      42.587 -16.560   3.939  1.00  0.00     0.084 A 
HETATM    6  C   UNL     1      43.660 -17.098   4.653  1.00  0.00     0.180 A 
HETATM    7  N   UNL     1      44.352 -18.197   4.253  1.00  0.00    -0.236 NA
HETATM    8  C   UNL     1      43.972 -18.782   3.098  1.00  0.00     0.119 A 
HETATM    9  C   UNL     1      42.928 -18.327   2.315  1.00  0.00     0.020 A 
HETATM   10  C   UNL     1      42.229 -17.201   2.744  1.00  0.00     0.023 A 
BRANCH   6  11
HETATM   11  O   UNL     1      44.038 -16.498   5.840  1.00  0.00    -0.334 OA
BRANCH  11  12
HETATM   12  C   UNL     1      43.534 -17.146   7.010  1.00  0.00     0.173 C 
HETATM   13  C   UNL     1      43.209 -16.065   8.026  1.00  0.00     0.034 C 
ENDBRANCH  11  12
ENDBRANCH   6  11
ENDBRANCH   1   5
BRANCH   2  14
HETATM   14  C   UNL     1      41.821 -13.116   5.416  1.00  0.00     0.114 C 
HETATM   15  C   UNL     1      40.574 -13.402   6.257  1.00  0.00     0.037 C 
BRANCH  14  16
HETATM   16  C   UNL     1      42.837 -12.251   6.144  1.00  0.00    -0.036 A 
HETATM   17  C   UNL     1      44.162 -12.674   6.348  1.00  0.00     0.010 A 
HETATM   18  C   UNL     1      45.087 -11.844   6.985  1.00  0.00     0.019 A 
HETATM   19  C   UNL     1      44.699 -10.578   7.415  1.00  0.00     0.011 A 
HETATM   20 BR   UNL     1      45.953  -9.452   8.271  1.00  0.00    -0.051 Br
HETATM   21  C   UNL     1      43.396 -10.133   7.213  1.00  0.00     0.019 A 
HETATM   22  C   UNL     1      42.471 -10.965   6.576  1.00  0.00     0.010 A 
ENDBRANCH  14  16
ENDBRANCH   2  14
TORSDOF 5
ENDMDL
MODEL 7
REMARK VINA RESULT:      -6.5      3.714      5.584
REMARK  5 active torsions:
REMARK  status: ('A' for Active; 'I' for Inactive)
REMARK    1  A    between atoms: C_2  and  O_3 
REMARK    2  A    between atoms: O_3  and  C_4 
REMARK    3  A    between atoms: C_9  and  C_10 
REMARK       I    between atoms: C_10  and  N_11 
REMARK    4  A    between atoms: N_11  and  C_12 
REMARK    5  A    between atoms: C_12  and  C_13 
ROOT
HETATM    1  C   UNL     1      40.718 -14.440   5.392  1.00  0.00     0.256 C 
HETATM    2  N   UNL     1      40.818 -14.024   4.087  1.00  0.00    -0.348 N 
HETATM    3  O   UNL     1      39.834 -14.040   6.143  1.00  0.00    -0.267 OA
HETATM    4  H   UNL     1      41.569 -14.392   3.512  1.00  0.00     0.163 HD
ENDROOT
BRANCH   1   5
HETATM    5  C   UNL     1      41.730 -15.417   5.891  1.00  0.00     0.084 A 
HETATM    6  C   UNL     1      42.198 -16.527   5.184  1.00  0.00     0.180 A 
HETATM    7  N   UNL     1      43.119 -17.396   5.674  1.00  0.00    -0.236 NA
HETATM    8  C   UNL     1      43.592 -17.162   6.917  1.00  0.00     0.119 A 
HETATM    9  C   UNL     1      43.193 -16.096   7.701  1.00  0.00     0.020 A 
HETATM   10  C   UNL     1      42.250 -15.215   7.178  1.00  0.00     0.023 A 
BRANCH   6  11
HETATM   11  O   UNL     1      41.715 -16.756   3.909  1.00  0.00    -0.334 OA
BRANCH  11  12
HETATM   12  C   UNL     1      42.678 -17.307   3.008  1.00  0.00     0.173 C 
HETATM   13  C   UNL     1      43.269 -16.158   2.211  1.00  0.00     0.034 C 
ENDBRANCH  11  12
ENDBRANCH   6  11
ENDBRANCH   1   5
BRANCH   2  14
HETATM   14  C   UNL     1      39.889 -13.091   3.478  1.00  0.00     0.114 C 
HETATM   15  C   UNL     1      40.280 -11.639   3.771  1.00  0.00     0.037 C 
BRANCH  14  16
HETATM   16  C   UNL     1      39.794 -13.386   1.990  1.00  0.00    -0.036 A 
HETATM   17  C   UNL     1      40.087 -14.657   1.466  1.00  0.00     0.010 A 
HETATM   18  C   UNL     1      39.955 -14.915   0.100  1.00  0.00     0.019 A 
HETATM   19  C   UNL     1      39.517 -13.907  -0.755  1.00  0.00     0.011 A 
HETATM   20 BR   UNL     1      39.329 -14.258  -2.603  1.00  0.00    -0.051 Br
HETATM   21  C   UNL     1      39.208 -12.645  -0.256  1.00  0.00     0.019 A 
HETATM   22  C   UNL     1      39.342 -12.388   1.111  1.00  0.00     0.010 A 
ENDBRANCH  14  16
ENDBRANCH   2  14
TORSDOF 5
ENDMDL
MODEL 8
REMARK VINA RESULT:      -6.4      3.753      6.222
REMARK  5 active torsions:
REMARK  status: ('A' for Active; 'I' for Inactive)
REMARK    1  A    between atoms: C_2  and  O_3 
REMARK    2  A    between atoms: O_3  and  C_4 
REMARK    3  A    between atoms: C_9  and  C_10 
REMARK       I    between atoms: C_10  and  N_11 
REMARK    4  A    between atoms: N_11  and  C_12 
REMARK    5  A    between atoms: C_12  and  C_13 
ROOT
HETATM    1  C   UNL     1      40.309 -14.879   0.490  1.00  0.00     0.256 C 
HETATM    2  N   UNL     1      41.536 -14.499   0.974  1.00  0.00    -0.348 N 
HETATM    3  O   UNL     1      39.714 -15.868   0.909  1.00  0.00    -0.267 OA
HETATM    4  H   UNL     1      41.978 -13.670   0.592  1.00  0.00     0.163 HD
ENDROOT
BRANCH   1   5
HETATM    5  C   UNL     1      39.693 -14.043  -0.583  1.00  0.00     0.084 A 
HETATM    6  C   UNL     1      39.463 -12.667  -0.501  1.00  0.00     0.180 A 
HETATM    7  N   UNL     1      38.898 -11.940  -1.499  1.00  0.00    -0.236 NA
HETATM    8  C   UNL     1      38.539 -12.601  -2.620  1.00  0.00     0.119 A 
HETATM    9  C   UNL     1      38.719 -13.959  -2.800  1.00  0.00     0.020 A 
HETATM   10  C   UNL     1      39.303 -14.686  -1.766  1.00  0.00     0.023 A 
BRANCH   6  11
HETATM   11  O   UNL     1      39.841 -11.996   0.647  1.00  0.00    -0.334 OA
BRANCH  11  12
HETATM   12  C   UNL     1      38.800 -11.861   1.617  1.00  0.00     0.173 C 
HETATM   13  C   UNL     1      39.385 -12.225   2.970  1.00  0.00     0.034 C 
ENDBRANCH  11  12
ENDBRANCH   6  11
ENDBRANCH   1   5
BRANCH   2  14
HETATM   14  C   UNL     1      42.231 -15.218   2.026  1.00  0.00     0.114 C 
HETATM   15  C   UNL     1      43.375 -16.067   1.463  1.00  0.00     0.037 C 
BRANCH  14  16
HETATM   16  C   UNL     1      42.698 -14.225   3.079  1.00  0.00    -0.036 A 
HETATM   17  C   UNL     1      43.121 -12.929   2.741  1.00  0.00     0.010 A 
HETATM   18  C   UNL     1      43.507 -12.022   3.730  1.00  0.00     0.019 A 
HETATM   19  C   UNL     1      43.463 -12.400   5.069  1.00  0.00     0.011 A 
HETATM   20 BR   UNL     1      43.979 -11.170   6.409  1.00  0.00    -0.051 Br
HETATM   21  C   UNL     1      43.035 -13.674   5.429  1.00  0.00     0.019 A 
HETATM   22  C   UNL     1      42.650 -14.580   4.438  1.00  0.00     0.010 A 
ENDBRANCH  14  16
ENDBRANCH   2  14
TORSDOF 5
ENDMDL
MODEL 9
REMARK VINA RESULT:      -6.3      3.383      6.816
REMARK  5 active torsions:
REMARK  status: ('A' for Active; 'I' for Inactive)
REMARK    1  A    between atoms: C_2  and  O_3 
REMARK    2  A    between atoms: O_3  and  C_4 
REMARK    3  A    between atoms: C_9  and  C_10 
REMARK       I    between atoms: C_10  and  N_11 
REMARK    4  A    between atoms: N_11  and  C_12 
REMARK    5  A    between atoms: C_12  and  C_13 
ROOT
HETATM    1  C   UNL     1      42.139 -13.745   4.545  1.00  0.00     0.256 C 
HETATM    2  N   UNL     1      43.066 -14.370   3.748  1.00  0.00    -0.348 N 
HETATM    3  O   UNL     1      40.942 -14.011   4.493  1.00  0.00    -0.267 OA
HETATM    4  H   UNL     1      44.043 -14.111   3.838  1.00  0.00     0.163 HD
ENDROOT
BRANCH   1   5
HETATM    5  C   UNL     1      42.629 -12.712   5.504  1.00  0.00     0.084 A 
HETATM    6  C   UNL     1      42.253 -11.366   5.501  1.00  0.00     0.180 A 
HETATM    7  N   UNL     1      42.723 -10.454   6.391  1.00  0.00    -0.236 NA
HETATM    8  C   UNL     1      43.605 -10.888   7.316  1.00  0.00     0.119 A 
HETATM    9  C   UNL     1      44.044 -12.195   7.403  1.00  0.00     0.020 A 
HETATM   10  C   UNL     1      43.548 -13.116   6.484  1.00  0.00     0.023 A 
BRANCH   6  11
HETATM   11  O   UNL     1      41.343 -10.931   4.556  1.00  0.00    -0.334 OA
BRANCH  11  12
HETATM   12  C   UNL     1      41.920 -10.163   3.497  1.00  0.00     0.173 C 
HETATM   13  C   UNL     1      41.699 -10.928   2.204  1.00  0.00     0.034 C 
ENDBRANCH  11  12
ENDBRANCH   6  11
ENDBRANCH   1   5
BRANCH   2  14
HETATM   14  C   UNL     1      42.721 -15.402   2.787  1.00  0.00     0.114 C 
HETATM   15  C   UNL     1      43.360 -15.132   1.421  1.00  0.00     0.037 C 
BRANCH  14  16
HETATM   16  C   UNL     1      43.103 -16.758   3.358  1.00  0.00    -0.036 A 
HETATM   17  C   UNL     1      43.324 -17.875   2.534  1.00  0.00     0.010 A 
HETATM   18  C   UNL     1      43.713 -19.100   3.080  1.00  0.00     0.019 A 
HETATM   19  C   UNL     1      43.894 -19.218   4.455  1.00  0.00     0.011 A 
HETATM   20 BR   UNL     1      44.428 -20.874   5.193  1.00  0.00    -0.051 Br
HETATM   21  C   UNL     1      43.693 -18.122   5.289  1.00  0.00     0.019 A 
HETATM   22  C   UNL     1      43.304 -16.897   4.742  1.00  0.00     0.010 A 
ENDBRANCH  14  16
ENDBRANCH   2  14
TORSDOF 5
ENDMDL
MODEL 10
REMARK VINA RESULT:      -6.3      3.730      6.841
REMARK  5 active torsions:
REMARK  status: ('A' for Active; 'I' for Inactive)
REMARK    1  A    between atoms: C_2  and  O_3 
REMARK    2  A    between atoms: O_3  and  C_4 
REMARK    3  A    between atoms: C_9  and  C_10 
REMARK       I    between atoms: C_10  and  N_11 
REMARK    4  A    between atoms: N_11  and  C_12 
REMARK    5  A    between atoms: C_12  and  C_13 
ROOT
HETATM    1  C   UNL     1      42.281 -13.304   5.050  1.00  0.00     0.256 C 
HETATM    2  N   UNL     1      43.093 -13.932   4.139  1.00  0.00    -0.348 N 
HETATM    3  O   UNL     1      41.081 -13.547   5.139  1.00  0.00    -0.267 OA
HETATM    4  H   UNL     1      44.079 -13.692   4.114  1.00  0.00     0.163 HD
ENDROOT
BRANCH   1   5
HETATM    5  C   UNL     1      42.902 -12.294   5.958  1.00  0.00     0.084 A 
HETATM    6  C   UNL     1      42.334 -11.068   6.309  1.00  0.00     0.180 A 
HETATM    7  N   UNL     1      42.931 -10.173   7.137  1.00  0.00    -0.236 NA
HETATM    8  C   UNL     1      44.144 -10.501   7.632  1.00  0.00     0.119 A 
HETATM    9  C   UNL     1      44.794 -11.685   7.344  1.00  0.00     0.020 A 
HETATM   10  C   UNL     1      44.163 -12.591   6.496  1.00  0.00     0.023 A 
BRANCH   6  11
HETATM   11  O   UNL     1      41.088 -10.742   5.804  1.00  0.00    -0.334 OA
BRANCH  11  12
HETATM   12  C   UNL     1      40.090 -10.523   6.804  1.00  0.00     0.173 C 
HETATM   13  C   UNL     1      38.764 -11.001   6.238  1.00  0.00     0.034 C 
ENDBRANCH  11  12
ENDBRANCH   6  11
ENDBRANCH   1   5
BRANCH   2  14
HETATM   14  C   UNL     1      42.616 -14.942   3.213  1.00  0.00     0.114 C 
HETATM   15  C   UNL     1      43.052 -14.637   1.777  1.00  0.00     0.037 C 
BRANCH  14  16
HETATM   16  C   UNL     1      43.077 -16.310   3.691  1.00  0.00    -0.036 A 
HETATM   17  C   UNL     1      43.221 -16.609   5.056  1.00  0.00     0.010 A 
HETATM   18  C   UNL     1      43.608 -17.885   5.472  1.00  0.00     0.019 A 
HETATM   19  C   UNL     1      43.845 -18.877   4.525  1.00  0.00     0.011 A 
HETATM   20 BR   UNL     1      44.361 -20.607   5.087  1.00  0.00    -0.051 Br
HETATM   21  C   UNL     1      43.696 -18.608   3.168  1.00  0.00     0.019 A 
HETATM   22  C   UNL     1      43.309 -17.330   2.754  1.00  0.00     0.010 A 
ENDBRANCH  14  16
ENDBRANCH   2  14
TORSDOF 5
ENDMDL
