MODEL 1
REMARK VINA RESULT:      -8.9      0.000      0.000
REMARK  6 active torsions:
REMARK  status: ('A' for Active; 'I' for Inactive)
REMARK    1  A    between atoms: C_5  and  C_6 
REMARK    2  A    between atoms: C_6  and  N_7 
REMARK    3  A    between atoms: C_9  and  C_10 
REMARK    4  A    between atoms: C_17  and  C_18 
REMARK       I    between atoms: C_18  and  N_19 
REMARK    5  A    between atoms: N_19  and  C_20 
REMARK    6  A    between atoms: C_23  and  O_24 
ROOT
HETATM    1  N   UNL     1      44.145 -11.830   6.158  1.00  0.00    -0.275 N 
HETATM    2  N   UNL     1      44.417 -13.110   6.461  1.00  0.00    -0.171 NA
HETATM    3  C   UNL     1      43.409 -13.823   5.922  1.00  0.00     0.104 A 
HETATM    4  C   UNL     1      42.430 -12.947   5.348  1.00  0.00     0.080 A 
HETATM    5  C   UNL     1      42.984 -11.684   5.466  1.00  0.00     0.132 A 
ENDROOT
BRANCH   4   6
HETATM    6  C   UNL     1      41.112 -13.170   4.770  1.00  0.00     0.255 C 
HETATM    7  N   UNL     1      41.037 -12.953   3.415  1.00  0.00    -0.352 N 
HETATM    8  H   UNL     1      41.904 -12.710   2.951  1.00  0.00     0.163 HD
HETATM    9  O   UNL     1      40.193 -13.613   5.446  1.00  0.00    -0.268 OA
BRANCH   7  10
HETATM   10  C   UNL     1      39.930 -13.316   2.530  1.00  0.00     0.084 C 
HETATM   11  C   UNL     1      39.848 -12.421   1.285  1.00  0.00     0.028 C 
HETATM   12  C   UNL     1      40.617 -12.947   0.074  1.00  0.00     0.034 C 
HETATM   13  C   UNL     1      40.275 -14.400  -0.232  1.00  0.00     0.118 C 
HETATM   14  C   UNL     1      40.502 -15.311   0.969  1.00  0.00     0.034 C 
HETATM   15  C   UNL     1      39.802 -14.817   2.237  1.00  0.00     0.028 C 
BRANCH  13  16
HETATM   16  O   UNL     1      38.901 -14.487  -0.615  1.00  0.00    -0.396 OA
HETATM   17  H   UNL     1      38.851 -14.244  -1.556  1.00  0.00     0.210 HD
ENDBRANCH  13  16
ENDBRANCH   7  10
ENDBRANCH   4   6
BRANCH   3  18
HETATM   18  C   UNL     1      43.446 -15.291   6.012  1.00  0.00    -0.005 A 
HETATM   19  C   UNL     1      43.458 -16.058   4.837  1.00  0.00     0.014 A 
HETATM   20  C   UNL     1      43.471 -17.455   4.884  1.00  0.00     0.007 A 
HETATM   21  C   UNL     1      43.470 -18.119   6.114  1.00  0.00    -0.062 A 
HETATM   22  C   UNL     1      43.499 -19.619   6.153  1.00  0.00     0.048 C 
HETATM   23  C   UNL     1      43.456 -17.363   7.291  1.00  0.00     0.007 A 
HETATM   24  C   UNL     1      43.429 -15.963   7.241  1.00  0.00     0.014 A 
ENDBRANCH   3  18
BRANCH   1  25
HETATM   25  C   UNL     1      44.952 -10.759   6.729  1.00  0.00     0.189 C 
BRANCH  25  26
HETATM   26  C   UNL     1      44.528 -10.373   8.123  1.00  0.00    -0.038 A 
HETATM   27  C   UNL     1      45.462 -10.332   9.166  1.00  0.00     0.009 A 
HETATM   28  C   UNL     1      45.088  -9.897  10.441  1.00  0.00     0.007 A 
HETATM   29  C   UNL     1      43.770  -9.507  10.699  1.00  0.00    -0.062 A 
HETATM   30  C   UNL     1      43.378  -8.986  12.050  1.00  0.00     0.048 C 
HETATM   31  C   UNL     1      42.835  -9.546   9.660  1.00  0.00     0.007 A 
HETATM   32  C   UNL     1      43.208  -9.978   8.385  1.00  0.00     0.009 A 
ENDBRANCH  25  26
ENDBRANCH   1  25
TORSDOF 6
ENDMDL
MODEL 2
REMARK VINA RESULT:      -8.9      1.671      6.711
REMARK  6 active torsions:
REMARK  status: ('A' for Active; 'I' for Inactive)
REMARK    1  A    between atoms: C_5  and  C_6 
REMARK    2  A    between atoms: C_6  and  N_7 
REMARK    3  A    between atoms: C_9  and  C_10 
REMARK    4  A    between atoms: C_17  and  C_18 
REMARK       I    between atoms: C_18  and  N_19 
REMARK    5  A    between atoms: N_19  and  C_20 
REMARK    6  A    between atoms: C_23  and  O_24 
ROOT
HETATM    1  N   UNL     1      43.265 -16.265   6.716  1.00  0.00    -0.275 N 
HETATM    2  N   UNL     1      44.077 -15.261   7.086  1.00  0.00    -0.171 NA
HETATM    3  C   UNL     1      43.456 -14.136   6.683  1.00  0.00     0.104 A 
HETATM    4  C   UNL     1      42.265 -14.458   5.953  1.00  0.00     0.080 A 
HETATM    5  C   UNL     1      42.154 -15.833   6.062  1.00  0.00     0.132 A 
ENDROOT
BRANCH   4   6
HETATM    6  C   UNL     1      41.314 -13.655   5.197  1.00  0.00     0.255 C 
HETATM    7  N   UNL     1      41.206 -13.995   3.870  1.00  0.00    -0.352 N 
HETATM    8  H   UNL     1      41.753 -14.790   3.565  1.00  0.00     0.163 HD
HETATM    9  O   UNL     1      40.612 -12.820   5.751  1.00  0.00    -0.268 OA
BRANCH   7  10
HETATM   10  C   UNL     1      40.183 -13.537   2.929  1.00  0.00     0.084 C 
HETATM   11  C   UNL     1      40.693 -12.436   1.989  1.00  0.00     0.028 C 
HETATM   12  C   UNL     1      41.274 -12.946   0.671  1.00  0.00     0.034 C 
HETATM   13  C   UNL     1      40.332 -13.918  -0.030  1.00  0.00     0.118 C 
HETATM   14  C   UNL     1      39.948 -15.092   0.864  1.00  0.00     0.034 C 
HETATM   15  C   UNL     1      39.404 -14.656   2.226  1.00  0.00     0.028 C 
BRANCH  13  16
HETATM   16  O   UNL     1      39.141 -13.226  -0.408  1.00  0.00    -0.396 OA
HETATM   17  H   UNL     1      38.389 -13.772  -0.120  1.00  0.00     0.210 HD
ENDBRANCH  13  16
ENDBRANCH   7  10
ENDBRANCH   4   6
BRANCH   3  18
HETATM   18  C   UNL     1      44.058 -12.834   7.010  1.00  0.00    -0.005 A 
HETATM   19  C   UNL     1      45.180 -12.388   6.292  1.00  0.00     0.014 A 
HETATM   20  C   UNL     1      45.791 -11.167   6.589  1.00  0.00     0.007 A 
HETATM   21  C   UNL     1      45.294 -10.361   7.618  1.00  0.00    -0.062 A 
HETATM   22  C   UNL     1      45.950  -9.046   7.918  1.00  0.00     0.048 C 
HETATM   23  C   UNL     1      44.180 -10.798   8.340  1.00  0.00     0.007 A 
HETATM   24  C   UNL     1      43.576 -12.029   8.050  1.00  0.00     0.014 A 
ENDBRANCH   3  18
BRANCH   1  25
HETATM   25  C   UNL     1      43.706 -17.647   6.853  1.00  0.00     0.189 C 
BRANCH  25  26
HETATM   26  C   UNL     1      43.804 -18.373   5.536  1.00  0.00    -0.038 A 
HETATM   27  C   UNL     1      43.824 -19.774   5.495  1.00  0.00     0.009 A 
HETATM   28  C   UNL     1      43.834 -20.451   4.272  1.00  0.00     0.007 A 
HETATM   29  C   UNL     1      43.836 -19.740   3.067  1.00  0.00    -0.062 A 
HETATM   30  C   UNL     1      43.788 -20.463   1.754  1.00  0.00     0.048 C 
HETATM   31  C   UNL     1      43.816 -18.342   3.104  1.00  0.00     0.007 A 
HETATM   32  C   UNL     1      43.804 -17.665   4.326  1.00  0.00     0.009 A 
ENDBRANCH  25  26
ENDBRANCH   1  25
TORSDOF 6
ENDMDL
MODEL 3
REMARK VINA RESULT:      -8.4     16.732     20.108
REMARK  6 active torsions:
REMARK  status: ('A' for Active; 'I' for Inactive)
REMARK    1  A    between atoms: C_5  and  C_6 
REMARK    2  A    between atoms: C_6  and  N_7 
REMARK    3  A    between atoms: C_9  and  C_10 
REMARK    4  A    between atoms: C_17  and  C_18 
REMARK       I    between atoms: C_18  and  N_19 
REMARK    5  A    between atoms: N_19  and  C_20 
REMARK    6  A    between atoms: C_23  and  O_24 
ROOT
HETATM    1  N   UNL     1      46.391 -28.456  -0.056  1.00  0.00    -0.275 N 
HETATM    2  N   UNL     1      47.433 -29.006  -0.701  1.00  0.00    -0.171 NA
HETATM    3  C   UNL     1      48.267 -29.428   0.270  1.00  0.00     0.104 A 
HETATM    4  C   UNL     1      47.768 -29.040   1.558  1.00  0.00     0.080 A 
HETATM    5  C   UNL     1      46.530 -28.480   1.296  1.00  0.00     0.132 A 
ENDROOT
BRANCH   4   6
HETATM    6  C   UNL     1      48.322 -29.117   2.903  1.00  0.00     0.255 C 
HETATM    7  N   UNL     1      48.295 -30.372   3.462  1.00  0.00    -0.352 N 
HETATM    8  H   UNL     1      47.944 -31.117   2.873  1.00  0.00     0.163 HD
HETATM    9  O   UNL     1      48.851 -28.145   3.424  1.00  0.00    -0.268 OA
BRANCH   7  10
HETATM   10  C   UNL     1      48.980 -30.802   4.681  1.00  0.00     0.084 C 
HETATM   11  C   UNL     1      48.291 -31.995   5.359  1.00  0.00     0.028 C 
HETATM   12  C   UNL     1      48.813 -33.362   4.920  1.00  0.00     0.034 C 
HETATM   13  C   UNL     1      50.333 -33.446   5.003  1.00  0.00     0.118 C 
HETATM   14  C   UNL     1      51.014 -32.343   4.201  1.00  0.00     0.034 C 
HETATM   15  C   UNL     1      50.503 -30.944   4.551  1.00  0.00     0.028 C 
BRANCH  13  16
HETATM   16  O   UNL     1      50.735 -33.331   6.369  1.00  0.00    -0.396 OA
HETATM   17  H   UNL     1      50.306 -32.534   6.727  1.00  0.00     0.210 HD
ENDBRANCH  13  16
ENDBRANCH   7  10
ENDBRANCH   4   6
BRANCH   3  18
HETATM   18  C   UNL     1      49.489 -30.154  -0.106  1.00  0.00    -0.005 A 
HETATM   19  C   UNL     1      49.976 -30.060  -1.420  1.00  0.00     0.014 A 
HETATM   20  C   UNL     1      51.121 -30.754  -1.819  1.00  0.00     0.007 A 
HETATM   21  C   UNL     1      51.809 -31.563  -0.909  1.00  0.00    -0.062 A 
HETATM   22  C   UNL     1      53.046 -32.291  -1.345  1.00  0.00     0.048 C 
HETATM   23  C   UNL     1      51.330 -31.666   0.401  1.00  0.00     0.007 A 
HETATM   24  C   UNL     1      50.173 -30.980   0.795  1.00  0.00     0.014 A 
ENDBRANCH   3  18
BRANCH   1  25
HETATM   25  C   UNL     1      45.362 -27.747  -0.808  1.00  0.00     0.189 C 
BRANCH  25  26
HETATM   26  C   UNL     1      44.941 -28.466  -2.064  1.00  0.00    -0.038 A 
HETATM   27  C   UNL     1      45.257 -27.941  -3.324  1.00  0.00     0.009 A 
HETATM   28  C   UNL     1      44.937 -28.645  -4.489  1.00  0.00     0.007 A 
HETATM   29  C   UNL     1      44.287 -29.881  -4.416  1.00  0.00    -0.062 A 
HETATM   30  C   UNL     1      43.995 -30.666  -5.660  1.00  0.00     0.048 C 
HETATM   31  C   UNL     1      43.971 -30.408  -3.159  1.00  0.00     0.007 A 
HETATM   32  C   UNL     1      44.291 -29.706  -1.995  1.00  0.00     0.009 A 
ENDBRANCH  25  26
ENDBRANCH   1  25
TORSDOF 6
ENDMDL
MODEL 4
REMARK VINA RESULT:      -8.4      1.655      2.408
REMARK  6 active torsions:
REMARK  status: ('A' for Active; 'I' for Inactive)
REMARK    1  A    between atoms: C_5  and  C_6 
REMARK    2  A    between atoms: C_6  and  N_7 
REMARK    3  A    between atoms: C_9  and  C_10 
REMARK    4  A    between atoms: C_17  and  C_18 
REMARK       I    between atoms: C_18  and  N_19 
REMARK    5  A    between atoms: N_19  and  C_20 
REMARK    6  A    between atoms: C_23  and  O_24 
ROOT
HETATM    1  N   UNL     1      44.118 -10.704   7.946  1.00  0.00    -0.275 N 
HETATM    2  N   UNL     1      44.330 -11.965   7.531  1.00  0.00    -0.171 NA
HETATM    3  C   UNL     1      43.312 -12.237   6.692  1.00  0.00     0.104 A 
HETATM    4  C   UNL     1      42.386 -11.142   6.660  1.00  0.00     0.080 A 
HETATM    5  C   UNL     1      42.986 -10.159   7.428  1.00  0.00     0.132 A 
ENDROOT
BRANCH   4   6
HETATM    6  C   UNL     1      41.079 -10.963   6.044  1.00  0.00     0.255 C 
HETATM    7  N   UNL     1      41.057 -11.150   4.683  1.00  0.00    -0.352 N 
HETATM    8  H   UNL     1      41.929 -11.438   4.256  1.00  0.00     0.163 HD
HETATM    9  O   UNL     1      40.082 -10.761   6.724  1.00  0.00    -0.268 OA
BRANCH   7  10
HETATM   10  C   UNL     1      39.872 -11.270   3.834  1.00  0.00     0.084 C 
HETATM   11  C   UNL     1      39.985 -10.453   2.539  1.00  0.00     0.028 C 
HETATM   12  C   UNL     1      40.565 -11.222   1.353  1.00  0.00     0.034 C 
HETATM   13  C   UNL     1      39.859 -12.556   1.138  1.00  0.00     0.118 C 
HETATM   14  C   UNL     1      39.882 -13.427   2.389  1.00  0.00     0.034 C 
HETATM   15  C   UNL     1      39.362 -12.704   3.633  1.00  0.00     0.028 C 
BRANCH  13  16
HETATM   16  O   UNL     1      38.499 -12.315   0.777  1.00  0.00    -0.396 OA
HETATM   17  H   UNL     1      38.504 -11.636   0.080  1.00  0.00     0.210 HD
ENDBRANCH  13  16
ENDBRANCH   7  10
ENDBRANCH   4   6
BRANCH   3  18
HETATM   18  C   UNL     1      43.288 -13.532   5.997  1.00  0.00    -0.005 A 
HETATM   19  C   UNL     1      43.025 -13.576   4.618  1.00  0.00     0.014 A 
HETATM   20  C   UNL     1      42.973 -14.790   3.928  1.00  0.00     0.007 A 
HETATM   21  C   UNL     1      43.181 -15.995   4.605  1.00  0.00    -0.062 A 
HETATM   22  C   UNL     1      43.138 -17.292   3.852  1.00  0.00     0.048 C 
HETATM   23  C   UNL     1      43.441 -15.963   5.979  1.00  0.00     0.007 A 
HETATM   24  C   UNL     1      43.479 -14.744   6.671  1.00  0.00     0.014 A 
ENDBRANCH   3  18
BRANCH   1  25
HETATM   25  C   UNL     1      44.949 -10.135   8.999  1.00  0.00     0.189 C 
BRANCH  25  26
HETATM   26  C   UNL     1      44.177  -9.798  10.249  1.00  0.00    -0.038 A 
HETATM   27  C   UNL     1      43.733 -10.813  11.107  1.00  0.00     0.009 A 
HETATM   28  C   UNL     1      43.087 -10.500  12.306  1.00  0.00     0.007 A 
HETATM   29  C   UNL     1      42.861  -9.167  12.665  1.00  0.00    -0.062 A 
HETATM   30  C   UNL     1      42.220  -8.826  13.977  1.00  0.00     0.048 C 
HETATM   31  C   UNL     1      43.303  -8.151  11.810  1.00  0.00     0.007 A 
HETATM   32  C   UNL     1      43.951  -8.463  10.613  1.00  0.00     0.009 A 
ENDBRANCH  25  26
ENDBRANCH   1  25
TORSDOF 6
ENDMDL
MODEL 5
REMARK VINA RESULT:      -8.3      2.894      7.513
REMARK  6 active torsions:
REMARK  status: ('A' for Active; 'I' for Inactive)
REMARK    1  A    between atoms: C_5  and  C_6 
REMARK    2  A    between atoms: C_6  and  N_7 
REMARK    3  A    between atoms: C_9  and  C_10 
REMARK    4  A    between atoms: C_17  and  C_18 
REMARK       I    between atoms: C_18  and  N_19 
REMARK    5  A    between atoms: N_19  and  C_20 
REMARK    6  A    between atoms: C_23  and  O_24 
ROOT
HETATM    1  N   UNL     1      42.683 -14.405   3.976  1.00  0.00    -0.275 N 
HETATM    2  N   UNL     1      43.582 -13.584   4.543  1.00  0.00    -0.171 NA
HETATM    3  C   UNL     1      42.879 -12.833   5.412  1.00  0.00     0.104 A 
HETATM    4  C   UNL     1      41.480 -13.133   5.311  1.00  0.00     0.080 A 
HETATM    5  C   UNL     1      41.417 -14.195   4.425  1.00  0.00     0.132 A 
ENDROOT
BRANCH   4   6
HETATM    6  C   UNL     1      40.290 -12.538   5.903  1.00  0.00     0.255 C 
HETATM    7  N   UNL     1      40.047 -11.241   5.521  1.00  0.00    -0.352 N 
HETATM    8  H   UNL     1      40.683 -10.849   4.837  1.00  0.00     0.163 HD
HETATM    9  O   UNL     1      39.535 -13.200   6.602  1.00  0.00    -0.268 OA
BRANCH   7  10
HETATM   10  C   UNL     1      38.826 -10.472   5.757  1.00  0.00     0.084 C 
HETATM   11  C   UNL     1      38.854  -9.708   7.088  1.00  0.00     0.028 C 
HETATM   12  C   UNL     1      39.395  -8.283   6.990  1.00  0.00     0.034 C 
HETATM   13  C   UNL     1      38.716  -7.489   5.880  1.00  0.00     0.118 C 
HETATM   14  C   UNL     1      38.823  -8.185   4.527  1.00  0.00     0.034 C 
HETATM   15  C   UNL     1      38.345  -9.638   4.562  1.00  0.00     0.028 C 
BRANCH  13  16
HETATM   16  O   UNL     1      37.333  -7.326   6.199  1.00  0.00    -0.396 OA
HETATM   17  H   UNL     1      36.888  -7.014   5.392  1.00  0.00     0.210 HD
ENDBRANCH  13  16
ENDBRANCH   7  10
ENDBRANCH   4   6
BRANCH   3  18
HETATM   18  C   UNL     1      43.593 -11.869   6.262  1.00  0.00    -0.005 A 
HETATM   19  C   UNL     1      44.973 -12.021   6.475  1.00  0.00     0.014 A 
HETATM   20  C   UNL     1      45.681 -11.137   7.295  1.00  0.00     0.007 A 
HETATM   21  C   UNL     1      45.021 -10.078   7.926  1.00  0.00    -0.062 A 
HETATM   22  C   UNL     1      45.794  -9.128   8.791  1.00  0.00     0.048 C 
HETATM   23  C   UNL     1      43.647  -9.921   7.722  1.00  0.00     0.007 A 
HETATM   24  C   UNL     1      42.937 -10.816   6.911  1.00  0.00     0.014 A 
ENDBRANCH   3  18
BRANCH   1  25
HETATM   25  C   UNL     1      43.074 -15.254   2.858  1.00  0.00     0.189 C 
BRANCH  25  26
HETATM   26  C   UNL     1      43.265 -16.698   3.247  1.00  0.00    -0.038 A 
HETATM   27  C   UNL     1      43.102 -17.718   2.299  1.00  0.00     0.009 A 
HETATM   28  C   UNL     1      43.355 -19.050   2.637  1.00  0.00     0.007 A 
HETATM   29  C   UNL     1      43.766 -19.390   3.930  1.00  0.00    -0.062 A 
HETATM   30  C   UNL     1      44.094 -20.811   4.280  1.00  0.00     0.048 C 
HETATM   31  C   UNL     1      43.929 -18.375   4.878  1.00  0.00     0.007 A 
HETATM   32  C   UNL     1      43.678 -17.043   4.542  1.00  0.00     0.009 A 
ENDBRANCH  25  26
ENDBRANCH   1  25
TORSDOF 6
ENDMDL
MODEL 6
REMARK VINA RESULT:      -8.2      2.208      6.870
REMARK  6 active torsions:
REMARK  status: ('A' for Active; 'I' for Inactive)
REMARK    1  A    between atoms: C_5  and  C_6 
REMARK    2  A    between atoms: C_6  and  N_7 
REMARK    3  A    between atoms: C_9  and  C_10 
REMARK    4  A    between atoms: C_17  and  C_18 
REMARK       I    between atoms: C_18  and  N_19 
REMARK    5  A    between atoms: N_19  and  C_20 
REMARK    6  A    between atoms: C_23  and  O_24 
ROOT
HETATM    1  N   UNL     1      42.222 -15.008   5.505  1.00  0.00    -0.275 N 
HETATM    2  N   UNL     1      42.960 -14.279   6.358  1.00  0.00    -0.171 NA
HETATM    3  C   UNL     1      43.109 -13.080   5.762  1.00  0.00     0.104 A 
HETATM    4  C   UNL     1      42.524 -13.098   4.454  1.00  0.00     0.080 A 
HETATM    5  C   UNL     1      41.910 -14.335   4.366  1.00  0.00     0.132 A 
ENDROOT
BRANCH   4   6
HETATM    6  C   UNL     1      42.516 -12.143   3.354  1.00  0.00     0.255 C 
HETATM    7  N   UNL     1      41.660 -12.459   2.327  1.00  0.00    -0.352 N 
HETATM    8  H   UNL     1      41.091 -13.287   2.456  1.00  0.00     0.163 HD
HETATM    9  O   UNL     1      43.157 -11.103   3.417  1.00  0.00    -0.268 OA
BRANCH   7  10
HETATM   10  C   UNL     1      41.265 -11.591   1.218  1.00  0.00     0.084 C 
HETATM   11  C   UNL     1      40.894 -12.377  -0.048  1.00  0.00     0.028 C 
HETATM   12  C   UNL     1      39.412 -12.729  -0.165  1.00  0.00     0.034 C 
HETATM   13  C   UNL     1      38.519 -11.511   0.044  1.00  0.00     0.118 C 
HETATM   14  C   UNL     1      38.790 -10.821   1.376  1.00  0.00     0.034 C 
HETATM   15  C   UNL     1      40.268 -10.484   1.586  1.00  0.00     0.028 C 
BRANCH  13  16
HETATM   16  O   UNL     1      38.749 -10.574  -1.009  1.00  0.00    -0.396 OA
HETATM   17  H   UNL     1      39.621 -10.780  -1.389  1.00  0.00     0.210 HD
ENDBRANCH  13  16
ENDBRANCH   7  10
ENDBRANCH   4   6
BRANCH   3  18
HETATM   18  C   UNL     1      43.817 -12.010   6.481  1.00  0.00    -0.005 A 
HETATM   19  C   UNL     1      43.090 -10.934   7.016  1.00  0.00     0.014 A 
HETATM   20  C   UNL     1      43.731  -9.888   7.685  1.00  0.00     0.007 A 
HETATM   21  C   UNL     1      45.121  -9.893   7.834  1.00  0.00    -0.062 A 
HETATM   22  C   UNL     1      45.797  -8.773   8.568  1.00  0.00     0.048 C 
HETATM   23  C   UNL     1      45.854 -10.959   7.303  1.00  0.00     0.007 A 
HETATM   24  C   UNL     1      45.210 -11.999   6.620  1.00  0.00     0.014 A 
ENDBRANCH   3  18
BRANCH   1  25
HETATM   25  C   UNL     1      42.002 -16.426   5.761  1.00  0.00     0.189 C 
BRANCH  25  26
HETATM   26  C   UNL     1      42.615 -17.320   4.714  1.00  0.00    -0.038 A 
HETATM   27  C   UNL     1      43.591 -18.262   5.065  1.00  0.00     0.009 A 
HETATM   28  C   UNL     1      44.103 -19.146   4.111  1.00  0.00     0.007 A 
HETATM   29  C   UNL     1      43.658 -19.099   2.786  1.00  0.00    -0.062 A 
HETATM   30  C   UNL     1      44.162 -20.083   1.774  1.00  0.00     0.048 C 
HETATM   31  C   UNL     1      42.683 -18.160   2.432  1.00  0.00     0.007 A 
HETATM   32  C   UNL     1      42.169 -17.277   3.385  1.00  0.00     0.009 A 
ENDBRANCH  25  26
ENDBRANCH   1  25
TORSDOF 6
ENDMDL
MODEL 7
REMARK VINA RESULT:      -8.0      2.691      5.348
REMARK  6 active torsions:
REMARK  status: ('A' for Active; 'I' for Inactive)
REMARK    1  A    between atoms: C_5  and  C_6 
REMARK    2  A    between atoms: C_6  and  N_7 
REMARK    3  A    between atoms: C_9  and  C_10 
REMARK    4  A    between atoms: C_17  and  C_18 
REMARK       I    between atoms: C_18  and  N_19 
REMARK    5  A    between atoms: N_19  and  C_20 
REMARK    6  A    between atoms: C_23  and  O_24 
ROOT
HETATM    1  N   UNL     1      44.221 -10.502   8.282  1.00  0.00    -0.275 N 
HETATM    2  N   UNL     1      43.125  -9.790   7.971  1.00  0.00    -0.171 NA
HETATM    3  C   UNL     1      42.731 -10.253   6.769  1.00  0.00     0.104 A 
HETATM    4  C   UNL     1      43.670 -11.218   6.275  1.00  0.00     0.080 A 
HETATM    5  C   UNL     1      44.568 -11.390   7.313  1.00  0.00     0.132 A 
ENDROOT
BRANCH   4   6
HETATM    6  C   UNL     1      43.803 -11.914   5.003  1.00  0.00     0.255 C 
HETATM    7  N   UNL     1      43.130 -13.111   4.933  1.00  0.00    -0.352 N 
HETATM    8  H   UNL     1      42.577 -13.362   5.743  1.00  0.00     0.163 HD
HETATM    9  O   UNL     1      44.390 -11.401   4.060  1.00  0.00    -0.268 OA
BRANCH   7  10
HETATM   10  C   UNL     1      42.885 -13.908   3.732  1.00  0.00     0.084 C 
HETATM   11  C   UNL     1      43.056 -15.414   3.974  1.00  0.00     0.028 C 
HETATM   12  C   UNL     1      41.774 -16.142   4.377  1.00  0.00     0.034 C 
HETATM   13  C   UNL     1      40.622 -15.835   3.428  1.00  0.00     0.118 C 
HETATM   14  C   UNL     1      40.359 -14.338   3.308  1.00  0.00     0.034 C 
HETATM   15  C   UNL     1      41.614 -13.535   2.956  1.00  0.00     0.028 C 
BRANCH  13  16
HETATM   16  O   UNL     1      40.932 -16.348   2.131  1.00  0.00    -0.396 OA
HETATM   17  H   UNL     1      40.240 -16.031   1.525  1.00  0.00     0.210 HD
ENDBRANCH  13  16
ENDBRANCH   7  10
ENDBRANCH   4   6
BRANCH   3  18
HETATM   18  C   UNL     1      41.496  -9.723   6.172  1.00  0.00    -0.005 A 
HETATM   19  C   UNL     1      40.262  -9.975   6.793  1.00  0.00     0.014 A 
HETATM   20  C   UNL     1      39.065  -9.507   6.242  1.00  0.00     0.007 A 
HETATM   21  C   UNL     1      39.076  -8.776   5.051  1.00  0.00    -0.062 A 
HETATM   22  C   UNL     1      37.787  -8.266   4.477  1.00  0.00     0.048 C 
HETATM   23  C   UNL     1      40.299  -8.523   4.423  1.00  0.00     0.007 A 
HETATM   24  C   UNL     1      41.497  -9.005   4.970  1.00  0.00     0.014 A 
ENDBRANCH   3  18
BRANCH   1  25
HETATM   25  C   UNL     1      45.010 -10.150   9.456  1.00  0.00     0.189 C 
BRANCH  25  26
HETATM   26  C   UNL     1      44.168  -9.828  10.664  1.00  0.00    -0.038 A 
HETATM   27  C   UNL     1      43.590 -10.855  11.423  1.00  0.00     0.009 A 
HETATM   28  C   UNL     1      42.875 -10.563  12.588  1.00  0.00     0.007 A 
HETATM   29  C   UNL     1      42.715  -9.239  13.010  1.00  0.00    -0.062 A 
HETATM   30  C   UNL     1      41.998  -8.926  14.290  1.00  0.00     0.048 C 
HETATM   31  C   UNL     1      43.290  -8.212  12.255  1.00  0.00     0.007 A 
HETATM   32  C   UNL     1      44.006  -8.502  11.092  1.00  0.00     0.009 A 
ENDBRANCH  25  26
ENDBRANCH   1  25
TORSDOF 6
ENDMDL
MODEL 8
REMARK VINA RESULT:      -8.0     17.260     20.471
REMARK  6 active torsions:
REMARK  status: ('A' for Active; 'I' for Inactive)
REMARK    1  A    between atoms: C_5  and  C_6 
REMARK    2  A    between atoms: C_6  and  N_7 
REMARK    3  A    between atoms: C_9  and  C_10 
REMARK    4  A    between atoms: C_17  and  C_18 
REMARK       I    between atoms: C_18  and  N_19 
REMARK    5  A    between atoms: N_19  and  C_20 
REMARK    6  A    between atoms: C_23  and  O_24 
ROOT
HETATM    1  N   UNL     1      47.347 -28.669  -0.053  1.00  0.00    -0.275 N 
HETATM    2  N   UNL     1      47.600 -29.037   1.214  1.00  0.00    -0.171 NA
HETATM    3  C   UNL     1      48.749 -29.738   1.156  1.00  0.00     0.104 A 
HETATM    4  C   UNL     1      49.172 -29.890  -0.205  1.00  0.00     0.080 A 
HETATM    5  C   UNL     1      48.275 -29.129  -0.934  1.00  0.00     0.132 A 
ENDROOT
BRANCH   4   6
HETATM    6  C   UNL     1      50.242 -30.652  -0.835  1.00  0.00     0.255 C 
HETATM    7  N   UNL     1      50.198 -32.004  -0.598  1.00  0.00    -0.352 N 
HETATM    8  H   UNL     1      49.410 -32.339  -0.057  1.00  0.00     0.163 HD
HETATM    9  O   UNL     1      51.041 -30.113  -1.589  1.00  0.00    -0.268 OA
BRANCH   7  10
HETATM   10  C   UNL     1      50.982 -33.038  -1.273  1.00  0.00     0.084 C 
HETATM   11  C   UNL     1      50.630 -33.173  -2.761  1.00  0.00     0.028 C 
HETATM   12  C   UNL     1      51.481 -32.314  -3.695  1.00  0.00     0.034 C 
HETATM   13  C   UNL     1      52.972 -32.494  -3.433  1.00  0.00     0.118 C 
HETATM   14  C   UNL     1      53.340 -32.212  -1.981  1.00  0.00     0.034 C 
HETATM   15  C   UNL     1      52.489 -33.000  -0.983  1.00  0.00     0.028 C 
BRANCH  13  16
HETATM   16  O   UNL     1      53.344 -33.838  -3.744  1.00  0.00    -0.396 OA
HETATM   17  H   UNL     1      53.290 -34.348  -2.917  1.00  0.00     0.210 HD
ENDBRANCH  13  16
ENDBRANCH   7  10
ENDBRANCH   4   6
BRANCH   3  18
HETATM   18  C   UNL     1      49.349 -30.227   2.407  1.00  0.00    -0.005 A 
HETATM   19  C   UNL     1      50.733 -30.103   2.608  1.00  0.00     0.014 A 
HETATM   20  C   UNL     1      51.341 -30.576   3.774  1.00  0.00     0.007 A 
HETATM   21  C   UNL     1      50.575 -31.190   4.770  1.00  0.00    -0.062 A 
HETATM   22  C   UNL     1      51.236 -31.681   6.024  1.00  0.00     0.048 C 
HETATM   23  C   UNL     1      49.196 -31.321   4.577  1.00  0.00     0.007 A 
HETATM   24  C   UNL     1      48.591 -30.858   3.401  1.00  0.00     0.014 A 
ENDBRANCH   3  18
BRANCH   1  25
HETATM   25  C   UNL     1      46.082 -28.026  -0.386  1.00  0.00     0.189 C 
BRANCH  25  26
HETATM   26  C   UNL     1      45.451 -28.571  -1.642  1.00  0.00    -0.038 A 
HETATM   27  C   UNL     1      45.604 -27.901  -2.863  1.00  0.00     0.009 A 
HETATM   28  C   UNL     1      45.088 -28.445  -4.043  1.00  0.00     0.007 A 
HETATM   29  C   UNL     1      44.400 -29.663  -4.022  1.00  0.00    -0.062 A 
HETATM   30  C   UNL     1      43.895 -30.277  -5.294  1.00  0.00     0.048 C 
HETATM   31  C   UNL     1      44.245 -30.333  -2.805  1.00  0.00     0.007 A 
HETATM   32  C   UNL     1      44.762 -29.792  -1.626  1.00  0.00     0.009 A 
ENDBRANCH  25  26
ENDBRANCH   1  25
TORSDOF 6
ENDMDL
MODEL 9
REMARK VINA RESULT:      -7.8      3.180      7.669
REMARK  6 active torsions:
REMARK  status: ('A' for Active; 'I' for Inactive)
REMARK    1  A    between atoms: C_5  and  C_6 
REMARK    2  A    between atoms: C_6  and  N_7 
REMARK    3  A    between atoms: C_9  and  C_10 
REMARK    4  A    between atoms: C_17  and  C_18 
REMARK       I    between atoms: C_18  and  N_19 
REMARK    5  A    between atoms: N_19  and  C_20 
REMARK    6  A    between atoms: C_23  and  O_24 
ROOT
HETATM    1  N   UNL     1      40.944 -14.203   5.897  1.00  0.00    -0.275 N 
HETATM    2  N   UNL     1      42.098 -13.747   6.411  1.00  0.00    -0.171 NA
HETATM    3  C   UNL     1      42.112 -12.428   6.135  1.00  0.00     0.104 A 
HETATM    4  C   UNL     1      40.973 -12.074   5.340  1.00  0.00     0.080 A 
HETATM    5  C   UNL     1      40.222 -13.234   5.273  1.00  0.00     0.132 A 
ENDROOT
BRANCH   4   6
HETATM    6  C   UNL     1      40.575 -10.846   4.665  1.00  0.00     0.255 C 
HETATM    7  N   UNL     1      40.194  -9.829   5.506  1.00  0.00    -0.352 N 
HETATM    8  H   UNL     1      40.273 -10.014   6.499  1.00  0.00     0.163 HD
HETATM    9  O   UNL     1      40.679 -10.730   3.451  1.00  0.00    -0.268 OA
BRANCH   7  10
HETATM   10  C   UNL     1      39.972  -8.429   5.144  1.00  0.00     0.084 C 
HETATM   11  C   UNL     1      38.835  -7.781   5.947  1.00  0.00     0.028 C 
HETATM   12  C   UNL     1      39.283  -7.084   7.231  1.00  0.00     0.034 C 
HETATM   13  C   UNL     1      40.441  -6.123   6.984  1.00  0.00     0.118 C 
HETATM   14  C   UNL     1      41.628  -6.811   6.320  1.00  0.00     0.034 C 
HETATM   15  C   UNL     1      41.244  -7.576   5.051  1.00  0.00     0.028 C 
BRANCH  13  16
HETATM   16  O   UNL     1      39.997  -5.062   6.137  1.00  0.00    -0.396 OA
HETATM   17  H   UNL     1      40.791  -4.656   5.748  1.00  0.00     0.210 HD
ENDBRANCH  13  16
ENDBRANCH   7  10
ENDBRANCH   4   6
BRANCH   3  18
HETATM   18  C   UNL     1      43.225 -11.607   6.637  1.00  0.00    -0.005 A 
HETATM   19  C   UNL     1      44.548 -12.016   6.405  1.00  0.00     0.014 A 
HETATM   20  C   UNL     1      45.630 -11.273   6.885  1.00  0.00     0.007 A 
HETATM   21  C   UNL     1      45.412 -10.100   7.615  1.00  0.00    -0.062 A 
HETATM   22  C   UNL     1      46.581  -9.303   8.113  1.00  0.00     0.048 C 
HETATM   23  C   UNL     1      44.098  -9.687   7.854  1.00  0.00     0.007 A 
HETATM   24  C   UNL     1      43.014 -10.441   7.382  1.00  0.00     0.014 A 
ENDBRANCH   3  18
BRANCH   1  25
HETATM   25  C   UNL     1      40.673 -15.635   5.873  1.00  0.00     0.189 C 
BRANCH  25  26
HETATM   26  C   UNL     1      41.645 -16.409   5.021  1.00  0.00    -0.038 A 
HETATM   27  C   UNL     1      42.674 -17.154   5.613  1.00  0.00     0.009 A 
HETATM   28  C   UNL     1      43.528 -17.936   4.830  1.00  0.00     0.007 A 
HETATM   29  C   UNL     1      43.376 -17.981   3.440  1.00  0.00    -0.062 A 
HETATM   30  C   UNL     1      44.253 -18.864   2.603  1.00  0.00     0.048 C 
HETATM   31  C   UNL     1      42.350 -17.240   2.846  1.00  0.00     0.007 A 
HETATM   32  C   UNL     1      41.495 -16.459   3.628  1.00  0.00     0.009 A 
ENDBRANCH  25  26
ENDBRANCH   1  25
TORSDOF 6
ENDMDL
MODEL 10
REMARK VINA RESULT:      -7.8      2.940      7.146
REMARK  6 active torsions:
REMARK  status: ('A' for Active; 'I' for Inactive)
REMARK    1  A    between atoms: C_5  and  C_6 
REMARK    2  A    between atoms: C_6  and  N_7 
REMARK    3  A    between atoms: C_9  and  C_10 
REMARK    4  A    between atoms: C_17  and  C_18 
REMARK       I    between atoms: C_18  and  N_19 
REMARK    5  A    between atoms: N_19  and  C_20 
REMARK    6  A    between atoms: C_23  and  O_24 
ROOT
HETATM    1  N   UNL     1      42.837 -14.559   4.779  1.00  0.00    -0.275 N 
HETATM    2  N   UNL     1      42.321 -13.653   5.626  1.00  0.00    -0.171 NA
HETATM    3  C   UNL     1      41.873 -12.652   4.844  1.00  0.00     0.104 A 
HETATM    4  C   UNL     1      42.209 -12.902   3.473  1.00  0.00     0.080 A 
HETATM    5  C   UNL     1      42.766 -14.169   3.479  1.00  0.00     0.132 A 
ENDROOT
BRANCH   4   6
HETATM    6  C   UNL     1      42.090 -12.107   2.259  1.00  0.00     0.255 C 
HETATM    7  N   UNL     1      41.345 -12.691   1.263  1.00  0.00    -0.352 N 
HETATM    8  H   UNL     1      40.918 -13.582   1.486  1.00  0.00     0.163 HD
HETATM    9  O   UNL     1      42.543 -10.972   2.200  1.00  0.00    -0.268 OA
BRANCH   7  10
HETATM   10  C   UNL     1      40.859 -12.050   0.042  1.00  0.00     0.084 C 
HETATM   11  C   UNL     1      40.643 -13.046  -1.107  1.00  0.00     0.028 C 
HETATM   12  C   UNL     1      39.231 -13.626  -1.186  1.00  0.00     0.034 C 
HETATM   13  C   UNL     1      38.165 -12.537  -1.154  1.00  0.00     0.118 C 
HETATM   14  C   UNL     1      38.295 -11.640   0.072  1.00  0.00     0.034 C 
HETATM   15  C   UNL     1      39.701 -11.063   0.246  1.00  0.00     0.028 C 
BRANCH  13  16
HETATM   16  O   UNL     1      38.285 -11.728  -2.324  1.00  0.00    -0.396 OA
HETATM   17  H   UNL     1      37.837 -12.201  -3.047  1.00  0.00     0.210 HD
ENDBRANCH  13  16
ENDBRANCH   7  10
ENDBRANCH   4   6
BRANCH   3  18
HETATM   18  C   UNL     1      41.172 -11.519   5.468  1.00  0.00    -0.005 A 
HETATM   19  C   UNL     1      41.915 -10.462   6.019  1.00  0.00     0.014 A 
HETATM   20  C   UNL     1      41.284  -9.380   6.639  1.00  0.00     0.007 A 
HETATM   21  C   UNL     1      39.890  -9.332   6.727  1.00  0.00    -0.062 A 
HETATM   22  C   UNL     1      39.224  -8.159   7.382  1.00  0.00     0.048 C 
HETATM   23  C   UNL     1      39.142 -10.381   6.184  1.00  0.00     0.007 A 
HETATM   24  C   UNL     1      39.777 -11.472   5.574  1.00  0.00     0.014 A 
ENDBRANCH   3  18
BRANCH   1  25
HETATM   25  C   UNL     1      43.563 -15.711   5.299  1.00  0.00     0.189 C 
BRANCH  25  26
HETATM   26  C   UNL     1      43.475 -16.921   4.405  1.00  0.00    -0.038 A 
HETATM   27  C   UNL     1      42.667 -16.904   3.260  1.00  0.00     0.009 A 
HETATM   28  C   UNL     1      42.645 -17.995   2.387  1.00  0.00     0.007 A 
HETATM   29  C   UNL     1      43.423 -19.129   2.646  1.00  0.00    -0.062 A 
HETATM   30  C   UNL     1      43.446 -20.277   1.682  1.00  0.00     0.048 C 
HETATM   31  C   UNL     1      44.231 -19.149   3.788  1.00  0.00     0.007 A 
HETATM   32  C   UNL     1      44.255 -18.059   4.660  1.00  0.00     0.009 A 
ENDBRANCH  25  26
ENDBRANCH   1  25
TORSDOF 6
ENDMDL
