MODEL 1
REMARK VINA RESULT:      -7.4      0.000      0.000
REMARK  6 active torsions:
REMARK  status: ('A' for Active; 'I' for Inactive)
REMARK    1  A    between atoms: O_2  and  C_3 
REMARK    2  A    between atoms: C_3  and  C_4 
REMARK    3  A    between atoms: C_4  and  N_5 
REMARK       I    between atoms: N_5  and  C_6 
REMARK    4  A    between atoms: C_6  and  C_7 
REMARK    5  A    between atoms: C_12  and  C_13 
REMARK    6  A    between atoms: C_20  and  C_21 
ROOT
HETATM    1  C   UNL     1      40.790 -13.486   1.030  1.00  0.00     0.165 A 
HETATM    2  N   UNL     1      41.760 -14.357   1.406  1.00  0.00    -0.163 NA
HETATM    3  N   UNL     1      41.482 -14.624   2.693  1.00  0.00    -0.238 N 
HETATM    4  C   UNL     1      40.447 -13.882   3.198  1.00  0.00     0.141 A 
HETATM    5  N   UNL     1      40.140 -13.911   4.521  1.00  0.00    -0.365 N 
HETATM    6  C   UNL     1      41.107 -14.444   5.483  1.00  0.00     0.118 C 
HETATM    7  C   UNL     1      41.710 -15.725   4.885  1.00  0.00     0.066 C 
HETATM    8  C   UNL     1      42.348 -15.464   3.505  1.00  0.00     0.221 C 
HETATM    9  C   UNL     1      39.945 -13.185   2.127  1.00  0.00     0.092 A 
HETATM   10 BR   UNL     1      38.501 -11.991   2.159  1.00  0.00    -0.044 Br
HETATM   11  H   UNL     1      39.506 -13.207   4.900  1.00  0.00     0.162 HD
ENDROOT
BRANCH   1  12
HETATM   12  C   UNL     1      40.750 -12.960  -0.346  1.00  0.00     0.273 C 
HETATM   13  N   UNL     1      40.481 -13.931  -1.285  1.00  0.00    -0.353 N 
HETATM   14  H   UNL     1      40.189 -14.835  -0.916  1.00  0.00     0.162 HD
HETATM   15  O   UNL     1      40.945 -11.784  -0.636  1.00  0.00    -0.266 OA
BRANCH  13  16
HETATM   16  C   UNL     1      40.238 -13.639  -2.681  1.00  0.00     0.149 C 
BRANCH  16  17
HETATM   17  C   UNL     1      38.844 -14.094  -3.109  1.00  0.00     0.186 C 
BRANCH  17  18
HETATM   18  O   UNL     1      37.878 -13.578  -2.186  1.00  0.00    -0.394 OA
HETATM   19  C   UNL     1      37.545 -12.228  -2.480  1.00  0.00     0.201 C 
ENDBRANCH  17  18
ENDBRANCH  16  17
ENDBRANCH  13  16
ENDBRANCH   1  12
BRANCH   8  20
HETATM   20  C   UNL     1      42.641 -16.785   2.827  1.00  0.00     0.409 C 
HETATM   21  F   UNL     1      41.555 -17.295   2.204  1.00  0.00    -0.169 F 
HETATM   22  F   UNL     1      43.649 -16.719   1.934  1.00  0.00    -0.169 F 
HETATM   23  F   UNL     1      43.019 -17.702   3.758  1.00  0.00    -0.169 F 
ENDBRANCH   8  20
BRANCH   6  24
HETATM   24  C   UNL     1      42.159 -13.430   5.919  1.00  0.00    -0.035 A 
HETATM   25  C   UNL     1      43.433 -13.794   6.389  1.00  0.00     0.009 A 
HETATM   26  C   UNL     1      44.359 -12.828   6.793  1.00  0.00     0.001 A 
HETATM   27  C   UNL     1      44.032 -11.477   6.726  1.00  0.00     0.000 A 
HETATM   28  C   UNL     1      42.785 -11.091   6.248  1.00  0.00     0.001 A 
HETATM   29  C   UNL     1      41.860 -12.057   5.843  1.00  0.00     0.009 A 
ENDBRANCH   6  24
TORSDOF 6
ENDMDL
MODEL 2
REMARK VINA RESULT:      -7.1      4.072      7.401
REMARK  6 active torsions:
REMARK  status: ('A' for Active; 'I' for Inactive)
REMARK    1  A    between atoms: O_2  and  C_3 
REMARK    2  A    between atoms: C_3  and  C_4 
REMARK    3  A    between atoms: C_4  and  N_5 
REMARK       I    between atoms: N_5  and  C_6 
REMARK    4  A    between atoms: C_6  and  C_7 
REMARK    5  A    between atoms: C_12  and  C_13 
REMARK    6  A    between atoms: C_20  and  C_21 
ROOT
HETATM    1  C   UNL     1      40.163 -11.911   6.205  1.00  0.00     0.165 A 
HETATM    2  N   UNL     1      40.032 -13.262   6.241  1.00  0.00    -0.163 NA
HETATM    3  N   UNL     1      41.017 -13.708   5.444  1.00  0.00    -0.238 N 
HETATM    4  C   UNL     1      41.706 -12.709   4.808  1.00  0.00     0.141 A 
HETATM    5  N   UNL     1      42.626 -12.991   3.847  1.00  0.00    -0.365 N 
HETATM    6  C   UNL     1      42.648 -14.315   3.224  1.00  0.00     0.118 C 
HETATM    7  C   UNL     1      42.467 -15.362   4.335  1.00  0.00     0.066 C 
HETATM    8  C   UNL     1      41.173 -15.122   5.138  1.00  0.00     0.221 C 
HETATM    9  C   UNL     1      41.214 -11.540   5.330  1.00  0.00     0.092 A 
HETATM   10 BR   UNL     1      41.759  -9.806   4.876  1.00  0.00    -0.044 Br
HETATM   11  H   UNL     1      42.972 -12.235   3.256  1.00  0.00     0.162 HD
ENDROOT
BRANCH   1  12
HETATM   12  C   UNL     1      39.251 -11.051   6.980  1.00  0.00     0.273 C 
HETATM   13  N   UNL     1      39.852 -10.484   8.082  1.00  0.00    -0.353 N 
HETATM   14  H   UNL     1      40.864 -10.591   8.138  1.00  0.00     0.162 HD
HETATM   15  O   UNL     1      38.075 -10.861   6.688  1.00  0.00    -0.266 OA
BRANCH  13  16
HETATM   16  C   UNL     1      39.211  -9.486   8.909  1.00  0.00     0.149 C 
BRANCH  16  17
HETATM   17  C   UNL     1      39.930  -9.331  10.249  1.00  0.00     0.186 C 
BRANCH  17  18
HETATM   18  O   UNL     1      39.441 -10.320  11.161  1.00  0.00    -0.394 OA
HETATM   19  C   UNL     1      39.927 -10.102  12.478  1.00  0.00     0.201 C 
ENDBRANCH  17  18
ENDBRANCH  16  17
ENDBRANCH  13  16
ENDBRANCH   1  12
BRANCH   8  20
HETATM   20  C   UNL     1      41.196 -15.965   6.395  1.00  0.00     0.409 C 
HETATM   21  F   UNL     1      41.917 -15.393   7.386  1.00  0.00    -0.169 F 
HETATM   22  F   UNL     1      39.968 -16.249   6.875  1.00  0.00    -0.169 F 
HETATM   23  F   UNL     1      41.785 -17.163   6.130  1.00  0.00    -0.169 F 
ENDBRANCH   8  20
BRANCH   6  24
HETATM   24  C   UNL     1      41.651 -14.471   2.081  1.00  0.00    -0.035 A 
HETATM   25  C   UNL     1      40.849 -15.613   1.908  1.00  0.00     0.009 A 
HETATM   26  C   UNL     1      39.960 -15.716   0.834  1.00  0.00     0.001 A 
HETATM   27  C   UNL     1      39.848 -14.676  -0.083  1.00  0.00     0.000 A 
HETATM   28  C   UNL     1      40.617 -13.528   0.077  1.00  0.00     0.001 A 
HETATM   29  C   UNL     1      41.505 -13.425   1.152  1.00  0.00     0.009 A 
ENDBRANCH   6  24
TORSDOF 6
ENDMDL
MODEL 3
REMARK VINA RESULT:      -6.8      6.553      9.476
REMARK  6 active torsions:
REMARK  status: ('A' for Active; 'I' for Inactive)
REMARK    1  A    between atoms: O_2  and  C_3 
REMARK    2  A    between atoms: C_3  and  C_4 
REMARK    3  A    between atoms: C_4  and  N_5 
REMARK       I    between atoms: N_5  and  C_6 
REMARK    4  A    between atoms: C_6  and  C_7 
REMARK    5  A    between atoms: C_12  and  C_13 
REMARK    6  A    between atoms: C_20  and  C_21 
ROOT
HETATM    1  C   UNL     1      41.805  -9.201   9.000  1.00  0.00     0.165 A 
HETATM    2  N   UNL     1      43.025  -9.777   9.144  1.00  0.00    -0.163 NA
HETATM    3  N   UNL     1      43.294 -10.285   7.929  1.00  0.00    -0.238 N 
HETATM    4  C   UNL     1      42.260 -10.162   7.040  1.00  0.00     0.141 A 
HETATM    5  N   UNL     1      42.305 -10.761   5.821  1.00  0.00    -0.365 N 
HETATM    6  C   UNL     1      43.278 -11.825   5.567  1.00  0.00     0.118 C 
HETATM    7  C   UNL     1      44.622 -11.390   6.173  1.00  0.00     0.066 C 
HETATM    8  C   UNL     1      44.491 -11.072   7.677  1.00  0.00     0.221 C 
HETATM    9  C   UNL     1      41.311  -9.412   7.688  1.00  0.00     0.092 A 
HETATM   10 BR   UNL     1      39.652  -8.883   6.997  1.00  0.00    -0.044 Br
HETATM   11  H   UNL     1      41.451 -10.823   5.266  1.00  0.00     0.162 HD
ENDROOT
BRANCH   1  12
HETATM   12  C   UNL     1      41.163  -8.516  10.136  1.00  0.00     0.273 C 
HETATM   13  N   UNL     1      40.288  -9.324  10.827  1.00  0.00    -0.353 N 
HETATM   14  H   UNL     1      40.310 -10.312  10.581  1.00  0.00     0.162 HD
HETATM   15  O   UNL     1      41.373  -7.346  10.437  1.00  0.00    -0.266 OA
BRANCH  13  16
HETATM   16  C   UNL     1      39.655  -8.930  12.066  1.00  0.00     0.149 C 
BRANCH  16  17
HETATM   17  C   UNL     1      40.162  -9.768  13.239  1.00  0.00     0.186 C 
BRANCH  17  18
HETATM   18  O   UNL     1      40.756  -8.902  14.213  1.00  0.00    -0.394 OA
HETATM   19  C   UNL     1      42.174  -8.901  14.114  1.00  0.00     0.201 C 
ENDBRANCH  17  18
ENDBRANCH  16  17
ENDBRANCH  13  16
ENDBRANCH   1  12
BRANCH   8  20
HETATM   20  C   UNL     1      45.739 -10.359   8.151  1.00  0.00     0.409 C 
HETATM   21  F   UNL     1      45.750  -9.053   7.800  1.00  0.00    -0.169 F 
HETATM   22  F   UNL     1      45.931 -10.441   9.483  1.00  0.00    -0.169 F 
HETATM   23  F   UNL     1      46.834 -10.924   7.574  1.00  0.00    -0.169 F 
ENDBRANCH   8  20
BRANCH   6  24
HETATM   24  C   UNL     1      42.820 -13.200   6.041  1.00  0.00    -0.035 A 
HETATM   25  C   UNL     1      43.696 -14.168   6.564  1.00  0.00     0.009 A 
HETATM   26  C   UNL     1      43.230 -15.421   6.970  1.00  0.00     0.001 A 
HETATM   27  C   UNL     1      41.877 -15.729   6.872  1.00  0.00     0.000 A 
HETATM   28  C   UNL     1      40.987 -14.783   6.376  1.00  0.00     0.001 A 
HETATM   29  C   UNL     1      41.453 -13.529   5.970  1.00  0.00     0.009 A 
ENDBRANCH   6  24
TORSDOF 6
ENDMDL
MODEL 4
REMARK VINA RESULT:      -6.7      3.589      5.634
REMARK  6 active torsions:
REMARK  status: ('A' for Active; 'I' for Inactive)
REMARK    1  A    between atoms: O_2  and  C_3 
REMARK    2  A    between atoms: C_3  and  C_4 
REMARK    3  A    between atoms: C_4  and  N_5 
REMARK       I    between atoms: N_5  and  C_6 
REMARK    4  A    between atoms: C_6  and  C_7 
REMARK    5  A    between atoms: C_12  and  C_13 
REMARK    6  A    between atoms: C_20  and  C_21 
ROOT
HETATM    1  C   UNL     1      40.992 -11.606   3.402  1.00  0.00     0.165 A 
HETATM    2  N   UNL     1      41.248 -12.140   2.180  1.00  0.00    -0.163 NA
HETATM    3  N   UNL     1      40.724 -13.375   2.245  1.00  0.00    -0.238 N 
HETATM    4  C   UNL     1      40.242 -13.705   3.484  1.00  0.00     0.141 A 
HETATM    5  N   UNL     1      39.825 -14.968   3.763  1.00  0.00    -0.365 N 
HETATM    6  C   UNL     1      40.204 -16.073   2.882  1.00  0.00     0.118 C 
HETATM    7  C   UNL     1      40.039 -15.596   1.429  1.00  0.00     0.066 C 
HETATM    8  C   UNL     1      40.865 -14.324   1.151  1.00  0.00     0.221 C 
HETATM    9  C   UNL     1      40.347 -12.559   4.231  1.00  0.00     0.092 A 
HETATM   10 BR   UNL     1      39.840 -12.351   6.022  1.00  0.00    -0.044 Br
HETATM   11  H   UNL     1      39.663 -15.233   4.735  1.00  0.00     0.162 HD
ENDROOT
BRANCH   1  12
HETATM   12  C   UNL     1      41.412 -10.230   3.720  1.00  0.00     0.273 C 
HETATM   13  N   UNL     1      40.516  -9.280   3.283  1.00  0.00    -0.353 N 
HETATM   14  H   UNL     1      39.621  -9.635   2.949  1.00  0.00     0.162 HD
HETATM   15  O   UNL     1      42.453  -9.950   4.303  1.00  0.00    -0.266 OA
BRANCH  13  16
HETATM   16  C   UNL     1      40.628  -7.875   3.609  1.00  0.00     0.149 C 
BRANCH  16  17
HETATM   17  C   UNL     1      39.461  -7.413   4.481  1.00  0.00     0.186 C 
BRANCH  17  18
HETATM   18  O   UNL     1      39.019  -8.508   5.291  1.00  0.00    -0.394 OA
HETATM   19  C   UNL     1      39.470  -8.380   6.633  1.00  0.00     0.201 C 
ENDBRANCH  17  18
ENDBRANCH  16  17
ENDBRANCH  13  16
ENDBRANCH   1  12
BRANCH   8  20
HETATM   20  C   UNL     1      40.433 -13.722  -0.169  1.00  0.00     0.409 C 
HETATM   21  F   UNL     1      41.323 -12.820  -0.639  1.00  0.00    -0.169 F 
HETATM   22  F   UNL     1      40.211 -14.640  -1.131  1.00  0.00    -0.169 F 
HETATM   23  F   UNL     1      39.258 -13.056  -0.004  1.00  0.00    -0.169 F 
ENDBRANCH   8  20
BRANCH   6  24
HETATM   24  C   UNL     1      41.588 -16.643   3.175  1.00  0.00    -0.035 A 
HETATM   25  C   UNL     1      42.315 -17.417   2.252  1.00  0.00     0.009 A 
HETATM   26  C   UNL     1      43.574 -17.931   2.574  1.00  0.00     0.001 A 
HETATM   27  C   UNL     1      44.136 -17.675   3.820  1.00  0.00     0.000 A 
HETATM   28  C   UNL     1      43.445 -16.897   4.743  1.00  0.00     0.001 A 
HETATM   29  C   UNL     1      42.186 -16.382   4.421  1.00  0.00     0.009 A 
ENDBRANCH   6  24
TORSDOF 6
ENDMDL
MODEL 5
REMARK VINA RESULT:      -6.6      3.342      5.048
REMARK  6 active torsions:
REMARK  status: ('A' for Active; 'I' for Inactive)
REMARK    1  A    between atoms: O_2  and  C_3 
REMARK    2  A    between atoms: C_3  and  C_4 
REMARK    3  A    between atoms: C_4  and  N_5 
REMARK       I    between atoms: N_5  and  C_6 
REMARK    4  A    between atoms: C_6  and  C_7 
REMARK    5  A    between atoms: C_12  and  C_13 
REMARK    6  A    between atoms: C_20  and  C_21 
ROOT
HETATM    1  C   UNL     1      40.852 -11.557   3.191  1.00  0.00     0.165 A 
HETATM    2  N   UNL     1      41.028 -12.179   1.997  1.00  0.00    -0.163 NA
HETATM    3  N   UNL     1      40.550 -13.419   2.199  1.00  0.00    -0.238 N 
HETATM    4  C   UNL     1      40.177 -13.661   3.495  1.00  0.00     0.141 A 
HETATM    5  N   UNL     1      39.824 -14.908   3.904  1.00  0.00    -0.365 N 
HETATM    6  C   UNL     1      40.167 -16.070   3.082  1.00  0.00     0.118 C 
HETATM    7  C   UNL     1      39.872 -15.714   1.616  1.00  0.00     0.066 C 
HETATM    8  C   UNL     1      40.633 -14.447   1.174  1.00  0.00     0.221 C 
HETATM    9  C   UNL     1      40.306 -12.457   4.140  1.00  0.00     0.092 A 
HETATM   10 BR   UNL     1      39.936 -12.121   5.946  1.00  0.00    -0.044 Br
HETATM   11  H   UNL     1      39.748 -15.100   4.903  1.00  0.00     0.162 HD
ENDROOT
BRANCH   1  12
HETATM   12  C   UNL     1      41.253 -10.150   3.367  1.00  0.00     0.273 C 
HETATM   13  N   UNL     1      40.532  -9.283   2.576  1.00  0.00    -0.353 N 
HETATM   14  H   UNL     1      39.725  -9.684   2.102  1.00  0.00     0.162 HD
HETATM   15  O   UNL     1      42.141  -9.781   4.128  1.00  0.00    -0.266 OA
BRANCH  13  16
HETATM   16  C   UNL     1      40.633  -7.844   2.681  1.00  0.00     0.149 C 
BRANCH  16  17
HETATM   17  C   UNL     1      40.582  -7.182   1.304  1.00  0.00     0.186 C 
BRANCH  17  18
HETATM   18  O   UNL     1      40.698  -8.191   0.294  1.00  0.00    -0.394 OA
HETATM   19  C   UNL     1      41.777  -7.922  -0.591  1.00  0.00     0.201 C 
ENDBRANCH  17  18
ENDBRANCH  16  17
ENDBRANCH  13  16
ENDBRANCH   1  12
BRANCH   8  20
HETATM   20  C   UNL     1      40.079 -13.962  -0.149  1.00  0.00     0.409 C 
HETATM   21  F   UNL     1      39.659 -14.979  -0.934  1.00  0.00    -0.169 F 
HETATM   22  F   UNL     1      39.065 -13.082  -0.017  1.00  0.00    -0.169 F 
HETATM   23  F   UNL     1      41.054 -13.315  -0.842  1.00  0.00    -0.169 F 
ENDBRANCH   8  20
BRANCH   6  24
HETATM   24  C   UNL     1      41.587 -16.580   3.304  1.00  0.00    -0.035 A 
HETATM   25  C   UNL     1      42.272 -17.383   2.375  1.00  0.00     0.009 A 
HETATM   26  C   UNL     1      43.568 -17.839   2.632  1.00  0.00     0.001 A 
HETATM   27  C   UNL     1      44.209 -17.495   3.818  1.00  0.00     0.000 A 
HETATM   28  C   UNL     1      43.559 -16.686   4.744  1.00  0.00     0.001 A 
HETATM   29  C   UNL     1      42.263 -16.229   4.487  1.00  0.00     0.009 A 
ENDBRANCH   6  24
TORSDOF 6
ENDMDL
MODEL 6
REMARK VINA RESULT:      -6.5     16.211     17.955
REMARK  6 active torsions:
REMARK  status: ('A' for Active; 'I' for Inactive)
REMARK    1  A    between atoms: O_2  and  C_3 
REMARK    2  A    between atoms: C_3  and  C_4 
REMARK    3  A    between atoms: C_4  and  N_5 
REMARK       I    between atoms: N_5  and  C_6 
REMARK    4  A    between atoms: C_6  and  C_7 
REMARK    5  A    between atoms: C_12  and  C_13 
REMARK    6  A    between atoms: C_20  and  C_21 
ROOT
HETATM    1  C   UNL     1      44.212 -31.251   2.831  1.00  0.00     0.165 A 
HETATM    2  N   UNL     1      45.509 -31.454   3.174  1.00  0.00    -0.163 NA
HETATM    3  N   UNL     1      46.114 -30.291   2.879  1.00  0.00    -0.238 N 
HETATM    4  C   UNL     1      45.293 -29.386   2.260  1.00  0.00     0.141 A 
HETATM    5  N   UNL     1      45.783 -28.225   1.751  1.00  0.00    -0.365 N 
HETATM    6  C   UNL     1      47.223 -28.073   1.537  1.00  0.00     0.118 C 
HETATM    7  C   UNL     1      47.946 -28.650   2.765  1.00  0.00     0.066 C 
HETATM    8  C   UNL     1      47.551 -30.118   3.020  1.00  0.00     0.221 C 
HETATM    9  C   UNL     1      44.046 -29.959   2.272  1.00  0.00     0.092 A 
HETATM   10 BR   UNL     1      42.474 -29.211   1.580  1.00  0.00    -0.044 Br
HETATM   11  H   UNL     1      45.198 -27.671   1.126  1.00  0.00     0.162 HD
ENDROOT
BRANCH   1  12
HETATM   12  C   UNL     1      43.213 -32.318   3.020  1.00  0.00     0.273 C 
HETATM   13  N   UNL     1      42.375 -32.086   4.089  1.00  0.00    -0.353 N 
HETATM   14  H   UNL     1      42.437 -31.158   4.506  1.00  0.00     0.162 HD
HETATM   15  O   UNL     1      43.134 -33.315   2.312  1.00  0.00    -0.266 OA
BRANCH  13  16
HETATM   16  C   UNL     1      41.221 -32.906   4.384  1.00  0.00     0.149 C 
BRANCH  16  17
HETATM   17  C   UNL     1      39.920 -32.145   4.129  1.00  0.00     0.186 C 
BRANCH  17  18
HETATM   18  O   UNL     1      39.115 -32.182   5.313  1.00  0.00    -0.394 OA
HETATM   19  C   UNL     1      38.158 -33.230   5.262  1.00  0.00     0.201 C 
ENDBRANCH  17  18
ENDBRANCH  16  17
ENDBRANCH  13  16
ENDBRANCH   1  12
BRANCH   8  20
HETATM   20  C   UNL     1      48.032 -30.538   4.392  1.00  0.00     0.409 C 
HETATM   21  F   UNL     1      47.180 -30.163   5.373  1.00  0.00    -0.169 F 
HETATM   22  F   UNL     1      48.248 -31.865   4.503  1.00  0.00    -0.169 F 
HETATM   23  F   UNL     1      49.222 -29.936   4.662  1.00  0.00    -0.169 F 
ENDBRANCH   8  20
BRANCH   6  24
HETATM   24  C   UNL     1      47.712 -28.662   0.218  1.00  0.00    -0.035 A 
HETATM   25  C   UNL     1      48.893 -29.415   0.100  1.00  0.00     0.009 A 
HETATM   26  C   UNL     1      49.308 -29.921  -1.135  1.00  0.00     0.001 A 
HETATM   27  C   UNL     1      48.545 -29.693  -2.276  1.00  0.00     0.000 A 
HETATM   28  C   UNL     1      47.363 -28.967  -2.182  1.00  0.00     0.001 A 
HETATM   29  C   UNL     1      46.947 -28.461  -0.946  1.00  0.00     0.009 A 
ENDBRANCH   6  24
TORSDOF 6
ENDMDL
MODEL 7
REMARK VINA RESULT:      -6.3      8.299     11.077
REMARK  6 active torsions:
REMARK  status: ('A' for Active; 'I' for Inactive)
REMARK    1  A    between atoms: O_2  and  C_3 
REMARK    2  A    between atoms: C_3  and  C_4 
REMARK    3  A    between atoms: C_4  and  N_5 
REMARK       I    between atoms: N_5  and  C_6 
REMARK    4  A    between atoms: C_6  and  C_7 
REMARK    5  A    between atoms: C_12  and  C_13 
REMARK    6  A    between atoms: C_20  and  C_21 
ROOT
HETATM    1  C   UNL     1      43.213  -8.607   9.738  1.00  0.00     0.165 A 
HETATM    2  N   UNL     1      43.195  -8.183  11.028  1.00  0.00    -0.163 NA
HETATM    3  N   UNL     1      41.940  -8.434  11.439  1.00  0.00    -0.238 N 
HETATM    4  C   UNL     1      41.118  -8.896  10.446  1.00  0.00     0.141 A 
HETATM    5  N   UNL     1      39.783  -9.047  10.652  1.00  0.00    -0.365 N 
HETATM    6  C   UNL     1      39.144  -8.399  11.798  1.00  0.00     0.118 C 
HETATM    7  C   UNL     1      40.057  -8.590  13.019  1.00  0.00     0.066 C 
HETATM    8  C   UNL     1      41.475  -8.042  12.760  1.00  0.00     0.221 C 
HETATM    9  C   UNL     1      41.931  -9.073   9.354  1.00  0.00     0.092 A 
HETATM   10 BR   UNL     1      41.404  -9.700   7.669  1.00  0.00    -0.044 Br
HETATM   11  H   UNL     1      39.171  -9.196   9.849  1.00  0.00     0.162 HD
ENDROOT
BRANCH   1  12
HETATM   12  C   UNL     1      44.444  -8.505   8.935  1.00  0.00     0.273 C 
HETATM   13  N   UNL     1      45.078  -9.716   8.767  1.00  0.00    -0.353 N 
HETATM   14  H   UNL     1      44.553 -10.536   9.068  1.00  0.00     0.162 HD
HETATM   15  O   UNL     1      44.873  -7.455   8.469  1.00  0.00    -0.266 OA
BRANCH  13  16
HETATM   16  C   UNL     1      46.216  -9.901   7.893  1.00  0.00     0.149 C 
BRANCH  16  17
HETATM   17  C   UNL     1      45.953 -11.001   6.865  1.00  0.00     0.186 C 
BRANCH  17  18
HETATM   18  O   UNL     1      44.553 -11.304   6.850  1.00  0.00    -0.394 OA
HETATM   19  C   UNL     1      44.323 -12.704   6.771  1.00  0.00     0.201 C 
ENDBRANCH  17  18
ENDBRANCH  16  17
ENDBRANCH  13  16
ENDBRANCH   1  12
BRANCH   8  20
HETATM   20  C   UNL     1      42.410  -8.527  13.847  1.00  0.00     0.409 C 
HETATM   21  F   UNL     1      43.525  -7.769  13.943  1.00  0.00    -0.169 F 
HETATM   22  F   UNL     1      41.832  -8.586  15.065  1.00  0.00    -0.169 F 
HETATM   23  F   UNL     1      42.824  -9.791  13.563  1.00  0.00    -0.169 F 
ENDBRANCH   8  20
BRANCH   6  24
HETATM   24  C   UNL     1      38.770  -6.941  11.547  1.00  0.00    -0.035 A 
HETATM   25  C   UNL     1      38.412  -6.049  12.573  1.00  0.00     0.009 A 
HETATM   26  C   UNL     1      38.063  -4.726  12.291  1.00  0.00     0.001 A 
HETATM   27  C   UNL     1      38.073  -4.264  10.979  1.00  0.00     0.000 A 
HETATM   28  C   UNL     1      38.442  -5.122   9.949  1.00  0.00     0.001 A 
HETATM   29  C   UNL     1      38.793  -6.445  10.231  1.00  0.00     0.009 A 
ENDBRANCH   6  24
TORSDOF 6
ENDMDL
MODEL 8
REMARK VINA RESULT:      -6.3     16.240     18.223
REMARK  6 active torsions:
REMARK  status: ('A' for Active; 'I' for Inactive)
REMARK    1  A    between atoms: O_2  and  C_3 
REMARK    2  A    between atoms: C_3  and  C_4 
REMARK    3  A    between atoms: C_4  and  N_5 
REMARK       I    between atoms: N_5  and  C_6 
REMARK    4  A    between atoms: C_6  and  C_7 
REMARK    5  A    between atoms: C_12  and  C_13 
REMARK    6  A    between atoms: C_20  and  C_21 
ROOT
HETATM    1  C   UNL     1      44.614 -30.977   1.917  1.00  0.00     0.165 A 
HETATM    2  N   UNL     1      45.861 -31.073   1.391  1.00  0.00    -0.163 NA
HETATM    3  N   UNL     1      45.957 -30.008   0.577  1.00  0.00    -0.238 N 
HETATM    4  C   UNL     1      44.795 -29.293   0.467  1.00  0.00     0.141 A 
HETATM    5  N   UNL     1      44.672 -28.283  -0.436  1.00  0.00    -0.365 N 
HETATM    6  C   UNL     1      45.631 -28.169  -1.536  1.00  0.00     0.118 C 
HETATM    7  C   UNL     1      47.037 -28.419  -0.965  1.00  0.00     0.066 C 
HETATM    8  C   UNL     1      47.127 -29.787  -0.258  1.00  0.00     0.221 C 
HETATM    9  C   UNL     1      43.931 -29.862   1.368  1.00  0.00     0.092 A 
HETATM   10 BR   UNL     1      42.168 -29.326   1.707  1.00  0.00    -0.044 Br
HETATM   11  H   UNL     1      43.746 -27.906  -0.636  1.00  0.00     0.162 HD
ENDROOT
BRANCH   1  12
HETATM   12  C   UNL     1      44.131 -31.978   2.884  1.00  0.00     0.273 C 
HETATM   13  N   UNL     1      43.904 -31.451   4.136  1.00  0.00    -0.353 N 
HETATM   14  H   UNL     1      43.938 -30.435   4.201  1.00  0.00     0.162 HD
HETATM   15  O   UNL     1      43.956 -33.162   2.615  1.00  0.00    -0.266 OA
BRANCH  13  16
HETATM   16  C   UNL     1      43.285 -32.196   5.210  1.00  0.00     0.149 C 
BRANCH  16  17
HETATM   17  C   UNL     1      41.866 -31.699   5.483  1.00  0.00     0.186 C 
BRANCH  17  18
HETATM   18  O   UNL     1      41.833 -31.052   6.760  1.00  0.00    -0.394 OA
HETATM   19  C   UNL     1      42.072 -31.970   7.818  1.00  0.00     0.201 C 
ENDBRANCH  17  18
ENDBRANCH  16  17
ENDBRANCH  13  16
ENDBRANCH   1  12
BRANCH   8  20
HETATM   20  C   UNL     1      48.408 -29.853   0.547  1.00  0.00     0.409 C 
HETATM   21  F   UNL     1      48.316 -29.182   1.717  1.00  0.00    -0.169 F 
HETATM   22  F   UNL     1      48.812 -31.113   0.811  1.00  0.00    -0.169 F 
HETATM   23  F   UNL     1      49.418 -29.271  -0.155  1.00  0.00    -0.169 F 
ENDBRANCH   8  20
BRANCH   6  24
HETATM   24  C   UNL     1      45.300 -29.055  -2.732  1.00  0.00    -0.035 A 
HETATM   25  C   UNL     1      46.239 -29.898  -3.351  1.00  0.00     0.009 A 
HETATM   26  C   UNL     1      45.891 -30.680  -4.456  1.00  0.00     0.001 A 
HETATM   27  C   UNL     1      44.594 -30.642  -4.959  1.00  0.00     0.000 A 
HETATM   28  C   UNL     1      43.642 -29.830  -4.352  1.00  0.00     0.001 A 
HETATM   29  C   UNL     1      43.990 -29.049  -3.246  1.00  0.00     0.009 A 
ENDBRANCH   6  24
TORSDOF 6
ENDMDL
MODEL 9
REMARK VINA RESULT:      -6.3      6.094      8.429
REMARK  6 active torsions:
REMARK  status: ('A' for Active; 'I' for Inactive)
REMARK    1  A    between atoms: O_2  and  C_3 
REMARK    2  A    between atoms: C_3  and  C_4 
REMARK    3  A    between atoms: C_4  and  N_5 
REMARK       I    between atoms: N_5  and  C_6 
REMARK    4  A    between atoms: C_6  and  C_7 
REMARK    5  A    between atoms: C_12  and  C_13 
REMARK    6  A    between atoms: C_20  and  C_21 
ROOT
HETATM    1  C   UNL     1      42.160 -10.902   6.450  1.00  0.00     0.165 A 
HETATM    2  N   UNL     1      41.464  -9.804   6.839  1.00  0.00    -0.163 NA
HETATM    3  N   UNL     1      42.358  -9.076   7.529  1.00  0.00    -0.238 N 
HETATM    4  C   UNL     1      43.564  -9.702   7.698  1.00  0.00     0.141 A 
HETATM    5  N   UNL     1      44.523  -9.176   8.505  1.00  0.00    -0.365 N 
HETATM    6  C   UNL     1      44.171  -8.137   9.474  1.00  0.00     0.118 C 
HETATM    7  C   UNL     1      43.231  -7.140   8.777  1.00  0.00     0.066 C 
HETATM    8  C   UNL     1      41.984  -7.842   8.201  1.00  0.00     0.221 C 
HETATM    9  C   UNL     1      43.481 -10.855   6.959  1.00  0.00     0.092 A 
HETATM   10 BR   UNL     1      44.822 -12.150   6.770  1.00  0.00    -0.044 Br
HETATM   11  H   UNL     1      45.321  -9.754   8.770  1.00  0.00     0.162 HD
ENDROOT
BRANCH   1  12
HETATM   12  C   UNL     1      41.510 -11.952   5.645  1.00  0.00     0.273 C 
HETATM   13  N   UNL     1      41.036 -12.998   6.407  1.00  0.00    -0.353 N 
HETATM   14  H   UNL     1      41.044 -12.849   7.415  1.00  0.00     0.162 HD
HETATM   15  O   UNL     1      41.406 -11.914   4.424  1.00  0.00    -0.266 OA
BRANCH  13  16
HETATM   16  C   UNL     1      40.228 -14.069   5.868  1.00  0.00     0.149 C 
BRANCH  16  17
HETATM   17  C   UNL     1      41.057 -15.335   5.656  1.00  0.00     0.186 C 
BRANCH  17  18
HETATM   18  O   UNL     1      41.312 -15.948   6.925  1.00  0.00    -0.394 OA
HETATM   19  C   UNL     1      42.554 -16.637   6.932  1.00  0.00     0.201 C 
ENDBRANCH  17  18
ENDBRANCH  16  17
ENDBRANCH  13  16
ENDBRANCH   1  12
BRANCH   8  20
HETATM   20  C   UNL     1      41.259  -6.895   7.268  1.00  0.00     0.409 C 
HETATM   21  F   UNL     1      41.839  -6.830   6.049  1.00  0.00    -0.169 F 
HETATM   22  F   UNL     1      39.955  -7.198   7.102  1.00  0.00    -0.169 F 
HETATM   23  F   UNL     1      41.293  -5.635   7.781  1.00  0.00    -0.169 F 
ENDBRANCH   8  20
BRANCH   6  24
HETATM   24  C   UNL     1      43.607  -8.684  10.781  1.00  0.00    -0.035 A 
HETATM   25  C   UNL     1      43.538 -10.057  11.077  1.00  0.00     0.009 A 
HETATM   26  C   UNL     1      42.997 -10.510  12.283  1.00  0.00     0.001 A 
HETATM   27  C   UNL     1      42.523  -9.600  13.223  1.00  0.00     0.000 A 
HETATM   28  C   UNL     1      42.598  -8.236  12.962  1.00  0.00     0.001 A 
HETATM   29  C   UNL     1      43.140  -7.783  11.755  1.00  0.00     0.009 A 
ENDBRANCH   6  24
TORSDOF 6
ENDMDL
MODEL 10
REMARK VINA RESULT:      -6.3      3.932      6.418
REMARK  6 active torsions:
REMARK  status: ('A' for Active; 'I' for Inactive)
REMARK    1  A    between atoms: O_2  and  C_3 
REMARK    2  A    between atoms: C_3  and  C_4 
REMARK    3  A    between atoms: C_4  and  N_5 
REMARK       I    between atoms: N_5  and  C_6 
REMARK    4  A    between atoms: C_6  and  C_7 
REMARK    5  A    between atoms: C_12  and  C_13 
REMARK    6  A    between atoms: C_20  and  C_21 
ROOT
HETATM    1  C   UNL     1      42.273 -15.268   5.038  1.00  0.00     0.165 A 
HETATM    2  N   UNL     1      41.475 -15.371   3.945  1.00  0.00    -0.163 NA
HETATM    3  N   UNL     1      41.711 -14.241   3.258  1.00  0.00    -0.238 N 
HETATM    4  C   UNL     1      42.537 -13.364   3.909  1.00  0.00     0.141 A 
HETATM    5  N   UNL     1      42.750 -12.110   3.428  1.00  0.00    -0.365 N 
HETATM    6  C   UNL     1      41.846 -11.551   2.422  1.00  0.00     0.118 C 
HETATM    7  C   UNL     1      41.558 -12.649   1.385  1.00  0.00     0.066 C 
HETATM    8  C   UNL     1      40.978 -13.916   2.045  1.00  0.00     0.221 C 
HETATM    9  C   UNL     1      42.962 -14.029   5.031  1.00  0.00     0.092 A 
HETATM   10 BR   UNL     1      44.129 -13.367   6.339  1.00  0.00    -0.044 Br
HETATM   11  H   UNL     1      43.200 -11.419   4.028  1.00  0.00     0.162 HD
ENDROOT
BRANCH   1  12
HETATM   12  C   UNL     1      42.303 -16.342   6.047  1.00  0.00     0.273 C 
HETATM   13  N   UNL     1      42.996 -17.456   5.626  1.00  0.00    -0.353 N 
HETATM   14  H   UNL     1      43.526 -17.347   4.763  1.00  0.00     0.162 HD
HETATM   15  O   UNL     1      41.762 -16.266   7.145  1.00  0.00    -0.266 OA
BRANCH  13  16
HETATM   16  C   UNL     1      43.295 -18.577   6.490  1.00  0.00     0.149 C 
BRANCH  16  17
HETATM   17  C   UNL     1      43.804 -19.774   5.688  1.00  0.00     0.186 C 
BRANCH  17  18
HETATM   18  O   UNL     1      44.130 -19.346   4.361  1.00  0.00    -0.394 OA
HETATM   19  C   UNL     1      43.833 -20.351   3.401  1.00  0.00     0.201 C 
ENDBRANCH  17  18
ENDBRANCH  16  17
ENDBRANCH  13  16
ENDBRANCH   1  12
BRANCH   8  20
HETATM   20  C   UNL     1      41.006 -15.059   1.052  1.00  0.00     0.409 C 
HETATM   21  F   UNL     1      42.212 -15.669   1.004  1.00  0.00    -0.169 F 
HETATM   22  F   UNL     1      40.066 -15.997   1.285  1.00  0.00    -0.169 F 
HETATM   23  F   UNL     1      40.764 -14.582  -0.199  1.00  0.00    -0.169 F 
ENDBRANCH   8  20
BRANCH   6  24
HETATM   24  C   UNL     1      40.583 -10.931   3.010  1.00  0.00    -0.035 A 
HETATM   25  C   UNL     1      39.496 -10.504   2.226  1.00  0.00     0.009 A 
HETATM   26  C   UNL     1      38.366  -9.927   2.811  1.00  0.00     0.001 A 
HETATM   27  C   UNL     1      38.294  -9.774   4.192  1.00  0.00     0.000 A 
HETATM   28  C   UNL     1      39.348 -10.206   4.990  1.00  0.00     0.001 A 
HETATM   29  C   UNL     1      40.478 -10.784   4.405  1.00  0.00     0.009 A 
ENDBRANCH   6  24
TORSDOF 6
ENDMDL
