MODEL 1
REMARK VINA RESULT:      -7.5      0.000      0.000
REMARK  6 active torsions:
REMARK  status: ('A' for Active; 'I' for Inactive)
REMARK    1  A    between atoms: C_8  and  N_9 
REMARK       I    between atoms: N_9  and  C_10 
REMARK    2  A    between atoms: C_10  and  C_11 
REMARK    3  A    between atoms: C_11  and  N_12 
REMARK    4  A    between atoms: N_12  and  C_13 
REMARK    5  A    between atoms: C_13  and  C_14 
REMARK    6  A    between atoms: C_13  and  C_17 
ROOT
HETATM    1  C   UNL     1      39.711 -14.592   2.522  1.00  0.00     0.372 C 
ENDROOT
BRANCH   1   2
HETATM    2  C   UNL     1      40.223 -14.610   1.077  1.00  0.00     0.250 C 
HETATM    3  N   UNL     1      39.452 -13.815   0.254  1.00  0.00    -0.322 N 
HETATM    4  H   UNL     1      38.601 -13.459   0.676  1.00  0.00     0.169 HD
HETATM    5  O   UNL     1      41.229 -15.242   0.776  1.00  0.00    -0.271 OA
BRANCH   3   6
HETATM    6  C   UNL     1      39.681 -13.494  -1.072  1.00  0.00     0.085 A 
HETATM    7  C   UNL     1      40.350 -12.337  -1.430  1.00  0.00     0.052 A 
HETATM    8  C   UNL     1      40.949 -11.240  -0.635  1.00  0.00     0.072 C 
HETATM    9  N   UNL     1      40.405 -12.343  -2.794  1.00  0.00    -0.280 N 
HETATM   10  H   UNL     1      40.824 -11.653  -3.408  1.00  0.00     0.189 HD
HETATM   11  N   UNL     1      39.833 -13.411  -3.354  1.00  0.00    -0.177 NA
HETATM   12  C   UNL     1      39.387 -14.134  -2.314  1.00  0.00     0.079 A 
HETATM   13  C   UNL     1      38.698 -15.416  -2.604  1.00  0.00     0.075 C 
ENDBRANCH   3   6
ENDBRANCH   1   2
BRANCH   1  14
HETATM   14  N   UNL     1      40.081 -15.848   3.204  1.00  0.00     0.101 N 
HETATM   15  H   UNL     1      40.469 -16.484   2.507  1.00  0.00     0.317 HD
BRANCH  14  16
HETATM   16  C   UNL     1      41.079 -15.619   4.275  1.00  0.00     0.259 C 
BRANCH  16  17
HETATM   17  C   UNL     1      41.681 -14.176   4.302  1.00  0.00     0.015 C 
HETATM   18  C   UNL     1      41.605 -13.469   5.662  1.00  0.00     0.012 C 
HETATM   19  C   UNL     1      43.131 -14.150   3.803  1.00  0.00     0.012 C 
ENDBRANCH  16  17
BRANCH  16  20
HETATM   20  C   UNL     1      42.186 -16.676   4.224  1.00  0.00    -0.003 A 
HETATM   21  C   UNL     1      42.848 -17.121   5.385  1.00  0.00     0.042 A 
HETATM   22 CL   UNL     1      42.445 -16.539   6.964  1.00  0.00    -0.084 Cl
HETATM   23  C   UNL     1      43.884 -18.061   5.306  1.00  0.00     0.024 A 
HETATM   24  C   UNL     1      44.283 -18.569   4.073  1.00  0.00     0.002 A 
HETATM   25  C   UNL     1      43.648 -18.141   2.913  1.00  0.00     0.001 A 
HETATM   26  C   UNL     1      42.611 -17.207   2.988  1.00  0.00     0.011 A 
ENDBRANCH  16  20
ENDBRANCH  14  16
ENDBRANCH   1  14
TORSDOF 6
ENDMDL
MODEL 2
REMARK VINA RESULT:      -7.5      4.690      6.758
REMARK  6 active torsions:
REMARK  status: ('A' for Active; 'I' for Inactive)
REMARK    1  A    between atoms: C_8  and  N_9 
REMARK       I    between atoms: N_9  and  C_10 
REMARK    2  A    between atoms: C_10  and  C_11 
REMARK    3  A    between atoms: C_11  and  N_12 
REMARK    4  A    between atoms: N_12  and  C_13 
REMARK    5  A    between atoms: C_13  and  C_14 
REMARK    6  A    between atoms: C_13  and  C_17 
ROOT
HETATM    1  C   UNL     1      42.879 -13.487   4.038  1.00  0.00     0.372 C 
ENDROOT
BRANCH   1   2
HETATM    2  C   UNL     1      43.291 -12.110   4.569  1.00  0.00     0.250 C 
HETATM    3  N   UNL     1      42.957 -11.955   5.899  1.00  0.00    -0.322 N 
HETATM    4  H   UNL     1      42.377 -12.694   6.283  1.00  0.00     0.169 HD
HETATM    5  O   UNL     1      43.884 -11.312   3.851  1.00  0.00    -0.271 OA
BRANCH   3   6
HETATM    6  C   UNL     1      43.278 -10.904   6.738  1.00  0.00     0.085 A 
HETATM    7  C   UNL     1      42.317 -10.008   7.173  1.00  0.00     0.052 A 
HETATM    8  C   UNL     1      40.861  -9.901   6.923  1.00  0.00     0.072 C 
HETATM    9  N   UNL     1      42.970  -9.121   7.979  1.00  0.00    -0.280 N 
HETATM   10  H   UNL     1      42.586  -8.325   8.478  1.00  0.00     0.189 HD
HETATM   11  N   UNL     1      44.274  -9.369   8.112  1.00  0.00    -0.177 NA
HETATM   12  C   UNL     1      44.483 -10.464   7.362  1.00  0.00     0.079 A 
HETATM   13  C   UNL     1      45.860 -11.015   7.306  1.00  0.00     0.075 C 
ENDBRANCH   3   6
ENDBRANCH   1   2
BRANCH   1  14
HETATM   14  N   UNL     1      43.232 -14.533   5.017  1.00  0.00     0.101 N 
HETATM   15  H   UNL     1      43.211 -14.114   5.948  1.00  0.00     0.317 HD
BRANCH  14  16
HETATM   16  C   UNL     1      42.289 -15.675   4.968  1.00  0.00     0.259 C 
BRANCH  16  17
HETATM   17  C   UNL     1      41.752 -16.133   6.364  1.00  0.00     0.015 C 
HETATM   18  C   UNL     1      42.544 -15.601   7.566  1.00  0.00     0.012 C 
HETATM   19  C   UNL     1      40.269 -15.790   6.548  1.00  0.00     0.012 C 
ENDBRANCH  16  17
BRANCH  16  20
HETATM   20  C   UNL     1      42.897 -16.851   4.199  1.00  0.00    -0.003 A 
HETATM   21  C   UNL     1      42.430 -17.231   2.924  1.00  0.00     0.042 A 
HETATM   22 CL   UNL     1      41.162 -16.382   2.109  1.00  0.00    -0.084 Cl
HETATM   23  C   UNL     1      42.978 -18.335   2.258  1.00  0.00     0.024 A 
HETATM   24  C   UNL     1      43.992 -19.084   2.850  1.00  0.00     0.002 A 
HETATM   25  C   UNL     1      44.464 -18.732   4.109  1.00  0.00     0.001 A 
HETATM   26  C   UNL     1      43.924 -17.628   4.775  1.00  0.00     0.011 A 
ENDBRANCH  16  20
ENDBRANCH  14  16
ENDBRANCH   1  14
TORSDOF 6
ENDMDL
MODEL 3
REMARK VINA RESULT:      -7.5      3.120      4.310
REMARK  6 active torsions:
REMARK  status: ('A' for Active; 'I' for Inactive)
REMARK    1  A    between atoms: C_8  and  N_9 
REMARK       I    between atoms: N_9  and  C_10 
REMARK    2  A    between atoms: C_10  and  C_11 
REMARK    3  A    between atoms: C_11  and  N_12 
REMARK    4  A    between atoms: N_12  and  C_13 
REMARK    5  A    between atoms: C_13  and  C_14 
REMARK    6  A    between atoms: C_13  and  C_17 
ROOT
HETATM    1  C   UNL     1      41.198 -15.492   5.105  1.00  0.00     0.372 C 
ENDROOT
BRANCH   1   2
HETATM    2  C   UNL     1      41.138 -14.015   4.701  1.00  0.00     0.250 C 
HETATM    3  N   UNL     1      39.861 -13.634   4.345  1.00  0.00    -0.322 N 
HETATM    4  H   UNL     1      39.194 -14.395   4.266  1.00  0.00     0.169 HD
HETATM    5  O   UNL     1      42.139 -13.308   4.757  1.00  0.00    -0.271 OA
BRANCH   3   6
HETATM    6  C   UNL     1      39.406 -12.363   4.045  1.00  0.00     0.085 A 
HETATM    7  C   UNL     1      39.199 -11.418   5.034  1.00  0.00     0.052 A 
HETATM    8  C   UNL     1      39.373 -11.452   6.505  1.00  0.00     0.072 C 
HETATM    9  N   UNL     1      38.766 -10.294   4.392  1.00  0.00    -0.280 N 
HETATM   10  H   UNL     1      38.517  -9.397   4.797  1.00  0.00     0.189 HD
HETATM   11  N   UNL     1      38.680 -10.426   3.068  1.00  0.00    -0.177 NA
HETATM   12  C   UNL     1      39.075 -11.688   2.832  1.00  0.00     0.079 A 
HETATM   13  C   UNL     1      39.105 -12.155   1.424  1.00  0.00     0.075 C 
ENDBRANCH   3   6
ENDBRANCH   1   2
BRANCH   1  14
HETATM   14  N   UNL     1      41.177 -16.346   3.901  1.00  0.00     0.101 N 
HETATM   15  H   UNL     1      40.519 -15.938   3.236  1.00  0.00     0.317 HD
BRANCH  14  16
HETATM   16  C   UNL     1      42.516 -16.445   3.273  1.00  0.00     0.259 C 
BRANCH  16  17
HETATM   17  C   UNL     1      42.608 -15.821   1.842  1.00  0.00     0.015 C 
HETATM   18  C   UNL     1      41.269 -15.361   1.251  1.00  0.00     0.012 C 
HETATM   19  C   UNL     1      43.607 -14.660   1.786  1.00  0.00     0.012 C 
ENDBRANCH  16  17
BRANCH  16  20
HETATM   20  C   UNL     1      43.013 -17.894   3.275  1.00  0.00    -0.003 A 
HETATM   21  C   UNL     1      43.768 -18.423   4.341  1.00  0.00     0.042 A 
HETATM   22 CL   UNL     1      44.165 -17.495   5.747  1.00  0.00    -0.084 Cl
HETATM   23  C   UNL     1      44.243 -19.740   4.301  1.00  0.00     0.024 A 
HETATM   24  C   UNL     1      43.983 -20.550   3.198  1.00  0.00     0.002 A 
HETATM   25  C   UNL     1      43.246 -20.048   2.133  1.00  0.00     0.001 A 
HETATM   26  C   UNL     1      42.765 -18.737   2.171  1.00  0.00     0.011 A 
ENDBRANCH  16  20
ENDBRANCH  14  16
ENDBRANCH   1  14
TORSDOF 6
ENDMDL
MODEL 4
REMARK VINA RESULT:      -7.5      1.068      2.199
REMARK  6 active torsions:
REMARK  status: ('A' for Active; 'I' for Inactive)
REMARK    1  A    between atoms: C_8  and  N_9 
REMARK       I    between atoms: N_9  and  C_10 
REMARK    2  A    between atoms: C_10  and  C_11 
REMARK    3  A    between atoms: C_11  and  N_12 
REMARK    4  A    between atoms: N_12  and  C_13 
REMARK    5  A    between atoms: C_13  and  C_14 
REMARK    6  A    between atoms: C_13  and  C_17 
ROOT
HETATM    1  C   UNL     1      39.902 -15.591   2.191  1.00  0.00     0.372 C 
ENDROOT
BRANCH   1   2
HETATM    2  C   UNL     1      39.802 -14.307   1.359  1.00  0.00     0.250 C 
HETATM    3  N   UNL     1      40.163 -14.522   0.045  1.00  0.00    -0.322 N 
HETATM    4  H   UNL     1      40.567 -15.433  -0.145  1.00  0.00     0.169 HD
HETATM    5  O   UNL     1      39.398 -13.264   1.861  1.00  0.00    -0.271 OA
BRANCH   3   6
HETATM    6  C   UNL     1      40.081 -13.635  -1.014  1.00  0.00     0.085 A 
HETATM    7  C   UNL     1      39.452 -13.980  -2.197  1.00  0.00     0.052 A 
HETATM    8  C   UNL     1      38.767 -15.214  -2.645  1.00  0.00     0.072 C 
HETATM    9  N   UNL     1      39.548 -12.883  -3.004  1.00  0.00    -0.280 N 
HETATM   10  H   UNL     1      39.198 -12.768  -3.950  1.00  0.00     0.189 HD
HETATM   11  N   UNL     1      40.181 -11.852  -2.443  1.00  0.00    -0.177 NA
HETATM   12  C   UNL     1      40.511 -12.290  -1.218  1.00  0.00     0.079 A 
HETATM   13  C   UNL     1      41.231 -11.356  -0.316  1.00  0.00     0.075 C 
ENDBRANCH   3   6
ENDBRANCH   1   2
BRANCH   1  14
HETATM   14  N   UNL     1      41.259 -16.161   2.079  1.00  0.00     0.101 N 
HETATM   15  H   UNL     1      41.735 -15.693   1.307  1.00  0.00     0.317 HD
BRANCH  14  16
HETATM   16  C   UNL     1      42.038 -15.976   3.325  1.00  0.00     0.259 C 
BRANCH  16  17
HETATM   17  C   UNL     1      42.986 -14.732   3.319  1.00  0.00     0.015 C 
HETATM   18  C   UNL     1      43.449 -14.281   1.927  1.00  0.00     0.012 C 
HETATM   19  C   UNL     1      42.368 -13.537   4.054  1.00  0.00     0.012 C 
ENDBRANCH  16  17
BRANCH  16  20
HETATM   20  C   UNL     1      42.807 -17.252   3.681  1.00  0.00    -0.003 A 
HETATM   21  C   UNL     1      43.172 -17.559   5.007  1.00  0.00     0.042 A 
HETATM   22 CL   UNL     1      42.752 -16.543   6.344  1.00  0.00    -0.084 Cl
HETATM   23  C   UNL     1      43.909 -18.713   5.301  1.00  0.00     0.024 A 
HETATM   24  C   UNL     1      44.302 -19.577   4.283  1.00  0.00     0.002 A 
HETATM   25  C   UNL     1      43.959 -19.292   2.967  1.00  0.00     0.001 A 
HETATM   26  C   UNL     1      43.220 -18.144   2.669  1.00  0.00     0.011 A 
ENDBRANCH  16  20
ENDBRANCH  14  16
ENDBRANCH   1  14
TORSDOF 6
ENDMDL
MODEL 5
REMARK VINA RESULT:      -7.4      3.641      5.819
REMARK  6 active torsions:
REMARK  status: ('A' for Active; 'I' for Inactive)
REMARK    1  A    between atoms: C_8  and  N_9 
REMARK       I    between atoms: N_9  and  C_10 
REMARK    2  A    between atoms: C_10  and  C_11 
REMARK    3  A    between atoms: C_11  and  N_12 
REMARK    4  A    between atoms: N_12  and  C_13 
REMARK    5  A    between atoms: C_13  and  C_14 
REMARK    6  A    between atoms: C_13  and  C_17 
ROOT
HETATM    1  C   UNL     1      43.314 -14.142   2.389  1.00  0.00     0.372 C 
ENDROOT
BRANCH   1   2
HETATM    2  C   UNL     1      43.040 -12.857   3.179  1.00  0.00     0.250 C 
HETATM    3  N   UNL     1      43.094 -13.075   4.540  1.00  0.00    -0.322 N 
HETATM    4  H   UNL     1      43.162 -14.049   4.816  1.00  0.00     0.169 HD
HETATM    5  O   UNL     1      42.849 -11.794   2.600  1.00  0.00    -0.271 OA
BRANCH   3   6
HETATM    6  C   UNL     1      43.020 -12.136   5.553  1.00  0.00     0.085 A 
HETATM    7  C   UNL     1      41.804 -11.734   6.078  1.00  0.00     0.052 A 
HETATM    8  C   UNL     1      40.406 -12.120   5.777  1.00  0.00     0.072 C 
HETATM    9  N   UNL     1      42.099 -10.821   7.049  1.00  0.00    -0.280 N 
HETATM   10  H   UNL     1      41.457 -10.314   7.649  1.00  0.00     0.189 HD
HETATM   11  N   UNL     1      43.405 -10.599   7.204  1.00  0.00    -0.177 NA
HETATM   12  C   UNL     1      43.990 -11.401   6.299  1.00  0.00     0.079 A 
HETATM   13  C   UNL     1      45.472 -11.400   6.224  1.00  0.00     0.075 C 
ENDBRANCH   3   6
ENDBRANCH   1   2
BRANCH   1  14
HETATM   14  N   UNL     1      43.276 -15.308   3.293  1.00  0.00     0.101 N 
HETATM   15  H   UNL     1      42.947 -14.991   4.206  1.00  0.00     0.317 HD
BRANCH  14  16
HETATM   16  C   UNL     1      42.375 -16.370   2.785  1.00  0.00     0.259 C 
BRANCH  16  17
HETATM   17  C   UNL     1      40.905 -16.277   3.308  1.00  0.00     0.015 C 
HETATM   18  C   UNL     1      40.756 -15.681   4.715  1.00  0.00     0.012 C 
HETATM   19  C   UNL     1      39.998 -15.509   2.340  1.00  0.00     0.012 C 
ENDBRANCH  16  17
BRANCH  16  20
HETATM   20  C   UNL     1      42.967 -17.758   3.047  1.00  0.00    -0.003 A 
HETATM   21  C   UNL     1      43.690 -18.053   4.220  1.00  0.00     0.042 A 
HETATM   22 CL   UNL     1      43.939 -16.886   5.473  1.00  0.00    -0.084 Cl
HETATM   23  C   UNL     1      44.253 -19.320   4.418  1.00  0.00     0.024 A 
HETATM   24  C   UNL     1      44.115 -20.312   3.450  1.00  0.00     0.002 A 
HETATM   25  C   UNL     1      43.411 -20.043   2.283  1.00  0.00     0.001 A 
HETATM   26  C   UNL     1      42.843 -18.782   2.084  1.00  0.00     0.011 A 
ENDBRANCH  16  20
ENDBRANCH  14  16
ENDBRANCH   1  14
TORSDOF 6
ENDMDL
MODEL 6
REMARK VINA RESULT:      -7.4      1.822      3.401
REMARK  6 active torsions:
REMARK  status: ('A' for Active; 'I' for Inactive)
REMARK    1  A    between atoms: C_8  and  N_9 
REMARK       I    between atoms: N_9  and  C_10 
REMARK    2  A    between atoms: C_10  and  C_11 
REMARK    3  A    between atoms: C_11  and  N_12 
REMARK    4  A    between atoms: N_12  and  C_13 
REMARK    5  A    between atoms: C_13  and  C_14 
REMARK    6  A    between atoms: C_13  and  C_17 
ROOT
HETATM    1  C   UNL     1      42.262 -15.980   1.445  1.00  0.00     0.372 C 
ENDROOT
BRANCH   1   2
HETATM    2  C   UNL     1      40.865 -15.391   1.218  1.00  0.00     0.250 C 
HETATM    3  N   UNL     1      40.886 -14.376   0.283  1.00  0.00    -0.322 N 
HETATM    4  H   UNL     1      41.812 -14.078  -0.005  1.00  0.00     0.169 HD
HETATM    5  O   UNL     1      39.889 -15.849   1.801  1.00  0.00    -0.271 OA
BRANCH   3   6
HETATM    6  C   UNL     1      39.807 -13.701  -0.261  1.00  0.00     0.085 A 
HETATM    7  C   UNL     1      39.225 -12.628   0.390  1.00  0.00     0.052 A 
HETATM    8  C   UNL     1      39.519 -11.956   1.676  1.00  0.00     0.072 C 
HETATM    9  N   UNL     1      38.212 -12.205  -0.421  1.00  0.00    -0.280 N 
HETATM   10  H   UNL     1      37.566 -11.437  -0.270  1.00  0.00     0.189 HD
HETATM   11  N   UNL     1      38.091 -12.908  -1.549  1.00  0.00    -0.177 NA
HETATM   12  C   UNL     1      39.066 -13.829  -1.473  1.00  0.00     0.079 A 
HETATM   13  C   UNL     1      39.212 -14.780  -2.603  1.00  0.00     0.075 C 
ENDBRANCH   3   6
ENDBRANCH   1   2
BRANCH   1  14
HETATM   14  N   UNL     1      42.221 -16.971   2.539  1.00  0.00     0.101 N 
HETATM   15  H   UNL     1      42.672 -17.825   2.208  1.00  0.00     0.317 HD
BRANCH  14  16
HETATM   16  C   UNL     1      42.917 -16.481   3.752  1.00  0.00     0.259 C 
BRANCH  16  17
HETATM   17  C   UNL     1      43.642 -17.595   4.576  1.00  0.00     0.015 C 
HETATM   18  C   UNL     1      44.341 -18.670   3.733  1.00  0.00     0.012 C 
HETATM   19  C   UNL     1      44.647 -17.007   5.573  1.00  0.00     0.012 C 
ENDBRANCH  16  17
BRANCH  16  20
HETATM   20  C   UNL     1      41.964 -15.673   4.638  1.00  0.00    -0.003 A 
HETATM   21  C   UNL     1      41.990 -14.264   4.672  1.00  0.00     0.042 A 
HETATM   22 CL   UNL     1      43.071 -13.333   3.694  1.00  0.00    -0.084 Cl
HETATM   23  C   UNL     1      41.135 -13.550   5.520  1.00  0.00     0.024 A 
HETATM   24  C   UNL     1      40.244 -14.223   6.354  1.00  0.00     0.002 A 
HETATM   25  C   UNL     1      40.205 -15.612   6.341  1.00  0.00     0.001 A 
HETATM   26  C   UNL     1      41.053 -16.328   5.493  1.00  0.00     0.011 A 
ENDBRANCH  16  20
ENDBRANCH  14  16
ENDBRANCH   1  14
TORSDOF 6
ENDMDL
MODEL 7
REMARK VINA RESULT:      -7.3      2.016      2.669
REMARK  6 active torsions:
REMARK  status: ('A' for Active; 'I' for Inactive)
REMARK    1  A    between atoms: C_8  and  N_9 
REMARK       I    between atoms: N_9  and  C_10 
REMARK    2  A    between atoms: C_10  and  C_11 
REMARK    3  A    between atoms: C_11  and  N_12 
REMARK    4  A    between atoms: N_12  and  C_13 
REMARK    5  A    between atoms: C_13  and  C_14 
REMARK    6  A    between atoms: C_13  and  C_17 
ROOT
HETATM    1  C   UNL     1      41.907 -13.361   4.136  1.00  0.00     0.372 C 
ENDROOT
BRANCH   1   2
HETATM    2  C   UNL     1      42.054 -13.288   2.612  1.00  0.00     0.250 C 
HETATM    3  N   UNL     1      40.920 -12.777   2.014  1.00  0.00    -0.322 N 
HETATM    4  H   UNL     1      40.125 -12.661   2.633  1.00  0.00     0.169 HD
HETATM    5  O   UNL     1      43.100 -13.621   2.066  1.00  0.00    -0.271 OA
BRANCH   3   6
HETATM    6  C   UNL     1      40.734 -12.456   0.681  1.00  0.00     0.085 A 
HETATM    7  C   UNL     1      41.048 -11.201   0.191  1.00  0.00     0.052 A 
HETATM    8  C   UNL     1      41.600  -9.984   0.831  1.00  0.00     0.072 C 
HETATM    9  N   UNL     1      40.752 -11.236  -1.141  1.00  0.00    -0.280 N 
HETATM   10  H   UNL     1      40.855 -10.494  -1.826  1.00  0.00     0.189 HD
HETATM   11  N   UNL     1      40.280 -12.410  -1.561  1.00  0.00    -0.177 NA
HETATM   12  C   UNL     1      40.266 -13.177  -0.458  1.00  0.00     0.079 A 
HETATM   13  C   UNL     1      39.794 -14.578  -0.591  1.00  0.00     0.075 C 
ENDBRANCH   3   6
ENDBRANCH   1   2
BRANCH   1  14
HETATM   14  N   UNL     1      42.767 -14.432   4.676  1.00  0.00     0.101 N 
HETATM   15  H   UNL     1      43.124 -14.125   5.581  1.00  0.00     0.317 HD
BRANCH  14  16
HETATM   16  C   UNL     1      42.023 -15.703   4.843  1.00  0.00     0.259 C 
BRANCH  16  17
HETATM   17  C   UNL     1      41.686 -16.065   6.327  1.00  0.00     0.015 C 
HETATM   18  C   UNL     1      42.538 -15.341   7.378  1.00  0.00     0.012 C 
HETATM   19  C   UNL     1      40.202 -15.849   6.647  1.00  0.00     0.012 C 
ENDBRANCH  16  17
BRANCH  16  20
HETATM   20  C   UNL     1      42.751 -16.856   4.147  1.00  0.00    -0.003 A 
HETATM   21  C   UNL     1      42.377 -17.312   2.867  1.00  0.00     0.042 A 
HETATM   22 CL   UNL     1      41.091 -16.586   1.964  1.00  0.00    -0.084 Cl
HETATM   23  C   UNL     1      43.034 -18.394   2.268  1.00  0.00     0.024 A 
HETATM   24  C   UNL     1      44.069 -19.046   2.934  1.00  0.00     0.002 A 
HETATM   25  C   UNL     1      44.452 -18.619   4.199  1.00  0.00     0.001 A 
HETATM   26  C   UNL     1      43.802 -17.536   4.798  1.00  0.00     0.011 A 
ENDBRANCH  16  20
ENDBRANCH  14  16
ENDBRANCH   1  14
TORSDOF 6
ENDMDL
MODEL 8
REMARK VINA RESULT:      -7.3      2.176      3.444
REMARK  6 active torsions:
REMARK  status: ('A' for Active; 'I' for Inactive)
REMARK    1  A    between atoms: C_8  and  N_9 
REMARK       I    between atoms: N_9  and  C_10 
REMARK    2  A    between atoms: C_10  and  C_11 
REMARK    3  A    between atoms: C_11  and  N_12 
REMARK    4  A    between atoms: N_12  and  C_13 
REMARK    5  A    between atoms: C_13  and  C_14 
REMARK    6  A    between atoms: C_13  and  C_17 
ROOT
HETATM    1  C   UNL     1      42.842 -13.856   4.623  1.00  0.00     0.372 C 
ENDROOT
BRANCH   1   2
HETATM    2  C   UNL     1      42.647 -13.742   3.107  1.00  0.00     0.250 C 
HETATM    3  N   UNL     1      41.315 -13.817   2.757  1.00  0.00    -0.322 N 
HETATM    4  H   UNL     1      40.687 -14.071   3.513  1.00  0.00     0.169 HD
HETATM    5  O   UNL     1      43.605 -13.564   2.363  1.00  0.00    -0.271 OA
BRANCH   3   6
HETATM    6  C   UNL     1      40.754 -13.632   1.506  1.00  0.00     0.085 A 
HETATM    7  C   UNL     1      40.077 -14.652   0.861  1.00  0.00     0.052 A 
HETATM    8  C   UNL     1      39.777 -16.052   1.240  1.00  0.00     0.072 C 
HETATM    9  N   UNL     1      39.655 -14.128  -0.327  1.00  0.00    -0.280 N 
HETATM   10  H   UNL     1      39.125 -14.585  -1.061  1.00  0.00     0.189 HD
HETATM   11  N   UNL     1      39.994 -12.850  -0.506  1.00  0.00    -0.177 NA
HETATM   12  C   UNL     1      40.665 -12.524   0.611  1.00  0.00     0.079 A 
HETATM   13  C   UNL     1      41.178 -11.137   0.734  1.00  0.00     0.075 C 
ENDBRANCH   3   6
ENDBRANCH   1   2
BRANCH   1  14
HETATM   14  N   UNL     1      43.498 -15.136   4.953  1.00  0.00     0.101 N 
HETATM   15  H   UNL     1      44.014 -15.012   5.825  1.00  0.00     0.317 HD
BRANCH  14  16
HETATM   16  C   UNL     1      42.515 -16.234   5.112  1.00  0.00     0.259 C 
BRANCH  16  17
HETATM   17  C   UNL     1      41.813 -16.278   6.508  1.00  0.00     0.015 C 
HETATM   18  C   UNL     1      42.584 -15.585   7.640  1.00  0.00     0.012 C 
HETATM   19  C   UNL     1      40.389 -15.713   6.452  1.00  0.00     0.012 C 
ENDBRANCH  16  17
BRANCH  16  20
HETATM   20  C   UNL     1      43.149 -17.586   4.771  1.00  0.00    -0.003 A 
HETATM   21  C   UNL     1      43.411 -17.975   3.442  1.00  0.00     0.042 A 
HETATM   22 CL   UNL     1      43.075 -16.947   2.092  1.00  0.00    -0.084 Cl
HETATM   23  C   UNL     1      43.955 -19.233   3.155  1.00  0.00     0.024 A 
HETATM   24  C   UNL     1      44.241 -20.129   4.183  1.00  0.00     0.002 A 
HETATM   25  C   UNL     1      43.985 -19.770   5.501  1.00  0.00     0.001 A 
HETATM   26  C   UNL     1      43.446 -18.514   5.792  1.00  0.00     0.011 A 
ENDBRANCH  16  20
ENDBRANCH  14  16
ENDBRANCH   1  14
TORSDOF 6
ENDMDL
MODEL 9
REMARK VINA RESULT:      -7.0      4.522      7.517
REMARK  6 active torsions:
REMARK  status: ('A' for Active; 'I' for Inactive)
REMARK    1  A    between atoms: C_8  and  N_9 
REMARK       I    between atoms: N_9  and  C_10 
REMARK    2  A    between atoms: C_10  and  C_11 
REMARK    3  A    between atoms: C_11  and  N_12 
REMARK    4  A    between atoms: N_12  and  C_13 
REMARK    5  A    between atoms: C_13  and  C_14 
REMARK    6  A    between atoms: C_13  and  C_17 
ROOT
HETATM    1  C   UNL     1      41.919 -13.233   5.951  1.00  0.00     0.372 C 
ENDROOT
BRANCH   1   2
HETATM    2  C   UNL     1      42.639 -11.928   6.308  1.00  0.00     0.250 C 
HETATM    3  N   UNL     1      43.479 -12.089   7.391  1.00  0.00    -0.322 N 
HETATM    4  H   UNL     1      43.395 -12.980   7.870  1.00  0.00     0.169 HD
HETATM    5  O   UNL     1      42.472 -10.915   5.638  1.00  0.00    -0.271 OA
BRANCH   3   6
HETATM    6  C   UNL     1      44.372 -11.172   7.917  1.00  0.00     0.085 A 
HETATM    7  C   UNL     1      45.554 -10.863   7.268  1.00  0.00     0.052 A 
HETATM    8  C   UNL     1      46.154 -11.334   5.999  1.00  0.00     0.072 C 
HETATM    9  N   UNL     1      46.176  -9.933   8.050  1.00  0.00    -0.280 N 
HETATM   10  H   UNL     1      47.067  -9.473   7.889  1.00  0.00     0.189 HD
HETATM   11  N   UNL     1      45.495  -9.606   9.149  1.00  0.00    -0.177 NA
HETATM   12  C   UNL     1      44.380 -10.352   9.084  1.00  0.00     0.079 A 
HETATM   13  C   UNL     1      43.385 -10.210  10.177  1.00  0.00     0.075 C 
ENDBRANCH   3   6
ENDBRANCH   1   2
BRANCH   1  14
HETATM   14  N   UNL     1      42.901 -14.252   5.532  1.00  0.00     0.101 N 
HETATM   15  H   UNL     1      43.085 -14.861   6.330  1.00  0.00     0.317 HD
BRANCH  14  16
HETATM   16  C   UNL     1      42.402 -15.063   4.396  1.00  0.00     0.259 C 
BRANCH  16  17
HETATM   17  C   UNL     1      40.844 -15.170   4.312  1.00  0.00     0.015 C 
HETATM   18  C   UNL     1      40.276 -15.217   2.887  1.00  0.00     0.012 C 
HETATM   19  C   UNL     1      40.307 -16.366   5.106  1.00  0.00     0.012 C 
ENDBRANCH  16  17
BRANCH  16  20
HETATM   20  C   UNL     1      43.049 -16.451   4.391  1.00  0.00    -0.003 A 
HETATM   21  C   UNL     1      43.418 -17.099   3.196  1.00  0.00     0.042 A 
HETATM   22 CL   UNL     1      43.204 -16.369   1.641  1.00  0.00    -0.084 Cl
HETATM   23  C   UNL     1      43.974 -18.385   3.216  1.00  0.00     0.024 A 
HETATM   24  C   UNL     1      44.165 -19.051   4.425  1.00  0.00     0.002 A 
HETATM   25  C   UNL     1      43.803 -18.435   5.616  1.00  0.00     0.001 A 
HETATM   26  C   UNL     1      43.253 -17.150   5.600  1.00  0.00     0.011 A 
ENDBRANCH  16  20
ENDBRANCH  14  16
ENDBRANCH   1  14
TORSDOF 6
ENDMDL
MODEL 10
REMARK VINA RESULT:      -7.0      3.502      5.167
REMARK  6 active torsions:
REMARK  status: ('A' for Active; 'I' for Inactive)
REMARK    1  A    between atoms: C_8  and  N_9 
REMARK       I    between atoms: N_9  and  C_10 
REMARK    2  A    between atoms: C_10  and  C_11 
REMARK    3  A    between atoms: C_11  and  N_12 
REMARK    4  A    between atoms: N_12  and  C_13 
REMARK    5  A    between atoms: C_13  and  C_14 
REMARK    6  A    between atoms: C_13  and  C_17 
ROOT
HETATM    1  C   UNL     1      43.468 -15.236   1.836  1.00  0.00     0.372 C 
ENDROOT
BRANCH   1   2
HETATM    2  C   UNL     1      42.590 -14.055   2.263  1.00  0.00     0.250 C 
HETATM    3  N   UNL     1      43.252 -13.216   3.136  1.00  0.00    -0.322 N 
HETATM    4  H   UNL     1      44.144 -13.565   3.472  1.00  0.00     0.169 HD
HETATM    5  O   UNL     1      41.461 -13.915   1.806  1.00  0.00    -0.271 OA
BRANCH   3   6
HETATM    6  C   UNL     1      42.824 -11.998   3.632  1.00  0.00     0.085 A 
HETATM    7  C   UNL     1      42.961 -11.675   4.971  1.00  0.00     0.052 A 
HETATM    8  C   UNL     1      43.523 -12.411   6.127  1.00  0.00     0.072 C 
HETATM    9  N   UNL     1      42.451 -10.416   5.105  1.00  0.00    -0.280 N 
HETATM   10  H   UNL     1      42.384  -9.853   5.947  1.00  0.00     0.189 HD
HETATM   11  N   UNL     1      42.001  -9.889   3.965  1.00  0.00    -0.177 NA
HETATM   12  C   UNL     1      42.226 -10.842   3.046  1.00  0.00     0.079 A 
HETATM   13  C   UNL     1      41.840 -10.558   1.642  1.00  0.00     0.075 C 
ENDBRANCH   3   6
ENDBRANCH   1   2
BRANCH   1  14
HETATM   14  N   UNL     1      42.812 -16.509   2.195  1.00  0.00     0.101 N 
HETATM   15  H   UNL     1      42.993 -17.180   1.447  1.00  0.00     0.317 HD
BRANCH  14  16
HETATM   16  C   UNL     1      43.321 -17.049   3.477  1.00  0.00     0.259 C 
BRANCH  16  17
HETATM   17  C   UNL     1      43.474 -18.605   3.510  1.00  0.00     0.015 C 
HETATM   18  C   UNL     1      43.306 -19.299   2.152  1.00  0.00     0.012 C 
HETATM   19  C   UNL     1      44.806 -19.037   4.133  1.00  0.00     0.012 C 
ENDBRANCH  16  17
BRANCH  16  20
HETATM   20  C   UNL     1      42.472 -16.554   4.652  1.00  0.00    -0.003 A 
HETATM   21  C   UNL     1      43.040 -16.236   5.902  1.00  0.00     0.042 A 
HETATM   22 CL   UNL     1      44.741 -16.343   6.203  1.00  0.00    -0.084 Cl
HETATM   23  C   UNL     1      42.237 -15.823   6.973  1.00  0.00     0.024 A 
HETATM   24  C   UNL     1      40.855 -15.726   6.821  1.00  0.00     0.002 A 
HETATM   25  C   UNL     1      40.272 -16.040   5.600  1.00  0.00     0.001 A 
HETATM   26  C   UNL     1      41.071 -16.448   4.528  1.00  0.00     0.011 A 
ENDBRANCH  16  20
ENDBRANCH  14  16
ENDBRANCH   1  14
TORSDOF 6
ENDMDL
