MODEL 1
REMARK VINA RESULT:      -8.3      0.000      0.000
REMARK  7 active torsions:
REMARK  status: ('A' for Active; 'I' for Inactive)
REMARK    1  A    between atoms: O_2  and  C_3 
REMARK    2  A    between atoms: C_4  and  N_5 
REMARK       I    between atoms: N_5  and  C_6 
REMARK    3  A    between atoms: C_6  and  C_7 
REMARK    4  A    between atoms: C_14  and  N_15 
REMARK       I    between atoms: N_15  and  C_16 
REMARK    5  A    between atoms: C_16  and  C_17 
REMARK    6  A    between atoms: C_17  and  C_18 
REMARK    7  A    between atoms: C_18  and  C_19 
ROOT
HETATM    1  C   UNL     1      42.458 -10.870   6.399  1.00  0.00     0.095 A 
HETATM    2  C   UNL     1      43.757 -11.386   6.480  1.00  0.00     0.070 A 
HETATM    3  C   UNL     1      43.933 -12.777   6.355  1.00  0.00     0.062 A 
HETATM    4  C   UNL     1      42.854 -13.629   6.097  1.00  0.00     0.037 A 
HETATM    5  C   UNL     1      41.578 -13.079   5.945  1.00  0.00     0.032 A 
HETATM    6  C   UNL     1      41.383 -11.706   6.088  1.00  0.00     0.041 A 
ENDROOT
BRANCH   4   7
HETATM    7  N   UNL     1      42.959 -15.033   6.008  1.00  0.00    -0.327 N 
HETATM    8  C   UNL     1      43.018 -15.947   7.048  1.00  0.00     0.222 C 
HETATM    9  O   UNL     1      43.063 -15.685   8.245  1.00  0.00    -0.273 OA
HETATM   10  H   UNL     1      43.009 -15.408   5.069  1.00  0.00     0.169 HD
BRANCH   8  11
HETATM   11  C   UNL     1      42.974 -17.386   6.566  1.00  0.00     0.108 C 
BRANCH  11  12
HETATM   12  C   UNL     1      44.182 -17.745   5.694  1.00  0.00     0.047 C 
BRANCH  12  13
HETATM   13  C   UNL     1      43.856 -18.590   4.483  1.00  0.00    -0.058 A 
HETATM   14  C   UNL     1      44.081 -19.973   4.520  1.00  0.00     0.007 A 
HETATM   15  C   UNL     1      43.841 -20.766   3.394  1.00  0.00     0.001 A 
HETATM   16  C   UNL     1      43.379 -20.186   2.216  1.00  0.00     0.000 A 
HETATM   17  C   UNL     1      43.162 -18.811   2.159  1.00  0.00     0.001 A 
HETATM   18  C   UNL     1      43.410 -18.017   3.282  1.00  0.00     0.007 A 
ENDBRANCH  12  13
ENDBRANCH  11  12
ENDBRANCH   8  11
ENDBRANCH   4   7
BRANCH   2  19
HETATM   19  N   UNL     1      44.920 -10.648   6.780  1.00  0.00    -0.319 N 
HETATM   20  C   UNL     1      45.530 -10.307   7.969  1.00  0.00     0.280 C 
HETATM   21  O   UNL     1      46.751 -10.129   7.921  1.00  0.00    -0.265 OA
HETATM   22  H   UNL     1      45.513 -10.415   5.992  1.00  0.00     0.169 HD
BRANCH  20  23
HETATM   23  C   UNL     1      44.751 -10.038   9.161  1.00  0.00     0.142 A 
HETATM   24  O   UNL     1      44.251 -11.117   9.849  1.00  0.00    -0.317 OA
HETATM   25  C   UNL     1      43.597 -10.644  10.937  1.00  0.00     0.143 A 
HETATM   26  C   UNL     1      43.673  -9.273  10.987  1.00  0.00     0.027 A 
HETATM   27  C   UNL     1      44.428  -8.882   9.853  1.00  0.00     0.045 A 
ENDBRANCH  20  23
ENDBRANCH   2  19
BRANCH   1  28
HETATM   28  O   UNL     1      42.150  -9.561   6.645  1.00  0.00    -0.354 OA
HETATM   29  C   UNL     1      41.142  -9.461   7.655  1.00  0.00     0.210 C 
ENDBRANCH   1  28
TORSDOF 7
ENDMDL
MODEL 2
REMARK VINA RESULT:      -8.0      5.947      8.248
REMARK  7 active torsions:
REMARK  status: ('A' for Active; 'I' for Inactive)
REMARK    1  A    between atoms: O_2  and  C_3 
REMARK    2  A    between atoms: C_4  and  N_5 
REMARK       I    between atoms: N_5  and  C_6 
REMARK    3  A    between atoms: C_6  and  C_7 
REMARK    4  A    between atoms: C_14  and  N_15 
REMARK       I    between atoms: N_15  and  C_16 
REMARK    5  A    between atoms: C_16  and  C_17 
REMARK    6  A    between atoms: C_17  and  C_18 
REMARK    7  A    between atoms: C_18  and  C_19 
ROOT
HETATM    1  C   UNL     1      39.728 -11.682   0.757  1.00  0.00     0.095 A 
HETATM    2  C   UNL     1      40.614 -12.595   0.172  1.00  0.00     0.070 A 
HETATM    3  C   UNL     1      41.065 -13.679   0.948  1.00  0.00     0.062 A 
HETATM    4  C   UNL     1      40.604 -13.886   2.252  1.00  0.00     0.037 A 
HETATM    5  C   UNL     1      39.662 -13.001   2.785  1.00  0.00     0.032 A 
HETATM    6  C   UNL     1      39.221 -11.909   2.038  1.00  0.00     0.041 A 
ENDROOT
BRANCH   4   7
HETATM    7  N   UNL     1      41.053 -14.924   3.095  1.00  0.00    -0.327 N 
HETATM    8  C   UNL     1      42.163 -14.924   3.924  1.00  0.00     0.222 C 
HETATM    9  O   UNL     1      43.003 -14.034   4.016  1.00  0.00    -0.273 OA
HETATM   10  H   UNL     1      40.499 -15.771   3.077  1.00  0.00     0.169 HD
BRANCH   8  11
HETATM   11  C   UNL     1      42.244 -16.164   4.796  1.00  0.00     0.108 C 
BRANCH  11  12
HETATM   12  C   UNL     1      43.633 -16.809   4.764  1.00  0.00     0.047 C 
BRANCH  12  13
HETATM   13  C   UNL     1      43.691 -18.147   4.060  1.00  0.00    -0.058 A 
HETATM   14  C   UNL     1      43.229 -18.259   2.741  1.00  0.00     0.007 A 
HETATM   15  C   UNL     1      43.219 -19.496   2.090  1.00  0.00     0.001 A 
HETATM   16  C   UNL     1      43.665 -20.637   2.752  1.00  0.00     0.000 A 
HETATM   17  C   UNL     1      44.115 -20.545   4.066  1.00  0.00     0.001 A 
HETATM   18  C   UNL     1      44.117 -19.310   4.721  1.00  0.00     0.007 A 
ENDBRANCH  12  13
ENDBRANCH  11  12
ENDBRANCH   8  11
ENDBRANCH   4   7
BRANCH   2  19
HETATM   19  N   UNL     1      41.189 -12.481  -1.110  1.00  0.00    -0.319 N 
HETATM   20  C   UNL     1      40.644 -12.362  -2.371  1.00  0.00     0.280 C 
HETATM   21  O   UNL     1      41.335 -11.772  -3.207  1.00  0.00    -0.265 OA
HETATM   22  H   UNL     1      42.190 -12.329  -1.135  1.00  0.00     0.169 HD
BRANCH  20  23
HETATM   23  C   UNL     1      39.399 -13.019  -2.715  1.00  0.00     0.142 A 
HETATM   24  O   UNL     1      39.477 -14.208  -3.398  1.00  0.00    -0.317 OA
HETATM   25  C   UNL     1      38.213 -14.662  -3.580  1.00  0.00     0.143 A 
HETATM   26  C   UNL     1      37.306 -13.801  -3.011  1.00  0.00     0.027 A 
HETATM   27  C   UNL     1      38.067 -12.751  -2.442  1.00  0.00     0.045 A 
ENDBRANCH  20  23
ENDBRANCH   2  19
BRANCH   1  28
HETATM   28  O   UNL     1      39.334 -10.520   0.152  1.00  0.00    -0.354 OA
HETATM   29  C   UNL     1      40.137  -9.424   0.597  1.00  0.00     0.210 C 
ENDBRANCH   1  28
TORSDOF 7
ENDMDL
MODEL 3
REMARK VINA RESULT:      -7.8      6.271      8.405
REMARK  7 active torsions:
REMARK  status: ('A' for Active; 'I' for Inactive)
REMARK    1  A    between atoms: O_2  and  C_3 
REMARK    2  A    between atoms: C_4  and  N_5 
REMARK       I    between atoms: N_5  and  C_6 
REMARK    3  A    between atoms: C_6  and  C_7 
REMARK    4  A    between atoms: C_14  and  N_15 
REMARK       I    between atoms: N_15  and  C_16 
REMARK    5  A    between atoms: C_16  and  C_17 
REMARK    6  A    between atoms: C_17  and  C_18 
REMARK    7  A    between atoms: C_18  and  C_19 
ROOT
HETATM    1  C   UNL     1      38.947 -11.991   0.579  1.00  0.00     0.095 A 
HETATM    2  C   UNL     1      39.314 -13.195  -0.034  1.00  0.00     0.070 A 
HETATM    3  C   UNL     1      40.272 -14.005   0.605  1.00  0.00     0.062 A 
HETATM    4  C   UNL     1      40.809 -13.659   1.850  1.00  0.00     0.037 A 
HETATM    5  C   UNL     1      40.368 -12.489   2.474  1.00  0.00     0.032 A 
HETATM    6  C   UNL     1      39.436 -11.663   1.846  1.00  0.00     0.041 A 
ENDROOT
BRANCH   4   7
HETATM    7  N   UNL     1      41.804 -14.403   2.517  1.00  0.00    -0.327 N 
HETATM    8  C   UNL     1      41.708 -15.043   3.741  1.00  0.00     0.222 C 
HETATM    9  O   UNL     1      40.748 -15.014   4.504  1.00  0.00    -0.273 OA
HETATM   10  H   UNL     1      42.697 -14.460   2.042  1.00  0.00     0.169 HD
BRANCH   8  11
HETATM   11  C   UNL     1      42.938 -15.872   4.068  1.00  0.00     0.108 C 
BRANCH  11  12
HETATM   12  C   UNL     1      43.436 -16.675   2.862  1.00  0.00     0.047 C 
BRANCH  12  13
HETATM   13  C   UNL     1      43.623 -18.153   3.123  1.00  0.00    -0.058 A 
HETATM   14  C   UNL     1      43.242 -19.085   2.148  1.00  0.00     0.007 A 
HETATM   15  C   UNL     1      43.354 -20.457   2.390  1.00  0.00     0.001 A 
HETATM   16  C   UNL     1      43.841 -20.915   3.611  1.00  0.00     0.000 A 
HETATM   17  C   UNL     1      44.211 -20.002   4.595  1.00  0.00     0.001 A 
HETATM   18  C   UNL     1      44.093 -18.630   4.357  1.00  0.00     0.007 A 
ENDBRANCH  12  13
ENDBRANCH  11  12
ENDBRANCH   8  11
ENDBRANCH   4   7
BRANCH   2  19
HETATM   19  N   UNL     1      38.886 -13.640  -1.301  1.00  0.00    -0.319 N 
HETATM   20  C   UNL     1      39.288 -13.332  -2.583  1.00  0.00     0.280 C 
HETATM   21  O   UNL     1      39.122 -14.216  -3.430  1.00  0.00    -0.265 OA
HETATM   22  H   UNL     1      38.249 -14.427  -1.303  1.00  0.00     0.169 HD
BRANCH  20  23
HETATM   23  C   UNL     1      39.742 -12.000  -2.928  1.00  0.00     0.142 A 
HETATM   24  O   UNL     1      38.792 -11.083  -3.305  1.00  0.00    -0.317 OA
HETATM   25  C   UNL     1      39.424  -9.908  -3.542  1.00  0.00     0.143 A 
HETATM   26  C   UNL     1      40.772 -10.032  -3.309  1.00  0.00     0.027 A 
HETATM   27  C   UNL     1      40.977 -11.373  -2.900  1.00  0.00     0.045 A 
ENDBRANCH  20  23
ENDBRANCH   2  19
BRANCH   1  28
HETATM   28  O   UNL     1      38.138 -11.060  -0.011  1.00  0.00    -0.354 OA
HETATM   29  C   UNL     1      38.730  -9.761   0.056  1.00  0.00     0.210 C 
ENDBRANCH   1  28
TORSDOF 7
ENDMDL
MODEL 4
REMARK VINA RESULT:      -7.6      4.156      5.937
REMARK  7 active torsions:
REMARK  status: ('A' for Active; 'I' for Inactive)
REMARK    1  A    between atoms: O_2  and  C_3 
REMARK    2  A    between atoms: C_4  and  N_5 
REMARK       I    between atoms: N_5  and  C_6 
REMARK    3  A    between atoms: C_6  and  C_7 
REMARK    4  A    between atoms: C_14  and  N_15 
REMARK       I    between atoms: N_15  and  C_16 
REMARK    5  A    between atoms: C_16  and  C_17 
REMARK    6  A    between atoms: C_17  and  C_18 
REMARK    7  A    between atoms: C_18  and  C_19 
ROOT
HETATM    1  C   UNL     1      40.093 -11.544   4.240  1.00  0.00     0.095 A 
HETATM    2  C   UNL     1      41.287 -11.921   3.614  1.00  0.00     0.070 A 
HETATM    3  C   UNL     1      42.008 -13.005   4.148  1.00  0.00     0.062 A 
HETATM    4  C   UNL     1      41.527 -13.736   5.239  1.00  0.00     0.037 A 
HETATM    5  C   UNL     1      40.294 -13.386   5.798  1.00  0.00     0.032 A 
HETATM    6  C   UNL     1      39.577 -12.300   5.296  1.00  0.00     0.041 A 
ENDROOT
BRANCH   4   7
HETATM    7  N   UNL     1      42.224 -14.801   5.848  1.00  0.00    -0.327 N 
HETATM    8  C   UNL     1      41.962 -16.157   5.742  1.00  0.00     0.222 C 
HETATM    9  O   UNL     1      41.020 -16.672   5.151  1.00  0.00    -0.273 OA
HETATM   10  H   UNL     1      43.000 -14.532   6.441  1.00  0.00     0.169 HD
BRANCH   8  11
HETATM   11  C   UNL     1      43.020 -17.012   6.419  1.00  0.00     0.108 C 
BRANCH  11  12
HETATM   12  C   UNL     1      44.226 -17.272   5.511  1.00  0.00     0.047 C 
BRANCH  12  13
HETATM   13  C   UNL     1      44.043 -18.409   4.529  1.00  0.00    -0.058 A 
HETATM   14  C   UNL     1      43.671 -18.132   3.207  1.00  0.00     0.007 A 
HETATM   15  C   UNL     1      43.440 -19.168   2.298  1.00  0.00     0.001 A 
HETATM   16  C   UNL     1      43.573 -20.494   2.701  1.00  0.00     0.000 A 
HETATM   17  C   UNL     1      43.928 -20.786   4.015  1.00  0.00     0.001 A 
HETATM   18  C   UNL     1      44.151 -19.751   4.927  1.00  0.00     0.007 A 
ENDBRANCH  12  13
ENDBRANCH  11  12
ENDBRANCH   8  11
ENDBRANCH   4   7
BRANCH   2  19
HETATM   19  N   UNL     1      41.904 -11.246   2.541  1.00  0.00    -0.319 N 
HETATM   20  C   UNL     1      41.596 -11.144   1.201  1.00  0.00     0.280 C 
HETATM   21  O   UNL     1      41.975 -10.115   0.634  1.00  0.00    -0.265 OA
HETATM   22  H   UNL     1      42.646 -10.603   2.790  1.00  0.00     0.169 HD
BRANCH  20  23
HETATM   23  C   UNL     1      40.991 -12.249   0.485  1.00  0.00     0.142 A 
HETATM   24  O   UNL     1      40.674 -12.051  -0.837  1.00  0.00    -0.317 OA
HETATM   25  C   UNL     1      40.163 -13.210  -1.316  1.00  0.00     0.143 A 
HETATM   26  C   UNL     1      40.154 -14.174  -0.337  1.00  0.00     0.027 A 
HETATM   27  C   UNL     1      40.700 -13.562   0.819  1.00  0.00     0.045 A 
ENDBRANCH  20  23
ENDBRANCH   2  19
BRANCH   1  28
HETATM   28  O   UNL     1      39.383 -10.425   3.901  1.00  0.00    -0.354 OA
HETATM   29  C   UNL     1      38.733  -9.873   5.048  1.00  0.00     0.210 C 
ENDBRANCH   1  28
TORSDOF 7
ENDMDL
MODEL 5
REMARK VINA RESULT:      -7.6      4.924      8.052
REMARK  7 active torsions:
REMARK  status: ('A' for Active; 'I' for Inactive)
REMARK    1  A    between atoms: O_2  and  C_3 
REMARK    2  A    between atoms: C_4  and  N_5 
REMARK       I    between atoms: N_5  and  C_6 
REMARK    3  A    between atoms: C_6  and  C_7 
REMARK    4  A    between atoms: C_14  and  N_15 
REMARK       I    between atoms: N_15  and  C_16 
REMARK    5  A    between atoms: C_16  and  C_17 
REMARK    6  A    between atoms: C_17  and  C_18 
REMARK    7  A    between atoms: C_18  and  C_19 
ROOT
HETATM    1  C   UNL     1      44.106 -18.797   4.147  1.00  0.00     0.095 A 
HETATM    2  C   UNL     1      43.867 -17.519   4.666  1.00  0.00     0.070 A 
HETATM    3  C   UNL     1      43.304 -16.547   3.818  1.00  0.00     0.062 A 
HETATM    4  C   UNL     1      42.933 -16.851   2.504  1.00  0.00     0.037 A 
HETATM    5  C   UNL     1      43.113 -18.155   2.034  1.00  0.00     0.032 A 
HETATM    6  C   UNL     1      43.689 -19.125   2.854  1.00  0.00     0.041 A 
ENDROOT
BRANCH   4   7
HETATM    7  N   UNL     1      42.410 -15.911   1.592  1.00  0.00    -0.327 N 
HETATM    8  C   UNL     1      41.090 -15.521   1.438  1.00  0.00     0.222 C 
HETATM    9  O   UNL     1      40.120 -15.986   2.028  1.00  0.00    -0.273 OA
HETATM   10  H   UNL     1      43.086 -15.483   0.971  1.00  0.00     0.169 HD
BRANCH   8  11
HETATM   11  C   UNL     1      40.927 -14.374   0.457  1.00  0.00     0.108 C 
BRANCH  11  12
HETATM   12  C   UNL     1      39.722 -14.566  -0.469  1.00  0.00     0.047 C 
BRANCH  12  13
HETATM   13  C   UNL     1      39.460 -13.411  -1.410  1.00  0.00    -0.058 A 
HETATM   14  C   UNL     1      40.530 -12.630  -1.867  1.00  0.00     0.007 A 
HETATM   15  C   UNL     1      40.306 -11.523  -2.691  1.00  0.00     0.001 A 
HETATM   16  C   UNL     1      39.009 -11.180  -3.063  1.00  0.00     0.000 A 
HETATM   17  C   UNL     1      37.934 -11.938  -2.606  1.00  0.00     0.001 A 
HETATM   18  C   UNL     1      38.156 -13.039  -1.775  1.00  0.00     0.007 A 
ENDBRANCH  12  13
ENDBRANCH  11  12
ENDBRANCH   8  11
ENDBRANCH   4   7
BRANCH   2  19
HETATM   19  N   UNL     1      44.232 -17.070   5.951  1.00  0.00    -0.319 N 
HETATM   20  C   UNL     1      43.505 -16.558   7.004  1.00  0.00     0.280 C 
HETATM   21  O   UNL     1      43.976 -16.744   8.131  1.00  0.00    -0.265 OA
HETATM   22  H   UNL     1      45.186 -17.262   6.233  1.00  0.00     0.169 HD
BRANCH  20  23
HETATM   23  C   UNL     1      42.336 -15.733   6.777  1.00  0.00     0.142 A 
HETATM   24  O   UNL     1      42.541 -14.404   6.500  1.00  0.00    -0.317 OA
HETATM   25  C   UNL     1      41.330 -13.836   6.285  1.00  0.00     0.143 A 
HETATM   26  C   UNL     1      40.332 -14.773   6.398  1.00  0.00     0.027 A 
HETATM   27  C   UNL     1      40.977 -15.997   6.700  1.00  0.00     0.045 A 
ENDBRANCH  20  23
ENDBRANCH   2  19
BRANCH   1  28
HETATM   28  O   UNL     1      44.774 -19.776   4.829  1.00  0.00    -0.354 OA
HETATM   29  C   UNL     1      43.854 -20.707   5.404  1.00  0.00     0.210 C 
ENDBRANCH   1  28
TORSDOF 7
ENDMDL
MODEL 6
REMARK VINA RESULT:      -7.5      2.361      3.243
REMARK  7 active torsions:
REMARK  status: ('A' for Active; 'I' for Inactive)
REMARK    1  A    between atoms: O_2  and  C_3 
REMARK    2  A    between atoms: C_4  and  N_5 
REMARK       I    between atoms: N_5  and  C_6 
REMARK    3  A    between atoms: C_6  and  C_7 
REMARK    4  A    between atoms: C_14  and  N_15 
REMARK       I    between atoms: N_15  and  C_16 
REMARK    5  A    between atoms: C_16  and  C_17 
REMARK    6  A    between atoms: C_17  and  C_18 
REMARK    7  A    between atoms: C_18  and  C_19 
ROOT
HETATM    1  C   UNL     1      41.471  -9.416   5.315  1.00  0.00     0.095 A 
HETATM    2  C   UNL     1      42.020 -10.410   6.134  1.00  0.00     0.070 A 
HETATM    3  C   UNL     1      42.580 -11.547   5.521  1.00  0.00     0.062 A 
HETATM    4  C   UNL     1      42.647 -11.669   4.129  1.00  0.00     0.037 A 
HETATM    5  C   UNL     1      42.159 -10.628   3.335  1.00  0.00     0.032 A 
HETATM    6  C   UNL     1      41.581  -9.504   3.925  1.00  0.00     0.041 A 
ENDROOT
BRANCH   4   7
HETATM    7  N   UNL     1      43.151 -12.802   3.458  1.00  0.00    -0.327 N 
HETATM    8  C   UNL     1      42.432 -13.811   2.837  1.00  0.00     0.222 C 
HETATM    9  O   UNL     1      41.212 -13.934   2.826  1.00  0.00    -0.273 OA
HETATM   10  H   UNL     1      44.160 -12.887   3.442  1.00  0.00     0.169 HD
BRANCH   8  11
HETATM   11  C   UNL     1      43.320 -14.788   2.088  1.00  0.00     0.108 C 
BRANCH  11  12
HETATM   12  C   UNL     1      42.651 -16.152   1.894  1.00  0.00     0.047 C 
BRANCH  12  13
HETATM   13  C   UNL     1      43.229 -17.264   2.741  1.00  0.00    -0.058 A 
HETATM   14  C   UNL     1      43.330 -18.559   2.214  1.00  0.00     0.007 A 
HETATM   15  C   UNL     1      43.807 -19.613   2.998  1.00  0.00     0.001 A 
HETATM   16  C   UNL     1      44.184 -19.388   4.319  1.00  0.00     0.000 A 
HETATM   17  C   UNL     1      44.077 -18.110   4.861  1.00  0.00     0.001 A 
HETATM   18  C   UNL     1      43.591 -17.057   4.082  1.00  0.00     0.007 A 
ENDBRANCH  12  13
ENDBRANCH  11  12
ENDBRANCH   8  11
ENDBRANCH   4   7
BRANCH   2  19
HETATM   19  N   UNL     1      41.979 -10.433   7.542  1.00  0.00    -0.319 N 
HETATM   20  C   UNL     1      42.795  -9.886   8.510  1.00  0.00     0.280 C 
HETATM   21  O   UNL     1      42.255  -9.623   9.589  1.00  0.00    -0.265 OA
HETATM   22  H   UNL     1      41.134 -10.808   7.955  1.00  0.00     0.169 HD
BRANCH  20  23
HETATM   23  C   UNL     1      44.224  -9.767   8.305  1.00  0.00     0.142 A 
HETATM   24  O   UNL     1      44.902 -10.888   7.892  1.00  0.00    -0.317 OA
HETATM   25  C   UNL     1      46.203 -10.545   7.727  1.00  0.00     0.143 A 
HETATM   26  C   UNL     1      46.389  -9.214   8.007  1.00  0.00     0.027 A 
HETATM   27  C   UNL     1      45.115  -8.707   8.366  1.00  0.00     0.045 A 
ENDBRANCH  20  23
ENDBRANCH   2  19
BRANCH   1  28
HETATM   28  O   UNL     1      40.778  -8.340   5.795  1.00  0.00    -0.354 OA
HETATM   29  C   UNL     1      41.637  -7.206   5.929  1.00  0.00     0.210 C 
ENDBRANCH   1  28
TORSDOF 7
ENDMDL
MODEL 7
REMARK VINA RESULT:      -7.5      1.939      2.650
REMARK  7 active torsions:
REMARK  status: ('A' for Active; 'I' for Inactive)
REMARK    1  A    between atoms: O_2  and  C_3 
REMARK    2  A    between atoms: C_4  and  N_5 
REMARK       I    between atoms: N_5  and  C_6 
REMARK    3  A    between atoms: C_6  and  C_7 
REMARK    4  A    between atoms: C_14  and  N_15 
REMARK       I    between atoms: N_15  and  C_16 
REMARK    5  A    between atoms: C_16  and  C_17 
REMARK    6  A    between atoms: C_17  and  C_18 
REMARK    7  A    between atoms: C_18  and  C_19 
ROOT
HETATM    1  C   UNL     1      40.785  -9.250   7.768  1.00  0.00     0.095 A 
HETATM    2  C   UNL     1      42.089  -9.161   7.266  1.00  0.00     0.070 A 
HETATM    3  C   UNL     1      42.504 -10.110   6.313  1.00  0.00     0.062 A 
HETATM    4  C   UNL     1      41.630 -11.086   5.824  1.00  0.00     0.037 A 
HETATM    5  C   UNL     1      40.311 -11.105   6.287  1.00  0.00     0.032 A 
HETATM    6  C   UNL     1      39.889 -10.186   7.247  1.00  0.00     0.041 A 
ENDROOT
BRANCH   4   7
HETATM    7  N   UNL     1      41.999 -12.091   4.907  1.00  0.00    -0.327 N 
HETATM    8  C   UNL     1      42.707 -13.254   5.161  1.00  0.00     0.222 C 
HETATM    9  O   UNL     1      43.208 -13.582   6.231  1.00  0.00    -0.273 OA
HETATM   10  H   UNL     1      41.719 -11.930   3.947  1.00  0.00     0.169 HD
BRANCH   8  11
HETATM   11  C   UNL     1      42.785 -14.170   3.952  1.00  0.00     0.108 C 
BRANCH  11  12
HETATM   12  C   UNL     1      41.931 -15.430   4.120  1.00  0.00     0.047 C 
BRANCH  12  13
HETATM   13  C   UNL     1      42.638 -16.722   3.774  1.00  0.00    -0.058 A 
HETATM   14  C   UNL     1      43.625 -17.225   4.632  1.00  0.00     0.007 A 
HETATM   15  C   UNL     1      44.331 -18.386   4.304  1.00  0.00     0.001 A 
HETATM   16  C   UNL     1      44.064 -19.054   3.112  1.00  0.00     0.000 A 
HETATM   17  C   UNL     1      43.096 -18.559   2.243  1.00  0.00     0.001 A 
HETATM   18  C   UNL     1      42.395 -17.394   2.565  1.00  0.00     0.007 A 
ENDBRANCH  12  13
ENDBRANCH  11  12
ENDBRANCH   8  11
ENDBRANCH   4   7
BRANCH   2  19
HETATM   19  N   UNL     1      43.081  -8.259   7.702  1.00  0.00    -0.319 N 
HETATM   20  C   UNL     1      44.070  -8.349   8.658  1.00  0.00     0.280 C 
HETATM   21  O   UNL     1      45.074  -7.656   8.466  1.00  0.00    -0.265 OA
HETATM   22  H   UNL     1      43.196  -7.422   7.143  1.00  0.00     0.169 HD
BRANCH  20  23
HETATM   23  C   UNL     1      43.868  -9.105   9.877  1.00  0.00     0.142 A 
HETATM   24  O   UNL     1      43.377  -8.430  10.968  1.00  0.00    -0.317 OA
HETATM   25  C   UNL     1      43.230  -9.325  11.974  1.00  0.00     0.143 A 
HETATM   26  C   UNL     1      43.599 -10.581  11.559  1.00  0.00     0.027 A 
HETATM   27  C   UNL     1      43.997 -10.445  10.206  1.00  0.00     0.045 A 
ENDBRANCH  20  23
ENDBRANCH   2  19
BRANCH   1  28
HETATM   28  O   UNL     1      40.317  -8.476   8.794  1.00  0.00    -0.354 OA
HETATM   29  C   UNL     1      40.079  -9.273   9.957  1.00  0.00     0.210 C 
ENDBRANCH   1  28
TORSDOF 7
ENDMDL
MODEL 8
REMARK VINA RESULT:      -7.5      2.078      3.329
REMARK  7 active torsions:
REMARK  status: ('A' for Active; 'I' for Inactive)
REMARK    1  A    between atoms: O_2  and  C_3 
REMARK    2  A    between atoms: C_4  and  N_5 
REMARK       I    between atoms: N_5  and  C_6 
REMARK    3  A    between atoms: C_6  and  C_7 
REMARK    4  A    between atoms: C_14  and  N_15 
REMARK       I    between atoms: N_15  and  C_16 
REMARK    5  A    between atoms: C_16  and  C_17 
REMARK    6  A    between atoms: C_17  and  C_18 
REMARK    7  A    between atoms: C_18  and  C_19 
ROOT
HETATM    1  C   UNL     1      44.483 -10.149   7.790  1.00  0.00     0.095 A 
HETATM    2  C   UNL     1      43.136  -9.932   7.475  1.00  0.00     0.070 A 
HETATM    3  C   UNL     1      42.459 -10.911   6.724  1.00  0.00     0.062 A 
HETATM    4  C   UNL     1      43.084 -12.104   6.346  1.00  0.00     0.037 A 
HETATM    5  C   UNL     1      44.407 -12.329   6.738  1.00  0.00     0.032 A 
HETATM    6  C   UNL     1      45.100 -11.360   7.463  1.00  0.00     0.041 A 
ENDROOT
BRANCH   4   7
HETATM    7  N   UNL     1      42.475 -13.100   5.555  1.00  0.00    -0.327 N 
HETATM    8  C   UNL     1      42.634 -13.320   4.196  1.00  0.00     0.222 C 
HETATM    9  O   UNL     1      43.285 -12.631   3.419  1.00  0.00    -0.273 OA
HETATM   10  H   UNL     1      41.838 -13.717   6.044  1.00  0.00     0.169 HD
BRANCH   8  11
HETATM   11  C   UNL     1      41.933 -14.581   3.721  1.00  0.00     0.108 C 
BRANCH  11  12
HETATM   12  C   UNL     1      42.753 -15.343   2.675  1.00  0.00     0.047 C 
BRANCH  12  13
HETATM   13  C   UNL     1      43.268 -16.689   3.136  1.00  0.00    -0.058 A 
HETATM   14  C   UNL     1      43.225 -17.785   2.263  1.00  0.00     0.007 A 
HETATM   15  C   UNL     1      43.641 -19.050   2.686  1.00  0.00     0.001 A 
HETATM   16  C   UNL     1      44.100 -19.237   3.987  1.00  0.00     0.000 A 
HETATM   17  C   UNL     1      44.137 -18.161   4.869  1.00  0.00     0.001 A 
HETATM   18  C   UNL     1      43.712 -16.897   4.451  1.00  0.00     0.007 A 
ENDBRANCH  12  13
ENDBRANCH  11  12
ENDBRANCH   8  11
ENDBRANCH   4   7
BRANCH   2  19
HETATM   19  N   UNL     1      42.403  -8.761   7.754  1.00  0.00    -0.319 N 
HETATM   20  C   UNL     1      42.330  -7.947   8.865  1.00  0.00     0.280 C 
HETATM   21  O   UNL     1      42.041  -6.765   8.653  1.00  0.00    -0.265 OA
HETATM   22  H   UNL     1      41.924  -8.340   6.968  1.00  0.00     0.169 HD
BRANCH  20  23
HETATM   23  C   UNL     1      42.448  -8.492  10.202  1.00  0.00     0.142 A 
HETATM   24  O   UNL     1      41.541  -9.453  10.578  1.00  0.00    -0.317 OA
HETATM   25  C   UNL     1      41.855  -9.845  11.836  1.00  0.00     0.143 A 
HETATM   26  C   UNL     1      42.964  -9.173  12.288  1.00  0.00     0.027 A 
HETATM   27  C   UNL     1      43.355  -8.311  11.233  1.00  0.00     0.045 A 
ENDBRANCH  20  23
ENDBRANCH   2  19
BRANCH   1  28
HETATM   28  O   UNL     1      45.279  -9.212   8.388  1.00  0.00    -0.354 OA
HETATM   29  C   UNL     1      46.616  -9.293   7.888  1.00  0.00     0.210 C 
ENDBRANCH   1  28
TORSDOF 7
ENDMDL
MODEL 9
REMARK VINA RESULT:      -7.4      5.487      8.270
REMARK  7 active torsions:
REMARK  status: ('A' for Active; 'I' for Inactive)
REMARK    1  A    between atoms: O_2  and  C_3 
REMARK    2  A    between atoms: C_4  and  N_5 
REMARK       I    between atoms: N_5  and  C_6 
REMARK    3  A    between atoms: C_6  and  C_7 
REMARK    4  A    between atoms: C_14  and  N_15 
REMARK       I    between atoms: N_15  and  C_16 
REMARK    5  A    between atoms: C_16  and  C_17 
REMARK    6  A    between atoms: C_17  and  C_18 
REMARK    7  A    between atoms: C_18  and  C_19 
ROOT
HETATM    1  C   UNL     1      42.675 -16.925   3.615  1.00  0.00     0.095 A 
HETATM    2  C   UNL     1      41.603 -16.059   3.865  1.00  0.00     0.070 A 
HETATM    3  C   UNL     1      41.220 -15.160   2.853  1.00  0.00     0.062 A 
HETATM    4  C   UNL     1      41.846 -15.158   1.601  1.00  0.00     0.037 A 
HETATM    5  C   UNL     1      42.863 -16.085   1.352  1.00  0.00     0.032 A 
HETATM    6  C   UNL     1      43.270 -16.968   2.351  1.00  0.00     0.041 A 
ENDROOT
BRANCH   4   7
HETATM    7  N   UNL     1      41.540 -14.252   0.565  1.00  0.00    -0.327 N 
HETATM    8  C   UNL     1      40.442 -14.267  -0.279  1.00  0.00     0.222 C 
HETATM    9  O   UNL     1      39.567 -15.126  -0.320  1.00  0.00    -0.273 OA
HETATM   10  H   UNL     1      42.216 -13.512   0.419  1.00  0.00     0.169 HD
BRANCH   8  11
HETATM   11  C   UNL     1      40.373 -13.042  -1.174  1.00  0.00     0.108 C 
BRANCH  11  12
HETATM   12  C   UNL     1      40.930 -11.789  -0.489  1.00  0.00     0.047 C 
BRANCH  12  13
HETATM   13  C   UNL     1      41.137 -10.607  -1.410  1.00  0.00    -0.058 A 
HETATM   14  C   UNL     1      40.598 -10.632  -2.704  1.00  0.00     0.007 A 
HETATM   15  C   UNL     1      40.824  -9.576  -3.592  1.00  0.00     0.001 A 
HETATM   16  C   UNL     1      41.596  -8.486  -3.199  1.00  0.00     0.000 A 
HETATM   17  C   UNL     1      42.149  -8.453  -1.922  1.00  0.00     0.001 A 
HETATM   18  C   UNL     1      41.931  -9.512  -1.037  1.00  0.00     0.007 A 
ENDBRANCH  12  13
ENDBRANCH  11  12
ENDBRANCH   8  11
ENDBRANCH   4   7
BRANCH   2  19
HETATM   19  N   UNL     1      40.919 -15.927   5.090  1.00  0.00    -0.319 N 
HETATM   20  C   UNL     1      40.849 -14.909   6.016  1.00  0.00     0.280 C 
HETATM   21  O   UNL     1      39.813 -14.854   6.686  1.00  0.00    -0.265 OA
HETATM   22  H   UNL     1      40.242 -16.651   5.300  1.00  0.00     0.169 HD
BRANCH  20  23
HETATM   23  C   UNL     1      41.988 -14.050   6.274  1.00  0.00     0.142 A 
HETATM   24  O   UNL     1      41.963 -12.786   5.739  1.00  0.00    -0.317 OA
HETATM   25  C   UNL     1      43.094 -12.150   6.132  1.00  0.00     0.143 A 
HETATM   26  C   UNL     1      43.853 -12.969   6.932  1.00  0.00     0.027 A 
HETATM   27  C   UNL     1      43.137 -14.187   7.037  1.00  0.00     0.045 A 
ENDBRANCH  20  23
ENDBRANCH   2  19
BRANCH   1  28
HETATM   28  O   UNL     1      43.225 -17.740   4.566  1.00  0.00    -0.354 OA
HETATM   29  C   UNL     1      44.366 -17.119   5.163  1.00  0.00     0.210 C 
ENDBRANCH   1  28
TORSDOF 7
ENDMDL
MODEL 10
REMARK VINA RESULT:      -7.2     16.703     18.614
REMARK  7 active torsions:
REMARK  status: ('A' for Active; 'I' for Inactive)
REMARK    1  A    between atoms: O_2  and  C_3 
REMARK    2  A    between atoms: C_4  and  N_5 
REMARK       I    between atoms: N_5  and  C_6 
REMARK    3  A    between atoms: C_6  and  C_7 
REMARK    4  A    between atoms: C_14  and  N_15 
REMARK       I    between atoms: N_15  and  C_16 
REMARK    5  A    between atoms: C_16  and  C_17 
REMARK    6  A    between atoms: C_17  and  C_18 
REMARK    7  A    between atoms: C_18  and  C_19 
ROOT
HETATM    1  C   UNL     1      45.690 -28.620  -1.633  1.00  0.00     0.095 A 
HETATM    2  C   UNL     1      45.092 -28.548  -0.369  1.00  0.00     0.070 A 
HETATM    3  C   UNL     1      45.927 -28.484   0.762  1.00  0.00     0.062 A 
HETATM    4  C   UNL     1      47.320 -28.433   0.641  1.00  0.00     0.037 A 
HETATM    5  C   UNL     1      47.888 -28.429  -0.636  1.00  0.00     0.032 A 
HETATM    6  C   UNL     1      47.076 -28.514  -1.767  1.00  0.00     0.041 A 
ENDROOT
BRANCH   4   7
HETATM    7  N   UNL     1      48.209 -28.416   1.735  1.00  0.00    -0.327 N 
HETATM    8  C   UNL     1      48.109 -29.125   2.921  1.00  0.00     0.222 C 
HETATM    9  O   UNL     1      47.178 -29.846   3.261  1.00  0.00    -0.273 OA
HETATM   10  H   UNL     1      49.008 -27.800   1.639  1.00  0.00     0.169 HD
BRANCH   8  11
HETATM   11  C   UNL     1      49.335 -28.967   3.804  1.00  0.00     0.108 C 
BRANCH  11  12
HETATM   12  C   UNL     1      50.383 -30.055   3.545  1.00  0.00     0.047 C 
BRANCH  12  13
HETATM   13  C   UNL     1      50.557 -31.044   4.676  1.00  0.00    -0.058 A 
HETATM   14  C   UNL     1      49.462 -31.802   5.111  1.00  0.00     0.007 A 
HETATM   15  C   UNL     1      49.585 -32.681   6.191  1.00  0.00     0.001 A 
HETATM   16  C   UNL     1      50.803 -32.807   6.853  1.00  0.00     0.000 A 
HETATM   17  C   UNL     1      51.897 -32.050   6.442  1.00  0.00     0.001 A 
HETATM   18  C   UNL     1      51.772 -31.165   5.367  1.00  0.00     0.007 A 
ENDBRANCH  12  13
ENDBRANCH  11  12
ENDBRANCH   8  11
ENDBRANCH   4   7
BRANCH   2  19
HETATM   19  N   UNL     1      43.710 -28.636  -0.104  1.00  0.00    -0.319 N 
HETATM   20  C   UNL     1      42.963 -29.481   0.687  1.00  0.00     0.280 C 
HETATM   21  O   UNL     1      41.905 -29.019   1.127  1.00  0.00    -0.265 OA
HETATM   22  H   UNL     1      43.144 -27.869  -0.447  1.00  0.00     0.169 HD
BRANCH  20  23
HETATM   23  C   UNL     1      43.338 -30.869   0.865  1.00  0.00     0.142 A 
HETATM   24  O   UNL     1      43.447 -31.338   2.151  1.00  0.00    -0.317 OA
HETATM   25  C   UNL     1      43.764 -32.653   2.085  1.00  0.00     0.143 A 
HETATM   26  C   UNL     1      43.848 -33.063   0.777  1.00  0.00     0.027 A 
HETATM   27  C   UNL     1      43.560 -31.921  -0.010  1.00  0.00     0.045 A 
ENDBRANCH  20  23
ENDBRANCH   2  19
BRANCH   1  28
HETATM   28  O   UNL     1      44.988 -28.827  -2.789  1.00  0.00    -0.354 OA
HETATM   29  C   UNL     1      45.209 -27.756  -3.711  1.00  0.00     0.210 C 
ENDBRANCH   1  28
TORSDOF 7
ENDMDL
