MODEL 1
REMARK VINA RESULT:      -7.9      0.000      0.000
REMARK  6 active torsions:
REMARK  status: ('A' for Active; 'I' for Inactive)
REMARK    1  A    between atoms: C_2  and  N_3 
REMARK    2  A    between atoms: C_2  and  C_16 
REMARK    3  A    between atoms: N_3  and  C_6 
REMARK    4  A    between atoms: C_16  and  C_17 
REMARK       I    between atoms: C_17  and  N_18 
REMARK    5  A    between atoms: N_18  and  C_19 
REMARK    6  A    between atoms: C_22  and  O_23 
ROOT
HETATM    1  C   UNL     1      43.655 -11.877   4.416  1.00  0.00     0.040 C 
HETATM    2  C   UNL     1      42.605 -12.923   4.062  1.00  0.00     0.191 C 
ENDROOT
BRANCH   2   3
HETATM    3  N   UNL     1      42.852 -14.195   4.836  1.00  0.00    -0.063 N 
HETATM    4  H   UNL     1      43.825 -14.491   4.597  1.00  0.00     0.278 HD
HETATM    5  H   UNL     1      42.917 -13.940   5.828  1.00  0.00     0.278 HD
BRANCH   3   6
HETATM    6  C   UNL     1      41.955 -15.397   4.691  1.00  0.00     0.221 C 
HETATM    7  C   UNL     1      42.643 -16.605   4.111  1.00  0.00    -0.011 A 
HETATM    8  C   UNL     1      43.587 -17.306   4.880  1.00  0.00     0.009 A 
HETATM    9  C   UNL     1      42.347 -17.052   2.813  1.00  0.00     0.011 A 
HETATM   10  C   UNL     1      44.270 -18.391   4.325  1.00  0.00     0.019 A 
HETATM   11  S   UNL     1      43.979 -16.806   6.543  1.00  0.00    -0.129 SA
HETATM   12  C   UNL     1      43.987 -18.810   3.025  1.00  0.00     0.001 A 
HETATM   13  C   UNL     1      43.020 -18.149   2.273  1.00  0.00     0.001 A 
HETATM   14  C   UNL     1      42.376 -16.168   7.129  1.00  0.00     0.082 C 
HETATM   15  C   UNL     1      41.365 -15.767   6.057  1.00  0.00     0.048 C 
ENDBRANCH   3   6
ENDBRANCH   2   3
BRANCH   2  16
HETATM   16  C   UNL     1      41.176 -12.385   4.203  1.00  0.00     0.135 C 
BRANCH  16  17
HETATM   17  C   UNL     1      40.449 -12.417   2.877  1.00  0.00     0.224 C 
HETATM   18  N   UNL     1      41.187 -13.006   1.875  1.00  0.00    -0.327 N 
HETATM   19  H   UNL     1      42.149 -13.251   2.076  1.00  0.00     0.169 HD
HETATM   20  O   UNL     1      39.337 -11.902   2.790  1.00  0.00    -0.273 OA
BRANCH  18  21
HETATM   21  C   UNL     1      40.777 -13.242   0.546  1.00  0.00     0.034 A 
HETATM   22  C   UNL     1      40.107 -14.444   0.285  1.00  0.00     0.032 A 
HETATM   23  C   UNL     1      39.644 -14.746  -1.002  1.00  0.00     0.039 A 
HETATM   24  C   UNL     1      39.835 -13.841  -2.043  1.00  0.00     0.068 A 
HETATM   25  C   UNL     1      40.504 -12.644  -1.785  1.00  0.00     0.039 A 
HETATM   26  C   UNL     1      40.975 -12.344  -0.501  1.00  0.00     0.032 A 
BRANCH  24  27
HETATM   27  O   UNL     1      39.424 -14.001  -3.336  1.00  0.00    -0.356 OA
HETATM   28  C   UNL     1      38.202 -14.696  -3.547  1.00  0.00     0.210 C 
ENDBRANCH  24  27
ENDBRANCH  18  21
ENDBRANCH  16  17
ENDBRANCH   2  16
TORSDOF 6
ENDMDL
MODEL 2
REMARK VINA RESULT:      -7.8      2.732      5.930
REMARK  6 active torsions:
REMARK  status: ('A' for Active; 'I' for Inactive)
REMARK    1  A    between atoms: C_2  and  N_3 
REMARK    2  A    between atoms: C_2  and  C_16 
REMARK    3  A    between atoms: N_3  and  C_6 
REMARK    4  A    between atoms: C_16  and  C_17 
REMARK       I    between atoms: C_17  and  N_18 
REMARK    5  A    between atoms: N_18  and  C_19 
REMARK    6  A    between atoms: C_22  and  O_23 
ROOT
HETATM    1  C   UNL     1      39.300 -12.443   2.378  1.00  0.00     0.040 C 
HETATM    2  C   UNL     1      40.779 -12.675   2.097  1.00  0.00     0.191 C 
ENDROOT
BRANCH   2   3
HETATM    3  N   UNL     1      41.560 -12.702   3.389  1.00  0.00    -0.063 N 
HETATM    4  H   UNL     1      42.171 -13.548   3.335  1.00  0.00     0.278 HD
HETATM    5  H   UNL     1      42.227 -11.923   3.357  1.00  0.00     0.278 HD
BRANCH   3   6
HETATM    6  C   UNL     1      40.873 -12.713   4.729  1.00  0.00     0.221 C 
HETATM    7  C   UNL     1      41.442 -13.716   5.698  1.00  0.00    -0.011 A 
HETATM    8  C   UNL     1      42.709 -13.498   6.263  1.00  0.00     0.009 A 
HETATM    9  C   UNL     1      40.719 -14.864   6.058  1.00  0.00     0.011 A 
HETATM   10  C   UNL     1      43.265 -14.455   7.116  1.00  0.00     0.019 A 
HETATM   11  S   UNL     1      43.659 -12.044   5.871  1.00  0.00    -0.129 SA
HETATM   12  C   UNL     1      42.549 -15.605   7.446  1.00  0.00     0.001 A 
HETATM   13  C   UNL     1      41.274 -15.806   6.926  1.00  0.00     0.001 A 
HETATM   14  C   UNL     1      42.352 -10.794   5.648  1.00  0.00     0.082 C 
HETATM   15  C   UNL     1      40.947 -11.316   5.357  1.00  0.00     0.048 C 
ENDBRANCH   3   6
ENDBRANCH   2   3
BRANCH   2  16
HETATM   16  C   UNL     1      41.018 -13.902   1.210  1.00  0.00     0.135 C 
BRANCH  16  17
HETATM   17  C   UNL     1      41.232 -15.145   2.046  1.00  0.00     0.224 C 
HETATM   18  N   UNL     1      42.521 -15.623   1.975  1.00  0.00    -0.327 N 
HETATM   19  H   UNL     1      43.152 -15.188   1.313  1.00  0.00     0.169 HD
HETATM   20  O   UNL     1      40.280 -15.632   2.652  1.00  0.00    -0.273 OA
BRANCH  18  21
HETATM   21  C   UNL     1      43.058 -16.723   2.676  1.00  0.00     0.034 A 
HETATM   22  C   UNL     1      43.548 -16.485   3.967  1.00  0.00     0.032 A 
HETATM   23  C   UNL     1      44.075 -17.527   4.741  1.00  0.00     0.039 A 
HETATM   24  C   UNL     1      44.106 -18.824   4.237  1.00  0.00     0.068 A 
HETATM   25  C   UNL     1      43.619 -19.063   2.951  1.00  0.00     0.039 A 
HETATM   26  C   UNL     1      43.100 -18.022   2.172  1.00  0.00     0.032 A 
BRANCH  24  27
HETATM   27  O   UNL     1      44.575 -19.931   4.886  1.00  0.00    -0.356 OA
HETATM   28  C   UNL     1      43.906 -21.161   4.638  1.00  0.00     0.210 C 
ENDBRANCH  24  27
ENDBRANCH  18  21
ENDBRANCH  16  17
ENDBRANCH   2  16
TORSDOF 6
ENDMDL
MODEL 3
REMARK VINA RESULT:      -7.6      4.286      7.898
REMARK  6 active torsions:
REMARK  status: ('A' for Active; 'I' for Inactive)
REMARK    1  A    between atoms: C_2  and  N_3 
REMARK    2  A    between atoms: C_2  and  C_16 
REMARK    3  A    between atoms: N_3  and  C_6 
REMARK    4  A    between atoms: C_16  and  C_17 
REMARK       I    between atoms: C_17  and  N_18 
REMARK    5  A    between atoms: N_18  and  C_19 
REMARK    6  A    between atoms: C_22  and  O_23 
ROOT
HETATM    1  C   UNL     1      42.449 -12.751   2.900  1.00  0.00     0.040 C 
HETATM    2  C   UNL     1      42.751 -12.971   4.376  1.00  0.00     0.191 C 
ENDROOT
BRANCH   2   3
HETATM    3  N   UNL     1      43.101 -14.418   4.629  1.00  0.00    -0.063 N 
HETATM    4  H   UNL     1      43.932 -14.619   4.029  1.00  0.00     0.278 HD
HETATM    5  H   UNL     1      43.475 -14.478   5.583  1.00  0.00     0.278 HD
BRANCH   3   6
HETATM    6  C   UNL     1      42.100 -15.523   4.417  1.00  0.00     0.221 C 
HETATM    7  C   UNL     1      42.715 -16.832   3.997  1.00  0.00    -0.011 A 
HETATM    8  C   UNL     1      43.462 -17.580   4.923  1.00  0.00     0.009 A 
HETATM    9  C   UNL     1      42.546 -17.325   2.694  1.00  0.00     0.011 A 
HETATM   10  C   UNL     1      44.083 -18.765   4.521  1.00  0.00     0.019 A 
HETATM   11  S   UNL     1      43.684 -17.022   6.599  1.00  0.00    -0.129 SA
HETATM   12  C   UNL     1      43.930 -19.233   3.216  1.00  0.00     0.001 A 
HETATM   13  C   UNL     1      43.155 -18.520   2.306  1.00  0.00     0.001 A 
HETATM   14  C   UNL     1      42.101 -16.180   6.924  1.00  0.00     0.082 C 
HETATM   15  C   UNL     1      41.294 -15.741   5.704  1.00  0.00     0.048 C 
ENDBRANCH   3   6
ENDBRANCH   2   3
BRANCH   2  16
HETATM   16  C   UNL     1      43.795 -11.984   4.911  1.00  0.00     0.135 C 
BRANCH  16  17
HETATM   17  C   UNL     1      43.698 -11.850   6.415  1.00  0.00     0.224 C 
HETATM   18  N   UNL     1      43.959 -10.574   6.858  1.00  0.00    -0.327 N 
HETATM   19  H   UNL     1      44.289  -9.895   6.181  1.00  0.00     0.169 HD
HETATM   20  O   UNL     1      43.453 -12.847   7.091  1.00  0.00    -0.273 OA
BRANCH  18  21
HETATM   21  C   UNL     1      43.896 -10.107   8.188  1.00  0.00     0.034 A 
HETATM   22  C   UNL     1      45.058 -10.217   8.962  1.00  0.00     0.032 A 
HETATM   23  C   UNL     1      45.088  -9.754  10.284  1.00  0.00     0.039 A 
HETATM   24  C   UNL     1      43.959  -9.162  10.843  1.00  0.00     0.068 A 
HETATM   25  C   UNL     1      42.801  -9.052  10.072  1.00  0.00     0.039 A 
HETATM   26  C   UNL     1      42.765  -9.522   8.754  1.00  0.00     0.032 A 
BRANCH  24  27
HETATM   27  O   UNL     1      43.855  -8.656  12.107  1.00  0.00    -0.356 OA
HETATM   28  C   UNL     1      42.820  -7.711  12.345  1.00  0.00     0.210 C 
ENDBRANCH  24  27
ENDBRANCH  18  21
ENDBRANCH  16  17
ENDBRANCH   2  16
TORSDOF 6
ENDMDL
MODEL 4
REMARK VINA RESULT:      -7.4      5.131      8.654
REMARK  6 active torsions:
REMARK  status: ('A' for Active; 'I' for Inactive)
REMARK    1  A    between atoms: C_2  and  N_3 
REMARK    2  A    between atoms: C_2  and  C_16 
REMARK    3  A    between atoms: N_3  and  C_6 
REMARK    4  A    between atoms: C_16  and  C_17 
REMARK       I    between atoms: C_17  and  N_18 
REMARK    5  A    between atoms: N_18  and  C_19 
REMARK    6  A    between atoms: C_22  and  O_23 
ROOT
HETATM    1  C   UNL     1      43.490 -11.473   4.637  1.00  0.00     0.040 C 
HETATM    2  C   UNL     1      43.955 -12.049   5.968  1.00  0.00     0.191 C 
ENDROOT
BRANCH   2   3
HETATM    3  N   UNL     1      43.746 -13.544   5.993  1.00  0.00    -0.063 N 
HETATM    4  H   UNL     1      44.595 -13.958   5.545  1.00  0.00     0.278 HD
HETATM    5  H   UNL     1      43.822 -13.845   6.972  1.00  0.00     0.278 HD
BRANCH   3   6
HETATM    6  C   UNL     1      42.535 -14.185   5.368  1.00  0.00     0.221 C 
HETATM    7  C   UNL     1      42.861 -15.292   4.402  1.00  0.00    -0.011 A 
HETATM    8  C   UNL     1      43.356 -16.516   4.883  1.00  0.00     0.009 A 
HETATM    9  C   UNL     1      42.667 -15.127   3.021  1.00  0.00     0.011 A 
HETATM   10  C   UNL     1      43.715 -17.524   3.986  1.00  0.00     0.019 A 
HETATM   11  S   UNL     1      43.591 -16.796   6.626  1.00  0.00    -0.129 SA
HETATM   12  C   UNL     1      43.543 -17.340   2.614  1.00  0.00     0.001 A 
HETATM   13  C   UNL     1      43.011 -16.147   2.132  1.00  0.00     0.001 A 
HETATM   14  C   UNL     1      42.225 -15.830   7.347  1.00  0.00     0.082 C 
HETATM   15  C   UNL     1      41.620 -14.737   6.468  1.00  0.00     0.048 C 
ENDBRANCH   3   6
ENDBRANCH   2   3
BRANCH   2  16
HETATM   16  C   UNL     1      45.384 -11.622   6.320  1.00  0.00     0.135 C 
BRANCH  16  17
HETATM   17  C   UNL     1      45.409 -10.793   7.586  1.00  0.00     0.224 C 
HETATM   18  N   UNL     1      44.164 -10.642   8.152  1.00  0.00    -0.327 N 
HETATM   19  H   UNL     1      43.363 -10.986   7.635  1.00  0.00     0.169 HD
HETATM   20  O   UNL     1      46.472 -10.308   7.965  1.00  0.00    -0.273 OA
BRANCH  18  21
HETATM   21  C   UNL     1      43.854  -9.980   9.359  1.00  0.00     0.034 A 
HETATM   22  C   UNL     1      43.777 -10.762  10.519  1.00  0.00     0.032 A 
HETATM   23  C   UNL     1      43.500 -10.180  11.763  1.00  0.00     0.039 A 
HETATM   24  C   UNL     1      43.308  -8.805  11.863  1.00  0.00     0.068 A 
HETATM   25  C   UNL     1      43.383  -8.025  10.708  1.00  0.00     0.039 A 
HETATM   26  C   UNL     1      43.651  -8.606   9.463  1.00  0.00     0.032 A 
BRANCH  24  27
HETATM   27  O   UNL     1      43.047  -8.109  13.008  1.00  0.00    -0.356 OA
HETATM   28  C   UNL     1      42.235  -8.748  13.985  1.00  0.00     0.210 C 
ENDBRANCH  24  27
ENDBRANCH  18  21
ENDBRANCH  16  17
ENDBRANCH   2  16
TORSDOF 6
ENDMDL
MODEL 5
REMARK VINA RESULT:      -7.1      1.718      2.075
REMARK  6 active torsions:
REMARK  status: ('A' for Active; 'I' for Inactive)
REMARK    1  A    between atoms: C_2  and  N_3 
REMARK    2  A    between atoms: C_2  and  C_16 
REMARK    3  A    between atoms: N_3  and  C_6 
REMARK    4  A    between atoms: C_16  and  C_17 
REMARK       I    between atoms: C_17  and  N_18 
REMARK    5  A    between atoms: N_18  and  C_19 
REMARK    6  A    between atoms: C_22  and  O_23 
ROOT
HETATM    1  C   UNL     1      41.848 -12.550   3.357  1.00  0.00     0.040 C 
HETATM    2  C   UNL     1      42.887 -13.645   3.153  1.00  0.00     0.191 C 
ENDROOT
BRANCH   2   3
HETATM    3  N   UNL     1      42.857 -14.618   4.307  1.00  0.00    -0.063 N 
HETATM    4  H   UNL     1      43.846 -14.926   4.447  1.00  0.00     0.278 HD
HETATM    5  H   UNL     1      42.653 -14.078   5.155  1.00  0.00     0.278 HD
BRANCH   3   6
HETATM    6  C   UNL     1      41.990 -15.850   4.281  1.00  0.00     0.221 C 
HETATM    7  C   UNL     1      42.716 -17.099   3.857  1.00  0.00    -0.011 A 
HETATM    8  C   UNL     1      43.657 -17.685   4.719  1.00  0.00     0.009 A 
HETATM    9  C   UNL     1      42.459 -17.697   2.613  1.00  0.00     0.011 A 
HETATM   10  C   UNL     1      44.376 -18.809   4.304  1.00  0.00     0.019 A 
HETATM   11  S   UNL     1      44.002 -16.991   6.322  1.00  0.00    -0.129 SA
HETATM   12  C   UNL     1      44.132 -19.380   3.056  1.00  0.00     0.001 A 
HETATM   13  C   UNL     1      43.168 -18.831   2.215  1.00  0.00     0.001 A 
HETATM   14  C   UNL     1      42.373 -16.329   6.799  1.00  0.00     0.082 C 
HETATM   15  C   UNL     1      41.377 -16.076   5.668  1.00  0.00     0.048 C 
ENDBRANCH   3   6
ENDBRANCH   2   3
BRANCH   2  16
HETATM   16  C   UNL     1      42.764 -14.316   1.780  1.00  0.00     0.135 C 
BRANCH  16  17
HETATM   17  C   UNL     1      41.344 -14.241   1.263  1.00  0.00     0.224 C 
HETATM   18  N   UNL     1      41.231 -13.494   0.113  1.00  0.00    -0.327 N 
HETATM   19  H   UNL     1      42.049 -12.991  -0.208  1.00  0.00     0.169 HD
HETATM   20  O   UNL     1      40.444 -14.784   1.900  1.00  0.00    -0.273 OA
BRANCH  18  21
HETATM   21  C   UNL     1      40.063 -13.278  -0.648  1.00  0.00     0.034 A 
HETATM   22  C   UNL     1      39.429 -12.036  -0.512  1.00  0.00     0.032 A 
HETATM   23  C   UNL     1      38.278 -11.730  -1.250  1.00  0.00     0.039 A 
HETATM   24  C   UNL     1      37.756 -12.659  -2.146  1.00  0.00     0.068 A 
HETATM   25  C   UNL     1      38.386 -13.896  -2.282  1.00  0.00     0.039 A 
HETATM   26  C   UNL     1      39.531 -14.208  -1.539  1.00  0.00     0.032 A 
BRANCH  24  27
HETATM   27  O   UNL     1      36.655 -12.487  -2.936  1.00  0.00    -0.356 OA
HETATM   28  C   UNL     1      36.140 -11.166  -3.052  1.00  0.00     0.210 C 
ENDBRANCH  24  27
ENDBRANCH  18  21
ENDBRANCH  16  17
ENDBRANCH   2  16
TORSDOF 6
ENDMDL
MODEL 6
REMARK VINA RESULT:      -6.8      3.488      7.677
REMARK  6 active torsions:
REMARK  status: ('A' for Active; 'I' for Inactive)
REMARK    1  A    between atoms: C_2  and  N_3 
REMARK    2  A    between atoms: C_2  and  C_16 
REMARK    3  A    between atoms: N_3  and  C_6 
REMARK    4  A    between atoms: C_16  and  C_17 
REMARK       I    between atoms: C_17  and  N_18 
REMARK    5  A    between atoms: N_18  and  C_19 
REMARK    6  A    between atoms: C_22  and  O_23 
ROOT
HETATM    1  C   UNL     1      39.399 -12.054   3.502  1.00  0.00     0.040 C 
HETATM    2  C   UNL     1      39.924 -12.643   2.200  1.00  0.00     0.191 C 
ENDROOT
BRANCH   2   3
HETATM    3  N   UNL     1      39.601 -11.728   1.043  1.00  0.00    -0.063 N 
HETATM    4  H   UNL     1      38.569 -11.806   0.897  1.00  0.00     0.278 HD
HETATM    5  H   UNL     1      39.723 -10.764   1.374  1.00  0.00     0.278 HD
BRANCH   3   6
HETATM    6  C   UNL     1      40.270 -11.881  -0.298  1.00  0.00     0.221 C 
HETATM    7  C   UNL     1      39.503 -12.740  -1.268  1.00  0.00    -0.011 A 
HETATM    8  C   UNL     1      38.309 -12.261  -1.832  1.00  0.00     0.009 A 
HETATM    9  C   UNL     1      39.969 -14.015  -1.629  1.00  0.00     0.011 A 
HETATM   10  C   UNL     1      37.565 -13.079  -2.685  1.00  0.00     0.019 A 
HETATM   11  S   UNL     1      37.685 -10.641  -1.436  1.00  0.00    -0.129 SA
HETATM   12  C   UNL     1      38.023 -14.353  -3.017  1.00  0.00     0.001 A 
HETATM   13  C   UNL     1      39.229 -14.818  -2.498  1.00  0.00     0.001 A 
HETATM   14  C   UNL     1      39.225  -9.693  -1.213  1.00  0.00     0.082 C 
HETATM   15  C   UNL     1      40.490 -10.498  -0.923  1.00  0.00     0.048 C 
ENDBRANCH   3   6
ENDBRANCH   2   3
BRANCH   2  16
HETATM   16  C   UNL     1      41.407 -13.022   2.288  1.00  0.00     0.135 C 
BRANCH  16  17
HETATM   17  C   UNL     1      41.580 -14.519   2.415  1.00  0.00     0.224 C 
HETATM   18  N   UNL     1      42.754 -14.873   3.039  1.00  0.00    -0.327 N 
HETATM   19  H   UNL     1      43.420 -14.138   3.247  1.00  0.00     0.169 HD
HETATM   20  O   UNL     1      40.728 -15.264   1.936  1.00  0.00    -0.273 OA
BRANCH  18  21
HETATM   21  C   UNL     1      43.186 -16.176   3.362  1.00  0.00     0.034 A 
HETATM   22  C   UNL     1      43.640 -16.397   4.669  1.00  0.00     0.032 A 
HETATM   23  C   UNL     1      44.063 -17.668   5.080  1.00  0.00     0.039 A 
HETATM   24  C   UNL     1      44.023 -18.738   4.190  1.00  0.00     0.068 A 
HETATM   25  C   UNL     1      43.571 -18.519   2.888  1.00  0.00     0.039 A 
HETATM   26  C   UNL     1      43.157 -17.248   2.473  1.00  0.00     0.032 A 
BRANCH  24  27
HETATM   27  O   UNL     1      44.389 -20.026   4.461  1.00  0.00    -0.356 OA
HETATM   28  C   UNL     1      43.872 -21.039   3.608  1.00  0.00     0.210 C 
ENDBRANCH  24  27
ENDBRANCH  18  21
ENDBRANCH  16  17
ENDBRANCH   2  16
TORSDOF 6
ENDMDL
MODEL 7
REMARK VINA RESULT:      -6.8     15.177     17.803
REMARK  6 active torsions:
REMARK  status: ('A' for Active; 'I' for Inactive)
REMARK    1  A    between atoms: C_2  and  N_3 
REMARK    2  A    between atoms: C_2  and  C_16 
REMARK    3  A    between atoms: N_3  and  C_6 
REMARK    4  A    between atoms: C_16  and  C_17 
REMARK       I    between atoms: C_17  and  N_18 
REMARK    5  A    between atoms: N_18  and  C_19 
REMARK    6  A    between atoms: C_22  and  O_23 
ROOT
HETATM    1  C   UNL     1      47.512 -29.264  -2.187  1.00  0.00     0.040 C 
HETATM    2  C   UNL     1      46.762 -28.325  -1.252  1.00  0.00     0.191 C 
ENDROOT
BRANCH   2   3
HETATM    3  N   UNL     1      45.633 -29.058  -0.567  1.00  0.00    -0.063 N 
HETATM    4  H   UNL     1      45.969 -30.039  -0.435  1.00  0.00     0.278 HD
HETATM    5  H   UNL     1      45.572 -28.696   0.391  1.00  0.00     0.278 HD
BRANCH   3   6
HETATM    6  C   UNL     1      44.252 -29.120  -1.165  1.00  0.00     0.221 C 
HETATM    7  C   UNL     1      44.172 -29.923  -2.436  1.00  0.00    -0.011 A 
HETATM    8  C   UNL     1      44.297 -31.321  -2.388  1.00  0.00     0.009 A 
HETATM    9  C   UNL     1      43.962 -29.296  -3.675  1.00  0.00     0.011 A 
HETATM   10  C   UNL     1      44.284 -32.063  -3.571  1.00  0.00     0.019 A 
HETATM   11  S   UNL     1      44.532 -32.175  -0.843  1.00  0.00    -0.129 SA
HETATM   12  C   UNL     1      44.101 -31.428  -4.798  1.00  0.00     0.001 A 
HETATM   13  C   UNL     1      43.931 -30.047  -4.851  1.00  0.00     0.001 A 
HETATM   14  C   UNL     1      43.566 -31.141   0.305  1.00  0.00     0.082 C 
HETATM   15  C   UNL     1      43.274 -29.709  -0.141  1.00  0.00     0.048 C 
ENDBRANCH   3   6
ENDBRANCH   2   3
BRANCH   2  16
HETATM   16  C   UNL     1      47.699 -27.597  -0.281  1.00  0.00     0.135 C 
BRANCH  16  17
HETATM   17  C   UNL     1      47.659 -28.231   1.092  1.00  0.00     0.224 C 
HETATM   18  N   UNL     1      48.631 -29.189   1.270  1.00  0.00    -0.327 N 
HETATM   19  H   UNL     1      49.188 -29.453   0.466  1.00  0.00     0.169 HD
HETATM   20  O   UNL     1      46.781 -27.893   1.883  1.00  0.00    -0.273 OA
BRANCH  18  21
HETATM   21  C   UNL     1      48.898 -29.920   2.447  1.00  0.00     0.034 A 
HETATM   22  C   UNL     1      48.166 -31.096   2.651  1.00  0.00     0.032 A 
HETATM   23  C   UNL     1      48.387 -31.895   3.781  1.00  0.00     0.039 A 
HETATM   24  C   UNL     1      49.354 -31.532   4.714  1.00  0.00     0.068 A 
HETATM   25  C   UNL     1      50.084 -30.360   4.512  1.00  0.00     0.039 A 
HETATM   26  C   UNL     1      49.858 -29.556   3.388  1.00  0.00     0.032 A 
BRANCH  24  27
HETATM   27  O   UNL     1      49.682 -32.222   5.846  1.00  0.00    -0.356 OA
HETATM   28  C   UNL     1      48.624 -32.875   6.537  1.00  0.00     0.210 C 
ENDBRANCH  24  27
ENDBRANCH  18  21
ENDBRANCH  16  17
ENDBRANCH   2  16
TORSDOF 6
ENDMDL
MODEL 8
REMARK VINA RESULT:      -6.7     15.496     17.585
REMARK  6 active torsions:
REMARK  status: ('A' for Active; 'I' for Inactive)
REMARK    1  A    between atoms: C_2  and  N_3 
REMARK    2  A    between atoms: C_2  and  C_16 
REMARK    3  A    between atoms: N_3  and  C_6 
REMARK    4  A    between atoms: C_16  and  C_17 
REMARK       I    between atoms: C_17  and  N_18 
REMARK    5  A    between atoms: N_18  and  C_19 
REMARK    6  A    between atoms: C_22  and  O_23 
ROOT
HETATM    1  C   UNL     1      43.795 -31.675  -0.812  1.00  0.00     0.040 C 
HETATM    2  C   UNL     1      44.301 -30.271  -0.505  1.00  0.00     0.191 C 
ENDROOT
BRANCH   2   3
HETATM    3  N   UNL     1      44.002 -29.343  -1.657  1.00  0.00    -0.063 N 
HETATM    4  H   UNL     1      43.647 -29.951  -2.429  1.00  0.00     0.278 HD
HETATM    5  H   UNL     1      43.181 -28.786  -1.395  1.00  0.00     0.278 HD
BRANCH   3   6
HETATM    6  C   UNL     1      45.055 -28.433  -2.234  1.00  0.00     0.221 C 
HETATM    7  C   UNL     1      46.466 -28.873  -1.945  1.00  0.00    -0.011 A 
HETATM    8  C   UNL     1      46.987 -30.010  -2.586  1.00  0.00     0.009 A 
HETATM    9  C   UNL     1      47.279 -28.158  -1.051  1.00  0.00     0.011 A 
HETATM   10  C   UNL     1      48.274 -30.455  -2.277  1.00  0.00     0.019 A 
HETATM   11  S   UNL     1      46.016 -30.939  -3.754  1.00  0.00    -0.129 SA
HETATM   12  C   UNL     1      49.063 -29.752  -1.367  1.00  0.00     0.001 A 
HETATM   13  C   UNL     1      48.571 -28.599  -0.762  1.00  0.00     0.001 A 
HETATM   14  C   UNL     1      45.015 -29.629  -4.532  1.00  0.00     0.082 C 
HETATM   15  C   UNL     1      44.867 -28.325  -3.751  1.00  0.00     0.048 C 
ENDBRANCH   3   6
ENDBRANCH   2   3
BRANCH   2  16
HETATM   16  C   UNL     1      43.797 -29.753   0.848  1.00  0.00     0.135 C 
BRANCH  16  17
HETATM   17  C   UNL     1      44.786 -30.060   1.951  1.00  0.00     0.224 C 
HETATM   18  N   UNL     1      46.093 -29.859   1.570  1.00  0.00    -0.327 N 
HETATM   19  H   UNL     1      46.276 -29.643   0.597  1.00  0.00     0.169 HD
HETATM   20  O   UNL     1      44.372 -30.485   3.027  1.00  0.00    -0.273 OA
BRANCH  18  21
HETATM   21  C   UNL     1      47.243 -29.997   2.376  1.00  0.00     0.034 A 
HETATM   22  C   UNL     1      47.825 -28.823   2.871  1.00  0.00     0.032 A 
HETATM   23  C   UNL     1      48.954 -28.873   3.700  1.00  0.00     0.039 A 
HETATM   24  C   UNL     1      49.507 -30.101   4.053  1.00  0.00     0.068 A 
HETATM   25  C   UNL     1      48.929 -31.271   3.559  1.00  0.00     0.039 A 
HETATM   26  C   UNL     1      47.806 -31.223   2.724  1.00  0.00     0.032 A 
BRANCH  24  27
HETATM   27  O   UNL     1      50.591 -30.294   4.860  1.00  0.00    -0.356 OA
HETATM   28  C   UNL     1      51.118 -31.613   4.933  1.00  0.00     0.210 C 
ENDBRANCH  24  27
ENDBRANCH  18  21
ENDBRANCH  16  17
ENDBRANCH   2  16
TORSDOF 6
ENDMDL
MODEL 9
REMARK VINA RESULT:      -6.7      1.899      2.502
REMARK  6 active torsions:
REMARK  status: ('A' for Active; 'I' for Inactive)
REMARK    1  A    between atoms: C_2  and  N_3 
REMARK    2  A    between atoms: C_2  and  C_16 
REMARK    3  A    between atoms: N_3  and  C_6 
REMARK    4  A    between atoms: C_16  and  C_17 
REMARK       I    between atoms: C_17  and  N_18 
REMARK    5  A    between atoms: N_18  and  C_19 
REMARK    6  A    between atoms: C_22  and  O_23 
ROOT
HETATM    1  C   UNL     1      40.778 -12.475   5.541  1.00  0.00     0.040 C 
HETATM    2  C   UNL     1      42.296 -12.460   5.664  1.00  0.00     0.191 C 
ENDROOT
BRANCH   2   3
HETATM    3  N   UNL     1      42.851 -13.851   5.474  1.00  0.00    -0.063 N 
HETATM    4  H   UNL     1      43.393 -13.822   4.581  1.00  0.00     0.278 HD
HETATM    5  H   UNL     1      43.575 -13.990   6.188  1.00  0.00     0.278 HD
BRANCH   3   6
HETATM    6  C   UNL     1      41.956 -15.061   5.432  1.00  0.00     0.221 C 
HETATM    7  C   UNL     1      42.444 -16.149   4.512  1.00  0.00    -0.011 A 
HETATM    8  C   UNL     1      43.576 -16.903   4.862  1.00  0.00     0.009 A 
HETATM    9  C   UNL     1      41.776 -16.433   3.310  1.00  0.00     0.011 A 
HETATM   10  C   UNL     1      44.066 -17.872   3.984  1.00  0.00     0.019 A 
HETATM   11  S   UNL     1      44.445 -16.611   6.388  1.00  0.00    -0.129 SA
HETATM   12  C   UNL     1      43.411 -18.128   2.780  1.00  0.00     0.001 A 
HETATM   13  C   UNL     1      42.262 -17.416   2.447  1.00  0.00     0.001 A 
HETATM   14  C   UNL     1      43.087 -16.130   7.504  1.00  0.00     0.082 C 
HETATM   15  C   UNL     1      41.801 -15.636   6.845  1.00  0.00     0.048 C 
ENDBRANCH   3   6
ENDBRANCH   2   3
BRANCH   2  16
HETATM   16  C   UNL     1      42.944 -11.410   4.754  1.00  0.00     0.135 C 
BRANCH  16  17
HETATM   17  C   UNL     1      42.813 -11.797   3.297  1.00  0.00     0.224 C 
HETATM   18  N   UNL     1      41.878 -11.044   2.624  1.00  0.00    -0.327 N 
HETATM   19  H   UNL     1      41.306 -10.404   3.164  1.00  0.00     0.169 HD
HETATM   20  O   UNL     1      43.480 -12.732   2.863  1.00  0.00    -0.273 OA
BRANCH  18  21
HETATM   21  C   UNL     1      41.559 -11.114   1.252  1.00  0.00     0.034 A 
HETATM   22  C   UNL     1      41.716  -9.945   0.496  1.00  0.00     0.032 A 
HETATM   23  C   UNL     1      41.446  -9.934  -0.879  1.00  0.00     0.039 A 
HETATM   24  C   UNL     1      41.028 -11.098  -1.516  1.00  0.00     0.068 A 
HETATM   25  C   UNL     1      40.870 -12.263  -0.765  1.00  0.00     0.039 A 
HETATM   26  C   UNL     1      41.130 -12.274   0.611  1.00  0.00     0.032 A 
BRANCH  24  27
HETATM   27  O   UNL     1      40.746 -11.232  -2.846  1.00  0.00    -0.356 OA
HETATM   28  C   UNL     1      40.529 -10.038  -3.587  1.00  0.00     0.210 C 
ENDBRANCH  24  27
ENDBRANCH  18  21
ENDBRANCH  16  17
ENDBRANCH   2  16
TORSDOF 6
ENDMDL
MODEL 10
REMARK VINA RESULT:      -6.7      5.552      8.887
REMARK  6 active torsions:
REMARK  status: ('A' for Active; 'I' for Inactive)
REMARK    1  A    between atoms: C_2  and  N_3 
REMARK    2  A    between atoms: C_2  and  C_16 
REMARK    3  A    between atoms: N_3  and  C_6 
REMARK    4  A    between atoms: C_16  and  C_17 
REMARK       I    between atoms: C_17  and  N_18 
REMARK    5  A    between atoms: N_18  and  C_19 
REMARK    6  A    between atoms: C_22  and  O_23 
ROOT
HETATM    1  C   UNL     1      40.877  -8.113   7.158  1.00  0.00     0.040 C 
HETATM    2  C   UNL     1      41.889  -9.221   6.895  1.00  0.00     0.191 C 
ENDROOT
BRANCH   2   3
HETATM    3  N   UNL     1      42.819  -9.372   8.074  1.00  0.00    -0.063 N 
HETATM    4  H   UNL     1      42.233  -9.745   8.855  1.00  0.00     0.278 HD
HETATM    5  H   UNL     1      43.457 -10.148   7.862  1.00  0.00     0.278 HD
BRANCH   3   6
HETATM    6  C   UNL     1      43.614  -8.209   8.609  1.00  0.00     0.221 C 
HETATM    7  C   UNL     1      43.279  -7.844  10.032  1.00  0.00    -0.011 A 
HETATM    8  C   UNL     1      43.670  -8.694  11.080  1.00  0.00     0.009 A 
HETATM    9  C   UNL     1      42.589  -6.659  10.331  1.00  0.00     0.011 A 
HETATM   10  C   UNL     1      43.310  -8.389  12.395  1.00  0.00     0.019 A 
HETATM   11  S   UNL     1      44.576 -10.194  10.765  1.00  0.00    -0.129 SA
HETATM   12  C   UNL     1      42.602  -7.222  12.679  1.00  0.00     0.001 A 
HETATM   13  C   UNL     1      42.250  -6.353  11.650  1.00  0.00     0.001 A 
HETATM   14  C   UNL     1      45.591  -9.723   9.327  1.00  0.00     0.082 C 
HETATM   15  C   UNL     1      45.111  -8.522   8.514  1.00  0.00     0.048 C 
ENDBRANCH   3   6
ENDBRANCH   2   3
BRANCH   2  16
HETATM   16  C   UNL     1      41.219 -10.533   6.470  1.00  0.00     0.135 C 
BRANCH  16  17
HETATM   17  C   UNL     1      42.249 -11.558   6.049  1.00  0.00     0.224 C 
HETATM   18  N   UNL     1      41.832 -12.853   6.257  1.00  0.00    -0.327 N 
HETATM   19  H   UNL     1      40.961 -12.997   6.755  1.00  0.00     0.169 HD
HETATM   20  O   UNL     1      43.335 -11.177   5.620  1.00  0.00    -0.273 OA
BRANCH  18  21
HETATM   21  C   UNL     1      42.527 -14.034   5.921  1.00  0.00     0.034 A 
HETATM   22  C   UNL     1      43.259 -14.660   6.938  1.00  0.00     0.032 A 
HETATM   23  C   UNL     1      43.958 -15.850   6.696  1.00  0.00     0.039 A 
HETATM   24  C   UNL     1      43.921 -16.436   5.434  1.00  0.00     0.068 A 
HETATM   25  C   UNL     1      43.193 -15.813   4.419  1.00  0.00     0.039 A 
HETATM   26  C   UNL     1      42.501 -14.619   4.657  1.00  0.00     0.032 A 
BRANCH  24  27
HETATM   27  O   UNL     1      44.539 -17.597   5.065  1.00  0.00    -0.356 OA
HETATM   28  C   UNL     1      43.906 -18.378   4.060  1.00  0.00     0.210 C 
ENDBRANCH  24  27
ENDBRANCH  18  21
ENDBRANCH  16  17
ENDBRANCH   2  16
TORSDOF 6
ENDMDL
