MODEL 1
REMARK VINA RESULT:      -8.0      0.000      0.000
REMARK  4 active torsions:
REMARK  status: ('A' for Active; 'I' for Inactive)
REMARK    1  A    between atoms: C_8  and  N_9 
REMARK    2  A    between atoms: C_11  and  C_12 
REMARK    3  A    between atoms: C_13  and  O_14 
REMARK    4  A    between atoms: O_14  and  C_15 
ROOT
HETATM    1  C   UNL     1      43.922 -20.876   3.346  1.00  0.00     0.002 A 
HETATM    2  C   UNL     1      43.991 -20.425   4.669  1.00  0.00     0.034 A 
HETATM    3  C   UNL     1      43.866 -19.052   4.919  1.00  0.00     0.103 A 
HETATM    4  C   UNL     1      43.674 -18.176   3.854  1.00  0.00     0.083 A 
HETATM    5  N   UNL     1      43.573 -16.957   4.468  1.00  0.00    -0.151 N 
HETATM    6  C   UNL     1      43.756 -17.099   5.819  1.00  0.00     0.734 A 
HETATM    7  N   UNL     1      43.769 -16.051   6.673  1.00  0.00    -0.033 NA
HETATM    8  C   UNL     1      43.627 -14.864   6.205  1.00  0.00     0.193 A 
HETATM    9  N   UNL     1      43.434 -14.563   4.855  1.00  0.00    -0.338 N 
HETATM   10  C   UNL     1      43.365 -15.650   3.881  1.00  0.00     0.246 A 
HETATM   11  N   UNL     1      43.905 -18.373   6.111  1.00  0.00    -0.060 NA
HETATM   12  C   UNL     1      43.603 -18.602   2.524  1.00  0.00     0.033 A 
HETATM   13  C   UNL     1      43.731 -19.977   2.294  1.00  0.00     0.002 A 
HETATM   14  H   UNL     1      43.393 -13.604   4.534  1.00  0.00     0.164 HD
ENDROOT
BRANCH  10  15
HETATM   15  C   UNL     1      42.028 -15.510   3.167  1.00  0.00     0.020 A 
HETATM   16  C   UNL     1      40.849 -15.977   3.779  1.00  0.00     0.085 A 
HETATM   17  C   UNL     1      39.603 -15.840   3.159  1.00  0.00     0.039 A 
HETATM   18  C   UNL     1      39.522 -15.289   1.882  1.00  0.00     0.022 A 
HETATM   19  C   UNL     1      40.683 -14.873   1.236  1.00  0.00     0.011 A 
HETATM   20 BR   UNL     1      40.575 -14.137  -0.500  1.00  0.00    -0.051 Br
HETATM   21  C   UNL     1      41.926 -14.986   1.863  1.00  0.00     0.033 A 
BRANCH  16  22
HETATM   22  O   UNL     1      40.917 -16.517   5.036  1.00  0.00    -0.289 OA
BRANCH  22  23
HETATM   23  C   UNL     1      40.109 -15.780   5.953  1.00  0.00     0.505 C 
HETATM   24  F   UNL     1      40.533 -16.089   7.212  1.00  0.00    -0.184 F 
HETATM   25  F   UNL     1      40.398 -14.471   5.773  1.00  0.00    -0.184 F 
ENDBRANCH  22  23
ENDBRANCH  16  22
ENDBRANCH  10  15
BRANCH   8  26
HETATM   26  N   UNL     1      43.654 -13.762   6.980  1.00  0.00    -0.272 NA
HETATM   27  H   UNL     1      42.978 -13.070   6.666  1.00  0.00     0.127 HD
HETATM   28  H   UNL     1      44.558 -13.348   7.163  1.00  0.00     0.127 HD
ENDBRANCH   8  26
TORSDOF 4
ENDMDL
MODEL 2
REMARK VINA RESULT:      -7.9      3.654      5.078
REMARK  4 active torsions:
REMARK  status: ('A' for Active; 'I' for Inactive)
REMARK    1  A    between atoms: C_8  and  N_9 
REMARK    2  A    between atoms: C_11  and  C_12 
REMARK    3  A    between atoms: C_13  and  O_14 
REMARK    4  A    between atoms: O_14  and  C_15 
ROOT
HETATM    1  C   UNL     1      44.329 -18.466   4.035  1.00  0.00     0.002 A 
HETATM    2  C   UNL     1      43.408 -18.271   2.999  1.00  0.00     0.034 A 
HETATM    3  C   UNL     1      42.520 -17.190   3.082  1.00  0.00     0.103 A 
HETATM    4  C   UNL     1      42.577 -16.340   4.182  1.00  0.00     0.083 A 
HETATM    5  N   UNL     1      41.606 -15.414   3.911  1.00  0.00    -0.151 N 
HETATM    6  C   UNL     1      40.969 -15.737   2.740  1.00  0.00     0.734 A 
HETATM    7  N   UNL     1      39.923 -15.031   2.254  1.00  0.00    -0.033 NA
HETATM    8  C   UNL     1      39.485 -14.027   2.922  1.00  0.00     0.193 A 
HETATM    9  N   UNL     1      40.030 -13.580   4.129  1.00  0.00    -0.338 N 
HETATM   10  C   UNL     1      41.189 -14.268   4.690  1.00  0.00     0.246 A 
HETATM   11  N   UNL     1      41.536 -16.799   2.210  1.00  0.00    -0.060 NA
HETATM   12  C   UNL     1      43.486 -16.514   5.231  1.00  0.00     0.033 A 
HETATM   13  C   UNL     1      44.364 -17.600   5.131  1.00  0.00     0.002 A 
HETATM   14  H   UNL     1      39.602 -12.821   4.644  1.00  0.00     0.164 HD
ENDROOT
BRANCH  10  15
HETATM   15  C   UNL     1      42.278 -13.218   4.858  1.00  0.00     0.020 A 
HETATM   16  C   UNL     1      42.857 -12.614   3.726  1.00  0.00     0.085 A 
HETATM   17  C   UNL     1      43.842 -11.630   3.848  1.00  0.00     0.039 A 
HETATM   18  C   UNL     1      44.314 -11.276   5.110  1.00  0.00     0.022 A 
HETATM   19  C   UNL     1      43.795 -11.902   6.241  1.00  0.00     0.011 A 
HETATM   20 BR   UNL     1      44.443 -11.431   7.952  1.00  0.00    -0.051 Br
HETATM   21  C   UNL     1      42.794 -12.869   6.123  1.00  0.00     0.033 A 
BRANCH  16  22
HETATM   22  O   UNL     1      42.398 -12.953   2.479  1.00  0.00    -0.289 OA
BRANCH  22  23
HETATM   23  C   UNL     1      42.022 -11.791   1.742  1.00  0.00     0.505 C 
HETATM   24  F   UNL     1      41.426 -12.213   0.590  1.00  0.00    -0.184 F 
HETATM   25  F   UNL     1      41.056 -11.164   2.453  1.00  0.00    -0.184 F 
ENDBRANCH  22  23
ENDBRANCH  16  22
ENDBRANCH  10  15
BRANCH   8  26
HETATM   26  N   UNL     1      38.433 -13.284   2.525  1.00  0.00    -0.272 NA
HETATM   27  H   UNL     1      38.054 -13.620   1.642  1.00  0.00     0.127 HD
HETATM   28  H   UNL     1      38.550 -12.281   2.527  1.00  0.00     0.127 HD
ENDBRANCH   8  26
TORSDOF 4
ENDMDL
MODEL 3
REMARK VINA RESULT:      -7.7      3.785      5.382
REMARK  4 active torsions:
REMARK  status: ('A' for Active; 'I' for Inactive)
REMARK    1  A    between atoms: C_8  and  N_9 
REMARK    2  A    between atoms: C_11  and  C_12 
REMARK    3  A    between atoms: C_13  and  O_14 
REMARK    4  A    between atoms: O_14  and  C_15 
ROOT
HETATM    1  C   UNL     1      40.868 -14.991   1.218  1.00  0.00     0.002 A 
HETATM    2  C   UNL     1      40.662 -15.929   2.237  1.00  0.00     0.034 A 
HETATM    3  C   UNL     1      41.248 -15.702   3.489  1.00  0.00     0.103 A 
HETATM    4  C   UNL     1      42.013 -14.557   3.690  1.00  0.00     0.083 A 
HETATM    5  N   UNL     1      42.390 -14.660   5.002  1.00  0.00    -0.151 N 
HETATM    6  C   UNL     1      41.920 -15.835   5.530  1.00  0.00     0.734 A 
HETATM    7  N   UNL     1      42.191 -16.233   6.793  1.00  0.00    -0.033 NA
HETATM    8  C   UNL     1      42.937 -15.495   7.532  1.00  0.00     0.193 A 
HETATM    9  N   UNL     1      43.488 -14.275   7.133  1.00  0.00    -0.338 N 
HETATM   10  C   UNL     1      43.201 -13.763   5.796  1.00  0.00     0.246 A 
HETATM   11  N   UNL     1      41.199 -16.465   4.628  1.00  0.00    -0.060 NA
HETATM   12  C   UNL     1      42.236 -13.607   2.688  1.00  0.00     0.033 A 
HETATM   13  C   UNL     1      41.643 -13.851   1.444  1.00  0.00     0.002 A 
HETATM   14  H   UNL     1      44.123 -13.767   7.736  1.00  0.00     0.164 HD
ENDROOT
BRANCH  10  15
HETATM   15  C   UNL     1      42.581 -12.385   5.982  1.00  0.00     0.020 A 
HETATM   16  C   UNL     1      43.399 -11.275   6.265  1.00  0.00     0.085 A 
HETATM   17  C   UNL     1      42.862  -9.994   6.418  1.00  0.00     0.039 A 
HETATM   18  C   UNL     1      41.483  -9.809   6.352  1.00  0.00     0.022 A 
HETATM   19  C   UNL     1      40.651 -10.903   6.129  1.00  0.00     0.011 A 
HETATM   20 BR   UNL     1      38.780 -10.656   6.052  1.00  0.00    -0.051 Br
HETATM   21  C   UNL     1      41.187 -12.181   5.952  1.00  0.00     0.033 A 
BRANCH  16  22
HETATM   22  O   UNL     1      44.758 -11.444   6.329  1.00  0.00    -0.289 OA
BRANCH  22  23
HETATM   23  C   UNL     1      45.320 -10.668   7.386  1.00  0.00     0.505 C 
HETATM   24  F   UNL     1      44.947 -11.248   8.563  1.00  0.00    -0.184 F 
HETATM   25  F   UNL     1      46.664 -10.808   7.311  1.00  0.00    -0.184 F 
ENDBRANCH  22  23
ENDBRANCH  16  22
ENDBRANCH  10  15
BRANCH   8  26
HETATM   26  N   UNL     1      43.278 -15.827   8.793  1.00  0.00    -0.272 NA
HETATM   27  H   UNL     1      42.849 -16.705   9.075  1.00  0.00     0.127 HD
HETATM   28  H   UNL     1      43.176 -15.113   9.501  1.00  0.00     0.127 HD
ENDBRANCH   8  26
TORSDOF 4
ENDMDL
MODEL 4
REMARK VINA RESULT:      -7.7      2.783      3.534
REMARK  4 active torsions:
REMARK  status: ('A' for Active; 'I' for Inactive)
REMARK    1  A    between atoms: C_8  and  N_9 
REMARK    2  A    between atoms: C_11  and  C_12 
REMARK    3  A    between atoms: C_13  and  O_14 
REMARK    4  A    between atoms: O_14  and  C_15 
ROOT
HETATM    1  C   UNL     1      42.869 -17.185   2.193  1.00  0.00     0.002 A 
HETATM    2  C   UNL     1      42.880 -17.232   3.592  1.00  0.00     0.034 A 
HETATM    3  C   UNL     1      43.045 -16.037   4.304  1.00  0.00     0.103 A 
HETATM    4  C   UNL     1      43.189 -14.840   3.609  1.00  0.00     0.083 A 
HETATM    5  N   UNL     1      43.298 -13.911   4.609  1.00  0.00    -0.151 N 
HETATM    6  C   UNL     1      43.280 -14.536   5.829  1.00  0.00     0.734 A 
HETATM    7  N   UNL     1      43.431 -13.871   6.997  1.00  0.00    -0.033 NA
HETATM    8  C   UNL     1      43.623 -12.603   6.972  1.00  0.00     0.193 A 
HETATM    9  N   UNL     1      43.668 -11.832   5.808  1.00  0.00    -0.338 N 
HETATM   10  C   UNL     1      43.469 -12.477   4.513  1.00  0.00     0.246 A 
HETATM   11  N   UNL     1      43.096 -15.827   5.659  1.00  0.00    -0.060 NA
HETATM   12  C   UNL     1      43.183 -14.766   2.213  1.00  0.00     0.033 A 
HETATM   13  C   UNL     1      43.018 -15.971   1.518  1.00  0.00     0.002 A 
HETATM   14  H   UNL     1      43.888 -10.844   5.844  1.00  0.00     0.164 HD
ENDROOT
BRANCH  10  15
HETATM   15  C   UNL     1      42.296 -11.768   3.850  1.00  0.00     0.020 A 
HETATM   16  C   UNL     1      41.039 -11.740   4.485  1.00  0.00     0.085 A 
HETATM   17  C   UNL     1      39.949 -11.077   3.914  1.00  0.00     0.039 A 
HETATM   18  C   UNL     1      40.080 -10.482   2.661  1.00  0.00     0.022 A 
HETATM   19  C   UNL     1      41.299 -10.547   1.991  1.00  0.00     0.011 A 
HETATM   20 BR   UNL     1      41.474  -9.751   0.286  1.00  0.00    -0.051 Br
HETATM   21  C   UNL     1      42.396 -11.188   2.570  1.00  0.00     0.033 A 
BRANCH  16  22
HETATM   22  O   UNL     1      40.899 -12.319   5.719  1.00  0.00    -0.289 OA
BRANCH  22  23
HETATM   23  C   UNL     1      39.902 -13.340   5.694  1.00  0.00     0.505 C 
HETATM   24  F   UNL     1      40.156 -14.132   4.613  1.00  0.00    -0.184 F 
HETATM   25  F   UNL     1      40.104 -14.118   6.782  1.00  0.00    -0.184 F 
ENDBRANCH  22  23
ENDBRANCH  16  22
ENDBRANCH  10  15
BRANCH   8  26
HETATM   26  N   UNL     1      43.809 -11.867   8.086  1.00  0.00    -0.272 NA
HETATM   27  H   UNL     1      44.082 -12.449   8.874  1.00  0.00     0.127 HD
HETATM   28  H   UNL     1      43.079 -11.214   8.334  1.00  0.00     0.127 HD
ENDBRANCH   8  26
TORSDOF 4
ENDMDL
MODEL 5
REMARK VINA RESULT:      -7.6      3.589      4.982
REMARK  4 active torsions:
REMARK  status: ('A' for Active; 'I' for Inactive)
REMARK    1  A    between atoms: C_8  and  N_9 
REMARK    2  A    between atoms: C_11  and  C_12 
REMARK    3  A    between atoms: C_13  and  O_14 
REMARK    4  A    between atoms: O_14  and  C_15 
ROOT
HETATM    1  C   UNL     1      43.839 -16.923   7.091  1.00  0.00     0.002 A 
HETATM    2  C   UNL     1      43.930 -17.292   5.744  1.00  0.00     0.034 A 
HETATM    3  C   UNL     1      42.970 -16.805   4.846  1.00  0.00     0.103 A 
HETATM    4  C   UNL     1      41.959 -15.969   5.312  1.00  0.00     0.083 A 
HETATM    5  N   UNL     1      41.247 -15.682   4.179  1.00  0.00    -0.151 N 
HETATM    6  C   UNL     1      41.775 -16.361   3.111  1.00  0.00     0.734 A 
HETATM    7  N   UNL     1      41.237 -16.315   1.872  1.00  0.00    -0.033 NA
HETATM    8  C   UNL     1      40.171 -15.627   1.680  1.00  0.00     0.193 A 
HETATM    9  N   UNL     1      39.520 -14.885   2.669  1.00  0.00    -0.338 N 
HETATM   10  C   UNL     1      40.071 -14.854   4.021  1.00  0.00     0.246 A 
HETATM   11  N   UNL     1      42.843 -17.025   3.498  1.00  0.00    -0.060 NA
HETATM   12  C   UNL     1      41.845 -15.588   6.653  1.00  0.00     0.033 A 
HETATM   13  C   UNL     1      42.812 -16.086   7.534  1.00  0.00     0.002 A 
HETATM   14  H   UNL     1      38.646 -14.413   2.475  1.00  0.00     0.164 HD
ENDROOT
BRANCH  10  15
HETATM   15  C   UNL     1      40.309 -13.388   4.359  1.00  0.00     0.020 A 
HETATM   16  C   UNL     1      41.223 -12.630   3.603  1.00  0.00     0.085 A 
HETATM   17  C   UNL     1      41.446 -11.276   3.873  1.00  0.00     0.039 A 
HETATM   18  C   UNL     1      40.803 -10.671   4.951  1.00  0.00     0.022 A 
HETATM   19  C   UNL     1      39.938 -11.418   5.745  1.00  0.00     0.011 A 
HETATM   20 BR   UNL     1      39.075 -10.601   7.214  1.00  0.00    -0.051 Br
HETATM   21  C   UNL     1      39.695 -12.764   5.463  1.00  0.00     0.033 A 
BRANCH  16  22
HETATM   22  O   UNL     1      41.859 -13.215   2.539  1.00  0.00    -0.289 OA
BRANCH  22  23
HETATM   23  C   UNL     1      43.276 -13.140   2.688  1.00  0.00     0.505 C 
HETATM   24  F   UNL     1      43.573 -13.507   3.968  1.00  0.00    -0.184 F 
HETATM   25  F   UNL     1      43.810 -14.096   1.893  1.00  0.00    -0.184 F 
ENDBRANCH  22  23
ENDBRANCH  16  22
ENDBRANCH  10  15
BRANCH   8  26
HETATM   26  N   UNL     1      39.555 -15.547   0.485  1.00  0.00    -0.272 NA
HETATM   27  H   UNL     1      38.589 -15.862   0.543  1.00  0.00     0.127 HD
HETATM   28  H   UNL     1      40.034 -15.949  -0.309  1.00  0.00     0.127 HD
ENDBRANCH   8  26
TORSDOF 4
ENDMDL
MODEL 6
REMARK VINA RESULT:      -7.5      3.952      5.838
REMARK  4 active torsions:
REMARK  status: ('A' for Active; 'I' for Inactive)
REMARK    1  A    between atoms: C_8  and  N_9 
REMARK    2  A    between atoms: C_11  and  C_12 
REMARK    3  A    between atoms: C_13  and  O_14 
REMARK    4  A    between atoms: O_14  and  C_15 
ROOT
HETATM    1  C   UNL     1      40.158 -14.954   0.512  1.00  0.00     0.002 A 
HETATM    2  C   UNL     1      39.996 -13.607   0.855  1.00  0.00     0.034 A 
HETATM    3  C   UNL     1      40.008 -13.250   2.210  1.00  0.00     0.103 A 
HETATM    4  C   UNL     1      40.182 -14.237   3.176  1.00  0.00     0.083 A 
HETATM    5  N   UNL     1      40.164 -13.532   4.349  1.00  0.00    -0.151 N 
HETATM    6  C   UNL     1      39.932 -12.205   4.090  1.00  0.00     0.734 A 
HETATM    7  N   UNL     1      39.803 -11.278   5.066  1.00  0.00    -0.033 NA
HETATM    8  C   UNL     1      39.877 -11.650   6.292  1.00  0.00     0.193 A 
HETATM    9  N   UNL     1      40.108 -12.963   6.709  1.00  0.00    -0.338 N 
HETATM   10  C   UNL     1      40.300 -14.009   5.708  1.00  0.00     0.246 A 
HETATM   11  N   UNL     1      39.865 -12.016   2.791  1.00  0.00    -0.060 NA
HETATM   12  C   UNL     1      40.343 -15.590   2.860  1.00  0.00     0.033 A 
HETATM   13  C   UNL     1      40.327 -15.926   1.501  1.00  0.00     0.002 A 
HETATM   14  H   UNL     1      40.092 -13.210   7.691  1.00  0.00     0.164 HD
ENDROOT
BRANCH  10  15
HETATM   15  C   UNL     1      41.654 -14.643   5.997  1.00  0.00     0.020 A 
HETATM   16  C   UNL     1      42.813 -13.844   6.040  1.00  0.00     0.085 A 
HETATM   17  C   UNL     1      44.066 -14.392   6.326  1.00  0.00     0.039 A 
HETATM   18  C   UNL     1      44.194 -15.767   6.513  1.00  0.00     0.022 A 
HETATM   19  C   UNL     1      43.069 -16.583   6.419  1.00  0.00     0.011 A 
HETATM   20 BR   UNL     1      43.243 -18.448   6.660  1.00  0.00    -0.051 Br
HETATM   21  C   UNL     1      41.812 -16.034   6.156  1.00  0.00     0.033 A 
BRANCH  16  22
HETATM   22  O   UNL     1      42.699 -12.490   5.861  1.00  0.00    -0.289 OA
BRANCH  22  23
HETATM   23  C   UNL     1      43.527 -12.045   4.787  1.00  0.00     0.505 C 
HETATM   24  F   UNL     1      43.194 -12.776   3.684  1.00  0.00    -0.184 F 
HETATM   25  F   UNL     1      43.169 -10.770   4.511  1.00  0.00    -0.184 F 
ENDBRANCH  22  23
ENDBRANCH  16  22
ENDBRANCH  10  15
BRANCH   8  26
HETATM   26  N   UNL     1      39.734 -10.798   7.327  1.00  0.00    -0.272 NA
HETATM   27  H   UNL     1      40.288 -11.091   8.129  1.00  0.00     0.127 HD
HETATM   28  H   UNL     1      38.791 -10.549   7.592  1.00  0.00     0.127 HD
ENDBRANCH   8  26
TORSDOF 4
ENDMDL
MODEL 7
REMARK VINA RESULT:      -7.4     13.495     15.302
REMARK  4 active torsions:
REMARK  status: ('A' for Active; 'I' for Inactive)
REMARK    1  A    between atoms: C_8  and  N_9 
REMARK    2  A    between atoms: C_11  and  C_12 
REMARK    3  A    between atoms: C_13  and  O_14 
REMARK    4  A    between atoms: O_14  and  C_15 
ROOT
HETATM    1  C   UNL     1      51.135 -30.769  -0.737  1.00  0.00     0.002 A 
HETATM    2  C   UNL     1      50.723 -30.665   0.597  1.00  0.00     0.034 A 
HETATM    3  C   UNL     1      49.411 -30.252   0.865  1.00  0.00     0.103 A 
HETATM    4  C   UNL     1      48.554 -29.962  -0.192  1.00  0.00     0.083 A 
HETATM    5  N   UNL     1      47.385 -29.627   0.436  1.00  0.00    -0.151 N 
HETATM    6  C   UNL     1      47.562 -29.662   1.796  1.00  0.00     0.734 A 
HETATM    7  N   UNL     1      46.591 -29.318   2.672  1.00  0.00    -0.033 NA
HETATM    8  C   UNL     1      45.457 -28.919   2.220  1.00  0.00     0.193 A 
HETATM    9  N   UNL     1      45.132 -28.830   0.865  1.00  0.00    -0.338 N 
HETATM   10  C   UNL     1      46.118 -29.227  -0.136  1.00  0.00     0.246 A 
HETATM   11  N   UNL     1      48.781 -30.070   2.070  1.00  0.00    -0.060 NA
HETATM   12  C   UNL     1      48.943 -30.055  -1.533  1.00  0.00     0.033 A 
HETATM   13  C   UNL     1      50.257 -30.468  -1.781  1.00  0.00     0.002 A 
HETATM   14  H   UNL     1      44.244 -28.447   0.566  1.00  0.00     0.164 HD
ENDROOT
BRANCH  10  15
HETATM   15  C   UNL     1      45.465 -30.311  -0.984  1.00  0.00     0.020 A 
HETATM   16  C   UNL     1      45.382 -30.159  -2.381  1.00  0.00     0.085 A 
HETATM   17  C   UNL     1      44.811 -31.147  -3.189  1.00  0.00     0.039 A 
HETATM   18  C   UNL     1      44.251 -32.280  -2.604  1.00  0.00     0.022 A 
HETATM   19  C   UNL     1      44.272 -32.424  -1.219  1.00  0.00     0.011 A 
HETATM   20 BR   UNL     1      43.503 -33.955  -0.424  1.00  0.00    -0.051 Br
HETATM   21  C   UNL     1      44.864 -31.450  -0.412  1.00  0.00     0.033 A 
BRANCH  16  22
HETATM   22  O   UNL     1      45.932 -29.049  -2.968  1.00  0.00    -0.289 OA
BRANCH  22  23
HETATM   23  C   UNL     1      44.922 -28.107  -3.323  1.00  0.00     0.505 C 
HETATM   24  F   UNL     1      44.698 -27.315  -2.235  1.00  0.00    -0.184 F 
HETATM   25  F   UNL     1      45.450 -27.297  -4.270  1.00  0.00    -0.184 F 
ENDBRANCH  22  23
ENDBRANCH  16  22
ENDBRANCH  10  15
BRANCH   8  26
HETATM   26  N   UNL     1      44.444 -28.533   3.021  1.00  0.00    -0.272 NA
HETATM   27  H   UNL     1      43.860 -27.833   2.570  1.00  0.00     0.127 HD
HETATM   28  H   UNL     1      44.678 -28.274   3.969  1.00  0.00     0.127 HD
ENDBRANCH   8  26
TORSDOF 4
ENDMDL
MODEL 8
REMARK VINA RESULT:      -7.3      9.589     11.922
REMARK  4 active torsions:
REMARK  status: ('A' for Active; 'I' for Inactive)
REMARK    1  A    between atoms: C_8  and  N_9 
REMARK    2  A    between atoms: C_11  and  C_12 
REMARK    3  A    between atoms: C_13  and  O_14 
REMARK    4  A    between atoms: O_14  and  C_15 
ROOT
HETATM    1  C   UNL     1      42.203  -3.836  11.592  1.00  0.00     0.002 A 
HETATM    2  C   UNL     1      41.110  -4.517  12.138  1.00  0.00     0.034 A 
HETATM    3  C   UNL     1      40.794  -5.790  11.644  1.00  0.00     0.103 A 
HETATM    4  C   UNL     1      41.573  -6.344  10.632  1.00  0.00     0.083 A 
HETATM    5  N   UNL     1      40.997  -7.570  10.431  1.00  0.00    -0.151 N 
HETATM    6  C   UNL     1      39.899  -7.706  11.241  1.00  0.00     0.734 A 
HETATM    7  N   UNL     1      39.097  -8.794  11.214  1.00  0.00    -0.033 NA
HETATM    8  C   UNL     1      39.353  -9.736  10.381  1.00  0.00     0.193 A 
HETATM    9  N   UNL     1      40.432  -9.737   9.494  1.00  0.00    -0.338 N 
HETATM   10  C   UNL     1      41.365  -8.614   9.499  1.00  0.00     0.246 A 
HETATM   11  N   UNL     1      39.782  -6.643  12.006  1.00  0.00    -0.060 NA
HETATM   12  C   UNL     1      42.669  -5.683  10.068  1.00  0.00     0.033 A 
HETATM   13  C   UNL     1      42.968  -4.412  10.574  1.00  0.00     0.002 A 
HETATM   14  H   UNL     1      40.548 -10.478   8.814  1.00  0.00     0.164 HD
ENDROOT
BRANCH  10  15
HETATM   15  C   UNL     1      42.748  -9.198   9.756  1.00  0.00     0.020 A 
HETATM   16  C   UNL     1      43.013  -9.880  10.960  1.00  0.00     0.085 A 
HETATM   17  C   UNL     1      44.265 -10.448  11.214  1.00  0.00     0.039 A 
HETATM   18  C   UNL     1      45.297 -10.289  10.293  1.00  0.00     0.022 A 
HETATM   19  C   UNL     1      45.072  -9.570   9.122  1.00  0.00     0.011 A 
HETATM   20 BR   UNL     1      46.475  -9.344   7.878  1.00  0.00    -0.051 Br
HETATM   21  C   UNL     1      43.816  -9.022   8.854  1.00  0.00     0.033 A 
BRANCH  16  22
HETATM   22  O   UNL     1      42.004 -10.045  11.872  1.00  0.00    -0.289 OA
BRANCH  22  23
HETATM   23  C   UNL     1      42.388  -9.549  13.154  1.00  0.00     0.505 C 
HETATM   24  F   UNL     1      42.863  -8.282  12.977  1.00  0.00    -0.184 F 
HETATM   25  F   UNL     1      41.258  -9.425  13.887  1.00  0.00    -0.184 F 
ENDBRANCH  22  23
ENDBRANCH  16  22
ENDBRANCH  10  15
BRANCH   8  26
HETATM   26  N   UNL     1      38.591 -10.843  10.268  1.00  0.00    -0.272 NA
HETATM   27  H   UNL     1      38.106 -10.871   9.374  1.00  0.00     0.127 HD
HETATM   28  H   UNL     1      37.974 -11.057  11.039  1.00  0.00     0.127 HD
ENDBRANCH   8  26
TORSDOF 4
ENDMDL
MODEL 9
REMARK VINA RESULT:      -7.2      3.625      4.992
REMARK  4 active torsions:
REMARK  status: ('A' for Active; 'I' for Inactive)
REMARK    1  A    between atoms: C_8  and  N_9 
REMARK    2  A    between atoms: C_11  and  C_12 
REMARK    3  A    between atoms: C_13  and  O_14 
REMARK    4  A    between atoms: O_14  and  C_15 
ROOT
HETATM    1  C   UNL     1      43.587 -18.031   6.195  1.00  0.00     0.002 A 
HETATM    2  C   UNL     1      43.869 -17.907   4.830  1.00  0.00     0.034 A 
HETATM    3  C   UNL     1      43.292 -16.848   4.116  1.00  0.00     0.103 A 
HETATM    4  C   UNL     1      42.462 -15.949   4.779  1.00  0.00     0.083 A 
HETATM    5  N   UNL     1      42.115 -15.062   3.795  1.00  0.00    -0.151 N 
HETATM    6  C   UNL     1      42.665 -15.453   2.601  1.00  0.00     0.734 A 
HETATM    7  N   UNL     1      42.442 -14.798   1.440  1.00  0.00    -0.033 NA
HETATM    8  C   UNL     1      41.664 -13.777   1.440  1.00  0.00     0.193 A 
HETATM    9  N   UNL     1      41.033 -13.263   2.575  1.00  0.00    -0.338 N 
HETATM   10  C   UNL     1      41.264 -13.895   3.872  1.00  0.00     0.246 A 
HETATM   11  N   UNL     1      43.408 -16.522   2.789  1.00  0.00    -0.060 NA
HETATM   12  C   UNL     1      42.163 -16.052   6.141  1.00  0.00     0.033 A 
HETATM   13  C   UNL     1      42.748 -17.117   6.836  1.00  0.00     0.002 A 
HETATM   14  H   UNL     1      40.379 -12.494   2.505  1.00  0.00     0.164 HD
ENDROOT
BRANCH  10  15
HETATM   15  C   UNL     1      41.801 -12.810   4.794  1.00  0.00     0.020 A 
HETATM   16  C   UNL     1      40.923 -11.867   5.362  1.00  0.00     0.085 A 
HETATM   17  C   UNL     1      41.382 -10.874   6.232  1.00  0.00     0.039 A 
HETATM   18  C   UNL     1      42.745 -10.765   6.500  1.00  0.00     0.022 A 
HETATM   19  C   UNL     1      43.638 -11.652   5.904  1.00  0.00     0.011 A 
HETATM   20 BR   UNL     1      45.487 -11.498   6.257  1.00  0.00    -0.051 Br
HETATM   21  C   UNL     1      43.179 -12.661   5.053  1.00  0.00     0.033 A 
BRANCH  16  22
HETATM   22  O   UNL     1      39.580 -11.967   5.108  1.00  0.00    -0.289 OA
BRANCH  22  23
HETATM   23  C   UNL     1      39.032 -10.697   4.754  1.00  0.00     0.505 C 
HETATM   24  F   UNL     1      38.455 -10.829   3.525  1.00  0.00    -0.184 F 
HETATM   25  F   UNL     1      38.020 -10.447   5.616  1.00  0.00    -0.184 F 
ENDBRANCH  22  23
ENDBRANCH  16  22
ENDBRANCH  10  15
BRANCH   8  26
HETATM   26  N   UNL     1      41.367 -13.081   0.325  1.00  0.00    -0.272 NA
HETATM   27  H   UNL     1      41.929 -12.237   0.252  1.00  0.00     0.127 HD
HETATM   28  H   UNL     1      40.390 -12.899   0.142  1.00  0.00     0.127 HD
ENDBRANCH   8  26
TORSDOF 4
ENDMDL
MODEL 10
REMARK VINA RESULT:      -7.1      9.159     11.963
REMARK  4 active torsions:
REMARK  status: ('A' for Active; 'I' for Inactive)
REMARK    1  A    between atoms: C_8  and  N_9 
REMARK    2  A    between atoms: C_11  and  C_12 
REMARK    3  A    between atoms: C_13  and  O_14 
REMARK    4  A    between atoms: O_14  and  C_15 
ROOT
HETATM    1  C   UNL     1      41.688  -4.380  13.122  1.00  0.00     0.002 A 
HETATM    2  C   UNL     1      41.571  -5.385  14.089  1.00  0.00     0.034 A 
HETATM    3  C   UNL     1      41.112  -6.649  13.695  1.00  0.00     0.103 A 
HETATM    4  C   UNL     1      40.788  -6.874  12.360  1.00  0.00     0.083 A 
HETATM    5  N   UNL     1      40.413  -8.190  12.348  1.00  0.00    -0.151 N 
HETATM    6  C   UNL     1      40.456  -8.698  13.621  1.00  0.00     0.734 A 
HETATM    7  N   UNL     1      40.079  -9.961  13.921  1.00  0.00    -0.033 NA
HETATM    8  C   UNL     1      39.639 -10.719  12.984  1.00  0.00     0.193 A 
HETATM    9  N   UNL     1      39.536 -10.342  11.643  1.00  0.00    -0.338 N 
HETATM   10  C   UNL     1      39.967  -9.006  11.240  1.00  0.00     0.246 A 
HETATM   11  N   UNL     1      40.908  -7.779  14.446  1.00  0.00    -0.060 NA
HETATM   12  C   UNL     1      40.894  -5.886  11.376  1.00  0.00     0.033 A 
HETATM   13  C   UNL     1      41.354  -4.630  11.789  1.00  0.00     0.002 A 
HETATM   14  H   UNL     1      39.121 -10.960  10.958  1.00  0.00     0.164 HD
ENDROOT
BRANCH  10  15
HETATM   15  C   UNL     1      41.025  -9.198  10.162  1.00  0.00     0.020 A 
HETATM   16  C   UNL     1      40.654  -9.211   8.803  1.00  0.00     0.085 A 
HETATM   17  C   UNL     1      41.604  -9.360   7.789  1.00  0.00     0.039 A 
HETATM   18  C   UNL     1      42.942  -9.565   8.120  1.00  0.00     0.022 A 
HETATM   19  C   UNL     1      43.322  -9.612   9.459  1.00  0.00     0.011 A 
HETATM   20 BR   UNL     1      45.134  -9.902   9.908  1.00  0.00    -0.051 Br
HETATM   21  C   UNL     1      42.378  -9.439  10.473  1.00  0.00     0.033 A 
BRANCH  16  22
HETATM   22  O   UNL     1      39.341  -9.007   8.467  1.00  0.00    -0.289 OA
BRANCH  22  23
HETATM   23  C   UNL     1      39.162  -7.729   7.859  1.00  0.00     0.505 C 
HETATM   24  F   UNL     1      38.577  -7.932   6.643  1.00  0.00    -0.184 F 
HETATM   25  F   UNL     1      38.253  -7.059   8.603  1.00  0.00    -0.184 F 
ENDBRANCH  22  23
ENDBRANCH  16  22
ENDBRANCH  10  15
BRANCH   8  26
HETATM   26  N   UNL     1      39.218 -11.982  13.199  1.00  0.00    -0.272 NA
HETATM   27  H   UNL     1      38.345 -11.999  13.720  1.00  0.00     0.127 HD
HETATM   28  H   UNL     1      39.892 -12.635  13.574  1.00  0.00     0.127 HD
ENDBRANCH   8  26
TORSDOF 4
ENDMDL
