MODEL 1
REMARK VINA RESULT:      -7.8      0.000      0.000
REMARK  7 active torsions:
REMARK  status: ('A' for Active; 'I' for Inactive)
REMARK    1  A    between atoms: C_8  and  C_9 
REMARK    2  A    between atoms: C_9  and  C_10 
REMARK    3  A    between atoms: C_10  and  C_11 
REMARK       I    between atoms: C_11  and  N_12 
REMARK    4  A    between atoms: N_12  and  C_13 
REMARK    5  A    between atoms: C_13  and  C_14 
REMARK    6  A    between atoms: C_14  and  N_15 
REMARK    7  A    between atoms: C_14  and  C_19 
ROOT
HETATM    1  C   UNL     1      41.198 -13.650   1.376  1.00  0.00     0.217 C 
HETATM    2  N   UNL     1      41.885 -14.819   1.167  1.00  0.00    -0.359 N 
HETATM    3  O   UNL     1      41.734 -12.681   1.910  1.00  0.00    -0.274 OA
HETATM    4  H   UNL     1      41.354 -15.616   0.825  1.00  0.00     0.162 HD
ENDROOT
BRANCH   2   5
HETATM    5  C   UNL     1      43.207 -15.096   1.737  1.00  0.00     0.160 C 
BRANCH   5   6
HETATM    6  C   UNL     1      43.231 -15.644   3.212  1.00  0.00     0.239 C 
BRANCH   6   7
HETATM    7  N   UNL     1      42.006 -15.167   4.005  1.00  0.00    -0.069 N 
HETATM    8  H   UNL     1      41.473 -14.582   3.327  1.00  0.00     0.279 HD
HETATM    9  C   UNL     1      41.024 -16.208   4.438  1.00  0.00     0.270 C 
HETATM   10  C   UNL     1      42.344 -14.228   5.123  1.00  0.00     0.270 C 
ENDBRANCH   6   7
BRANCH   6  11
HETATM   11  C   UNL     1      43.450 -17.151   3.270  1.00  0.00    -0.004 A 
HETATM   12  C   UNL     1      44.039 -17.779   4.386  1.00  0.00     0.042 A 
HETATM   13 CL   UNL     1      44.580 -16.894   5.767  1.00  0.00    -0.084 Cl
HETATM   14  C   UNL     1      44.215 -19.167   4.421  1.00  0.00     0.024 A 
HETATM   15  C   UNL     1      43.813 -19.955   3.346  1.00  0.00     0.002 A 
HETATM   16  C   UNL     1      43.236 -19.358   2.231  1.00  0.00     0.001 A 
HETATM   17  C   UNL     1      43.058 -17.973   2.191  1.00  0.00     0.011 A 
ENDBRANCH   6  11
ENDBRANCH   5   6
ENDBRANCH   2   5
BRANCH   1  18
HETATM   18  C   UNL     1      39.760 -13.647   0.924  1.00  0.00     0.107 C 
BRANCH  18  19
HETATM   19  C   UNL     1      39.521 -12.476  -0.020  1.00  0.00     0.052 C 
BRANCH  19  20
HETATM   20  C   UNL     1      40.204 -12.662  -1.330  1.00  0.00    -0.008 A 
HETATM   21  C   UNL     1      41.159 -11.856  -1.921  1.00  0.00     0.032 A 
HETATM   22  C   UNL     1      41.809 -10.599  -1.484  1.00  0.00     0.070 C 
HETATM   23  N   UNL     1      41.469 -12.454  -3.112  1.00  0.00    -0.282 N 
HETATM   24  H   UNL     1      42.137 -12.152  -3.815  1.00  0.00     0.189 HD
HETATM   25  N   UNL     1      40.779 -13.577  -3.343  1.00  0.00    -0.179 NA
HETATM   26  C   UNL     1      40.012 -13.725  -2.260  1.00  0.00     0.059 A 
HETATM   27  C   UNL     1      39.099 -14.890  -2.152  1.00  0.00     0.073 C 
ENDBRANCH  19  20
ENDBRANCH  18  19
ENDBRANCH   1  18
TORSDOF 7
ENDMDL
MODEL 2
REMARK VINA RESULT:      -7.5      1.553      2.268
REMARK  7 active torsions:
REMARK  status: ('A' for Active; 'I' for Inactive)
REMARK    1  A    between atoms: C_8  and  C_9 
REMARK    2  A    between atoms: C_9  and  C_10 
REMARK    3  A    between atoms: C_10  and  C_11 
REMARK       I    between atoms: C_11  and  N_12 
REMARK    4  A    between atoms: N_12  and  C_13 
REMARK    5  A    between atoms: C_13  and  C_14 
REMARK    6  A    between atoms: C_14  and  N_15 
REMARK    7  A    between atoms: C_14  and  C_19 
ROOT
HETATM    1  C   UNL     1      40.946 -14.284   0.837  1.00  0.00     0.217 C 
HETATM    2  N   UNL     1      42.273 -14.282   1.187  1.00  0.00    -0.359 N 
HETATM    3  O   UNL     1      40.266 -15.306   0.915  1.00  0.00    -0.274 OA
HETATM    4  H   UNL     1      42.803 -13.436   0.993  1.00  0.00     0.162 HD
ENDROOT
BRANCH   2   5
HETATM    5  C   UNL     1      43.039 -15.499   1.469  1.00  0.00     0.160 C 
BRANCH   5   6
HETATM    6  C   UNL     1      43.137 -15.928   2.980  1.00  0.00     0.239 C 
BRANCH   6   7
HETATM    7  N   UNL     1      41.937 -15.411   3.786  1.00  0.00    -0.069 N 
HETATM    8  H   UNL     1      41.373 -14.876   3.093  1.00  0.00     0.279 HD
HETATM    9  C   UNL     1      40.983 -16.431   4.322  1.00  0.00     0.270 C 
HETATM   10  C   UNL     1      42.304 -14.398   4.828  1.00  0.00     0.270 C 
ENDBRANCH   6   7
BRANCH   6  11
HETATM   11  C   UNL     1      43.391 -17.421   3.147  1.00  0.00    -0.004 A 
HETATM   12  C   UNL     1      44.033 -17.948   4.285  1.00  0.00     0.042 A 
HETATM   13 CL   UNL     1      44.604 -16.947   5.573  1.00  0.00    -0.084 Cl
HETATM   14  C   UNL     1      44.240 -19.326   4.422  1.00  0.00     0.024 A 
HETATM   15  C   UNL     1      43.817 -20.203   3.427  1.00  0.00     0.002 A 
HETATM   16  C   UNL     1      43.188 -19.706   2.291  1.00  0.00     0.001 A 
HETATM   17  C   UNL     1      42.979 -18.332   2.150  1.00  0.00     0.011 A 
ENDBRANCH   6  11
ENDBRANCH   5   6
ENDBRANCH   2   5
BRANCH   1  18
HETATM   18  C   UNL     1      40.398 -12.970   0.343  1.00  0.00     0.107 C 
BRANCH  18  19
HETATM   19  C   UNL     1      40.529 -12.896  -1.173  1.00  0.00     0.052 C 
BRANCH  19  20
HETATM   20  C   UNL     1      39.205 -12.773  -1.846  1.00  0.00    -0.008 A 
HETATM   21  C   UNL     1      38.480 -13.754  -2.496  1.00  0.00     0.032 A 
HETATM   22  C   UNL     1      38.742 -15.192  -2.735  1.00  0.00     0.070 C 
HETATM   23  N   UNL     1      37.339 -13.143  -2.940  1.00  0.00    -0.282 N 
HETATM   24  H   UNL     1      36.564 -13.552  -3.455  1.00  0.00     0.189 HD
HETATM   25  N   UNL     1      37.276 -11.841  -2.638  1.00  0.00    -0.179 NA
HETATM   26  C   UNL     1      38.401 -11.603  -1.960  1.00  0.00     0.059 A 
HETATM   27  C   UNL     1      38.680 -10.239  -1.444  1.00  0.00     0.073 C 
ENDBRANCH  19  20
ENDBRANCH  18  19
ENDBRANCH   1  18
TORSDOF 7
ENDMDL
MODEL 3
REMARK VINA RESULT:      -7.5      3.298      6.461
REMARK  7 active torsions:
REMARK  status: ('A' for Active; 'I' for Inactive)
REMARK    1  A    between atoms: C_8  and  C_9 
REMARK    2  A    between atoms: C_9  and  C_10 
REMARK    3  A    between atoms: C_10  and  C_11 
REMARK       I    between atoms: C_11  and  N_12 
REMARK    4  A    between atoms: N_12  and  C_13 
REMARK    5  A    between atoms: C_13  and  C_14 
REMARK    6  A    between atoms: C_14  and  N_15 
REMARK    7  A    between atoms: C_14  and  C_19 
ROOT
HETATM    1  C   UNL     1      41.815 -15.421   2.167  1.00  0.00     0.217 C 
HETATM    2  N   UNL     1      42.803 -14.691   2.778  1.00  0.00    -0.359 N 
HETATM    3  O   UNL     1      40.845 -14.873   1.648  1.00  0.00    -0.274 OA
HETATM    4  H   UNL     1      43.518 -15.208   3.284  1.00  0.00     0.162 HD
ENDROOT
BRANCH   2   5
HETATM    5  C   UNL     1      42.697 -13.256   3.056  1.00  0.00     0.160 C 
BRANCH   5   6
HETATM    6  C   UNL     1      41.884 -12.852   4.342  1.00  0.00     0.239 C 
BRANCH   6   7
HETATM    7  N   UNL     1      40.422 -12.532   4.000  1.00  0.00    -0.069 N 
HETATM    8  H   UNL     1      39.995 -13.460   3.799  1.00  0.00     0.279 HD
HETATM    9  C   UNL     1      39.572 -11.970   5.095  1.00  0.00     0.270 C 
HETATM   10  C   UNL     1      40.259 -11.762   2.725  1.00  0.00     0.270 C 
ENDBRANCH   6   7
BRANCH   6  11
HETATM   11  C   UNL     1      42.042 -13.862   5.473  1.00  0.00    -0.004 A 
HETATM   12  C   UNL     1      43.079 -13.764   6.423  1.00  0.00     0.042 A 
HETATM   13 CL   UNL     1      44.265 -12.509   6.372  1.00  0.00    -0.084 Cl
HETATM   14  C   UNL     1      43.193 -14.695   7.462  1.00  0.00     0.024 A 
HETATM   15  C   UNL     1      42.282 -15.743   7.571  1.00  0.00     0.002 A 
HETATM   16  C   UNL     1      41.256 -15.864   6.642  1.00  0.00     0.001 A 
HETATM   17  C   UNL     1      41.137 -14.937   5.603  1.00  0.00     0.011 A 
ENDBRANCH   6  11
ENDBRANCH   5   6
ENDBRANCH   2   5
BRANCH   1  18
HETATM   18  C   UNL     1      41.996 -16.917   2.194  1.00  0.00     0.107 C 
BRANCH  18  19
HETATM   19  C   UNL     1      43.481 -17.254   2.224  1.00  0.00     0.052 C 
BRANCH  19  20
HETATM   20  C   UNL     1      43.773 -18.428   3.094  1.00  0.00    -0.008 A 
HETATM   21  C   UNL     1      43.682 -19.771   2.781  1.00  0.00     0.032 A 
HETATM   22  C   UNL     1      43.289 -20.479   1.540  1.00  0.00     0.070 C 
HETATM   23  N   UNL     1      44.055 -20.445   3.911  1.00  0.00    -0.282 N 
HETATM   24  H   UNL     1      44.117 -21.449   4.055  1.00  0.00     0.189 HD
HETATM   25  N   UNL     1      44.369 -19.643   4.935  1.00  0.00    -0.179 NA
HETATM   26  C   UNL     1      44.215 -18.409   4.449  1.00  0.00     0.059 A 
HETATM   27  C   UNL     1      44.488 -17.233   5.313  1.00  0.00     0.073 C 
ENDBRANCH  19  20
ENDBRANCH  18  19
ENDBRANCH   1  18
TORSDOF 7
ENDMDL
MODEL 4
REMARK VINA RESULT:      -7.3      2.724      7.379
REMARK  7 active torsions:
REMARK  status: ('A' for Active; 'I' for Inactive)
REMARK    1  A    between atoms: C_8  and  C_9 
REMARK    2  A    between atoms: C_9  and  C_10 
REMARK    3  A    between atoms: C_10  and  C_11 
REMARK       I    between atoms: C_11  and  N_12 
REMARK    4  A    between atoms: N_12  and  C_13 
REMARK    5  A    between atoms: C_13  and  C_14 
REMARK    6  A    between atoms: C_14  and  N_15 
REMARK    7  A    between atoms: C_14  and  C_19 
ROOT
HETATM    1  C   UNL     1      42.778 -14.671   1.958  1.00  0.00     0.217 C 
HETATM    2  N   UNL     1      41.443 -14.384   1.826  1.00  0.00    -0.359 N 
HETATM    3  O   UNL     1      43.568 -13.842   2.405  1.00  0.00    -0.274 OA
HETATM    4  H   UNL     1      40.865 -15.071   1.347  1.00  0.00     0.162 HD
ENDROOT
BRANCH   2   5
HETATM    5  C   UNL     1      40.881 -13.041   1.990  1.00  0.00     0.160 C 
BRANCH   5   6
HETATM    6  C   UNL     1      39.729 -12.640   0.996  1.00  0.00     0.239 C 
BRANCH   6   7
HETATM    7  N   UNL     1      38.963 -11.407   1.497  1.00  0.00    -0.069 N 
HETATM    8  H   UNL     1      39.336 -10.622   0.923  1.00  0.00     0.279 HD
HETATM    9  C   UNL     1      37.488 -11.371   1.249  1.00  0.00     0.270 C 
HETATM   10  C   UNL     1      39.295 -11.027   2.908  1.00  0.00     0.270 C 
ENDBRANCH   6   7
BRANCH   6  11
HETATM   11  C   UNL     1      40.216 -12.516  -0.443  1.00  0.00    -0.004 A 
HETATM   12  C   UNL     1      40.074 -13.566  -1.373  1.00  0.00     0.042 A 
HETATM   13 CL   UNL     1      39.359 -15.082  -0.956  1.00  0.00    -0.084 Cl
HETATM   14  C   UNL     1      40.516 -13.422  -2.693  1.00  0.00     0.024 A 
HETATM   15  C   UNL     1      41.111 -12.234  -3.110  1.00  0.00     0.002 A 
HETATM   16  C   UNL     1      41.268 -11.187  -2.209  1.00  0.00     0.001 A 
HETATM   17  C   UNL     1      40.828 -11.326  -0.890  1.00  0.00     0.011 A 
ENDBRANCH   6  11
ENDBRANCH   5   6
ENDBRANCH   2   5
BRANCH   1  18
HETATM   18  C   UNL     1      43.200 -16.046   1.508  1.00  0.00     0.107 C 
BRANCH  18  19
HETATM   19  C   UNL     1      42.375 -17.100   2.236  1.00  0.00     0.052 C 
BRANCH  19  20
HETATM   20  C   UNL     1      43.188 -17.865   3.222  1.00  0.00    -0.008 A 
HETATM   21  C   UNL     1      43.628 -17.460   4.469  1.00  0.00     0.032 A 
HETATM   22  C   UNL     1      43.453 -16.198   5.224  1.00  0.00     0.070 C 
HETATM   23  N   UNL     1      44.330 -18.517   4.980  1.00  0.00    -0.282 N 
HETATM   24  H   UNL     1      44.796 -18.590   5.880  1.00  0.00     0.189 HD
HETATM   25  N   UNL     1      44.390 -19.570   4.155  1.00  0.00    -0.179 NA
HETATM   26  C   UNL     1      43.687 -19.193   3.084  1.00  0.00     0.059 A 
HETATM   27  C   UNL     1      43.522 -20.124   1.941  1.00  0.00     0.073 C 
ENDBRANCH  19  20
ENDBRANCH  18  19
ENDBRANCH   1  18
TORSDOF 7
ENDMDL
MODEL 5
REMARK VINA RESULT:      -7.2      2.961      7.871
REMARK  7 active torsions:
REMARK  status: ('A' for Active; 'I' for Inactive)
REMARK    1  A    between atoms: C_8  and  C_9 
REMARK    2  A    between atoms: C_9  and  C_10 
REMARK    3  A    between atoms: C_10  and  C_11 
REMARK       I    between atoms: C_11  and  N_12 
REMARK    4  A    between atoms: N_12  and  C_13 
REMARK    5  A    between atoms: C_13  and  C_14 
REMARK    6  A    between atoms: C_14  and  N_15 
REMARK    7  A    between atoms: C_14  and  C_19 
ROOT
HETATM    1  C   UNL     1      42.484 -14.647   1.657  1.00  0.00     0.217 C 
HETATM    2  N   UNL     1      41.753 -14.319   0.544  1.00  0.00    -0.359 N 
HETATM    3  O   UNL     1      42.524 -13.906   2.637  1.00  0.00    -0.274 OA
HETATM    4  H   UNL     1      41.853 -14.919  -0.272  1.00  0.00     0.162 HD
ENDROOT
BRANCH   2   5
HETATM    5  C   UNL     1      41.147 -13.002   0.331  1.00  0.00     0.160 C 
BRANCH   5   6
HETATM    6  C   UNL     1      39.628 -12.861   0.722  1.00  0.00     0.239 C 
BRANCH   6   7
HETATM    7  N   UNL     1      39.455 -12.014   1.990  1.00  0.00    -0.069 N 
HETATM    8  H   UNL     1      38.606 -11.440   1.802  1.00  0.00     0.279 HD
HETATM    9  C   UNL     1      39.129 -12.739   3.258  1.00  0.00     0.270 C 
HETATM   10  C   UNL     1      40.547 -11.009   2.195  1.00  0.00     0.270 C 
ENDBRANCH   6   7
BRANCH   6  11
HETATM   11  C   UNL     1      38.766 -12.401  -0.447  1.00  0.00    -0.004 A 
HETATM   12  C   UNL     1      38.473 -13.243  -1.539  1.00  0.00     0.042 A 
HETATM   13 CL   UNL     1      39.084 -14.855  -1.653  1.00  0.00    -0.084 Cl
HETATM   14  C   UNL     1      37.665 -12.801  -2.592  1.00  0.00     0.024 A 
HETATM   15  C   UNL     1      37.137 -11.513  -2.582  1.00  0.00     0.002 A 
HETATM   16  C   UNL     1      37.418 -10.661  -1.519  1.00  0.00     0.001 A 
HETATM   17  C   UNL     1      38.224 -11.098  -0.465  1.00  0.00     0.011 A 
ENDBRANCH   6  11
ENDBRANCH   5   6
ENDBRANCH   2   5
BRANCH   1  18
HETATM   18  C   UNL     1      43.235 -15.952   1.585  1.00  0.00     0.107 C 
BRANCH  18  19
HETATM   19  C   UNL     1      42.408 -17.056   2.231  1.00  0.00     0.052 C 
BRANCH  19  20
HETATM   20  C   UNL     1      43.206 -17.864   3.196  1.00  0.00    -0.008 A 
HETATM   21  C   UNL     1      43.677 -19.156   3.049  1.00  0.00     0.032 A 
HETATM   22  C   UNL     1      43.566 -20.135   1.944  1.00  0.00     0.070 C 
HETATM   23  N   UNL     1      44.349 -19.443   4.205  1.00  0.00    -0.282 N 
HETATM   24  H   UNL     1      44.835 -20.299   4.457  1.00  0.00     0.189 HD
HETATM   25  N   UNL     1      44.339 -18.442   5.094  1.00  0.00    -0.179 NA
HETATM   26  C   UNL     1      43.657 -17.467   4.488  1.00  0.00     0.059 A 
HETATM   27  C   UNL     1      43.446 -16.171   5.179  1.00  0.00     0.073 C 
ENDBRANCH  19  20
ENDBRANCH  18  19
ENDBRANCH   1  18
TORSDOF 7
ENDMDL
MODEL 6
REMARK VINA RESULT:      -7.2      2.137      2.974
REMARK  7 active torsions:
REMARK  status: ('A' for Active; 'I' for Inactive)
REMARK    1  A    between atoms: C_8  and  C_9 
REMARK    2  A    between atoms: C_9  and  C_10 
REMARK    3  A    between atoms: C_10  and  C_11 
REMARK       I    between atoms: C_11  and  N_12 
REMARK    4  A    between atoms: N_12  and  C_13 
REMARK    5  A    between atoms: C_13  and  C_14 
REMARK    6  A    between atoms: C_14  and  N_15 
REMARK    7  A    between atoms: C_14  and  C_19 
ROOT
HETATM    1  C   UNL     1      40.299 -14.636   1.384  1.00  0.00     0.217 C 
HETATM    2  N   UNL     1      40.310 -15.672   2.284  1.00  0.00    -0.359 N 
HETATM    3  O   UNL     1      40.660 -13.506   1.705  1.00  0.00    -0.274 OA
HETATM    4  H   UNL     1      39.895 -16.551   1.985  1.00  0.00     0.162 HD
ENDROOT
BRANCH   2   5
HETATM    5  C   UNL     1      40.533 -15.494   3.721  1.00  0.00     0.160 C 
BRANCH   5   6
HETATM    6  C   UNL     1      42.025 -15.283   4.174  1.00  0.00     0.239 C 
BRANCH   6   7
HETATM    7  N   UNL     1      42.116 -14.312   5.360  1.00  0.00    -0.069 N 
HETATM    8  H   UNL     1      42.653 -14.837   6.082  1.00  0.00     0.279 HD
HETATM    9  C   UNL     1      42.908 -13.059   5.159  1.00  0.00     0.270 C 
HETATM   10  C   UNL     1      40.795 -14.031   6.009  1.00  0.00     0.270 C 
ENDBRANCH   6   7
BRANCH   6  11
HETATM   11  C   UNL     1      42.758 -16.600   4.402  1.00  0.00    -0.004 A 
HETATM   12  C   UNL     1      43.397 -17.291   3.353  1.00  0.00     0.042 A 
HETATM   13 CL   UNL     1      43.386 -16.716   1.724  1.00  0.00    -0.084 Cl
HETATM   14  C   UNL     1      44.077 -18.491   3.591  1.00  0.00     0.024 A 
HETATM   15  C   UNL     1      44.128 -19.028   4.875  1.00  0.00     0.002 A 
HETATM   16  C   UNL     1      43.499 -18.368   5.924  1.00  0.00     0.001 A 
HETATM   17  C   UNL     1      42.819 -17.170   5.692  1.00  0.00     0.011 A 
ENDBRANCH   6  11
ENDBRANCH   5   6
ENDBRANCH   2   5
BRANCH   1  18
HETATM   18  C   UNL     1      39.807 -14.977   0.000  1.00  0.00     0.107 C 
BRANCH  18  19
HETATM   19  C   UNL     1      40.167 -13.854  -0.964  1.00  0.00     0.052 C 
BRANCH  19  20
HETATM   20  C   UNL     1      38.960 -13.232  -1.577  1.00  0.00    -0.008 A 
HETATM   21  C   UNL     1      38.201 -13.696  -2.637  1.00  0.00     0.032 A 
HETATM   22  C   UNL     1      38.309 -14.906  -3.483  1.00  0.00     0.070 C 
HETATM   23  N   UNL     1      37.208 -12.773  -2.817  1.00  0.00    -0.282 N 
HETATM   24  H   UNL     1      36.456 -12.780  -3.500  1.00  0.00     0.189 HD
HETATM   25  N   UNL     1      37.272 -11.742  -1.965  1.00  0.00    -0.179 NA
HETATM   26  C   UNL     1      38.328 -12.014  -1.195  1.00  0.00     0.059 A 
HETATM   27  C   UNL     1      38.712 -11.080  -0.107  1.00  0.00     0.073 C 
ENDBRANCH  19  20
ENDBRANCH  18  19
ENDBRANCH   1  18
TORSDOF 7
ENDMDL
MODEL 7
REMARK VINA RESULT:      -7.2      2.844      7.997
REMARK  7 active torsions:
REMARK  status: ('A' for Active; 'I' for Inactive)
REMARK    1  A    between atoms: C_8  and  C_9 
REMARK    2  A    between atoms: C_9  and  C_10 
REMARK    3  A    between atoms: C_10  and  C_11 
REMARK       I    between atoms: C_11  and  N_12 
REMARK    4  A    between atoms: N_12  and  C_13 
REMARK    5  A    between atoms: C_13  and  C_14 
REMARK    6  A    between atoms: C_14  and  N_15 
REMARK    7  A    between atoms: C_14  and  C_19 
ROOT
HETATM    1  C   UNL     1      42.413 -14.838   1.645  1.00  0.00     0.217 C 
HETATM    2  N   UNL     1      41.099 -15.055   1.318  1.00  0.00    -0.359 N 
HETATM    3  O   UNL     1      42.820 -13.717   1.946  1.00  0.00    -0.274 OA
HETATM    4  H   UNL     1      40.853 -15.980   0.972  1.00  0.00     0.162 HD
ENDROOT
BRANCH   2   5
HETATM    5  C   UNL     1      40.131 -13.979   1.090  1.00  0.00     0.160 C 
BRANCH   5   6
HETATM    6  C   UNL     1      40.105 -13.360  -0.358  1.00  0.00     0.239 C 
BRANCH   6   7
HETATM    7  N   UNL     1      38.711 -13.478  -0.990  1.00  0.00    -0.069 N 
HETATM    8  H   UNL     1      38.157 -14.019  -0.293  1.00  0.00     0.279 HD
HETATM    9  C   UNL     1      37.933 -12.213  -1.169  1.00  0.00     0.270 C 
HETATM   10  C   UNL     1      38.682 -14.323  -2.227  1.00  0.00     0.270 C 
ENDBRANCH   6   7
BRANCH   6  11
HETATM   11  C   UNL     1      40.681 -11.950  -0.400  1.00  0.00    -0.004 A 
HETATM   12  C   UNL     1      41.223 -11.397  -1.577  1.00  0.00     0.042 A 
HETATM   13 CL   UNL     1      41.300 -12.278  -3.062  1.00  0.00    -0.084 Cl
HETATM   14  C   UNL     1      41.731 -10.093  -1.594  1.00  0.00     0.024 A 
HETATM   15  C   UNL     1      41.714  -9.317  -0.438  1.00  0.00     0.002 A 
HETATM   16  C   UNL     1      41.191  -9.843   0.738  1.00  0.00     0.001 A 
HETATM   17  C   UNL     1      40.682 -11.144   0.759  1.00  0.00     0.011 A 
ENDBRANCH   6  11
ENDBRANCH   5   6
ENDBRANCH   2   5
BRANCH   1  18
HETATM   18  C   UNL     1      43.309 -16.049   1.592  1.00  0.00     0.107 C 
BRANCH  18  19
HETATM   19  C   UNL     1      42.540 -17.277   2.062  1.00  0.00     0.052 C 
BRANCH  19  20
HETATM   20  C   UNL     1      43.274 -18.030   3.117  1.00  0.00    -0.008 A 
HETATM   21  C   UNL     1      43.774 -19.319   3.060  1.00  0.00     0.032 A 
HETATM   22  C   UNL     1      43.761 -20.344   1.992  1.00  0.00     0.070 C 
HETATM   23  N   UNL     1      44.361 -19.546   4.275  1.00  0.00    -0.282 N 
HETATM   24  H   UNL     1      44.839 -20.382   4.597  1.00  0.00     0.189 HD
HETATM   25  N   UNL     1      44.269 -18.510   5.117  1.00  0.00    -0.179 NA
HETATM   26  C   UNL     1      43.620 -17.573   4.421  1.00  0.00     0.059 A 
HETATM   27  C   UNL     1      43.338 -16.254   5.040  1.00  0.00     0.073 C 
ENDBRANCH  19  20
ENDBRANCH  18  19
ENDBRANCH   1  18
TORSDOF 7
ENDMDL
MODEL 8
REMARK VINA RESULT:      -7.1      2.074      3.339
REMARK  7 active torsions:
REMARK  status: ('A' for Active; 'I' for Inactive)
REMARK    1  A    between atoms: C_8  and  C_9 
REMARK    2  A    between atoms: C_9  and  C_10 
REMARK    3  A    between atoms: C_10  and  C_11 
REMARK       I    between atoms: C_11  and  N_12 
REMARK    4  A    between atoms: N_12  and  C_13 
REMARK    5  A    between atoms: C_13  and  C_14 
REMARK    6  A    between atoms: C_14  and  N_15 
REMARK    7  A    between atoms: C_14  and  C_19 
ROOT
HETATM    1  C   UNL     1      42.003 -14.204   4.099  1.00  0.00     0.217 C 
HETATM    2  N   UNL     1      41.456 -15.462   4.062  1.00  0.00    -0.359 N 
HETATM    3  O   UNL     1      42.912 -13.925   4.878  1.00  0.00    -0.274 OA
HETATM    4  H   UNL     1      40.635 -15.595   3.476  1.00  0.00     0.162 HD
ENDROOT
BRANCH   2   5
HETATM    5  C   UNL     1      41.737 -16.498   5.060  1.00  0.00     0.160 C 
BRANCH   5   6
HETATM    6  C   UNL     1      43.241 -16.939   5.204  1.00  0.00     0.239 C 
BRANCH   6   7
HETATM    7  N   UNL     1      43.749 -16.731   6.638  1.00  0.00    -0.069 N 
HETATM    8  H   UNL     1      43.854 -17.696   7.015  1.00  0.00     0.279 HD
HETATM    9  C   UNL     1      45.108 -16.127   6.800  1.00  0.00     0.270 C 
HETATM   10  C   UNL     1      42.746 -16.084   7.543  1.00  0.00     0.270 C 
ENDBRANCH   6   7
BRANCH   6  11
HETATM   11  C   UNL     1      43.492 -18.340   4.661  1.00  0.00    -0.004 A 
HETATM   12  C   UNL     1      43.521 -18.613   3.278  1.00  0.00     0.042 A 
HETATM   13 CL   UNL     1      43.253 -17.389   2.088  1.00  0.00    -0.084 Cl
HETATM   14  C   UNL     1      43.769 -19.906   2.804  1.00  0.00     0.024 A 
HETATM   15  C   UNL     1      43.988 -20.952   3.696  1.00  0.00     0.002 A 
HETATM   16  C   UNL     1      43.958 -20.709   5.065  1.00  0.00     0.001 A 
HETATM   17  C   UNL     1      43.710 -19.420   5.543  1.00  0.00     0.011 A 
ENDBRANCH   6  11
ENDBRANCH   5   6
ENDBRANCH   2   5
BRANCH   1  18
HETATM   18  C   UNL     1      41.407 -13.204   3.142  1.00  0.00     0.107 C 
BRANCH  18  19
HETATM   19  C   UNL     1      41.985 -13.418   1.749  1.00  0.00     0.052 C 
BRANCH  19  20
HETATM   20  C   UNL     1      40.923 -13.522   0.710  1.00  0.00    -0.008 A 
HETATM   21  C   UNL     1      40.080 -14.587   0.448  1.00  0.00     0.032 A 
HETATM   22  C   UNL     1      39.939 -15.920   1.075  1.00  0.00     0.070 C 
HETATM   23  N   UNL     1      39.290 -14.190  -0.596  1.00  0.00    -0.282 N 
HETATM   24  H   UNL     1      38.548 -14.708  -1.057  1.00  0.00     0.189 HD
HETATM   25  N   UNL     1      39.565 -12.957  -1.038  1.00  0.00    -0.179 NA
HETATM   26  C   UNL     1      40.550 -12.531  -0.244  1.00  0.00     0.059 A 
HETATM   27  C   UNL     1      41.119 -11.173  -0.432  1.00  0.00     0.073 C 
ENDBRANCH  19  20
ENDBRANCH  18  19
ENDBRANCH   1  18
TORSDOF 7
ENDMDL
MODEL 9
REMARK VINA RESULT:      -7.1      3.947      7.348
REMARK  7 active torsions:
REMARK  status: ('A' for Active; 'I' for Inactive)
REMARK    1  A    between atoms: C_8  and  C_9 
REMARK    2  A    between atoms: C_9  and  C_10 
REMARK    3  A    between atoms: C_10  and  C_11 
REMARK       I    between atoms: C_11  and  N_12 
REMARK    4  A    between atoms: N_12  and  C_13 
REMARK    5  A    between atoms: C_13  and  C_14 
REMARK    6  A    between atoms: C_14  and  N_15 
REMARK    7  A    between atoms: C_14  and  C_19 
ROOT
HETATM    1  C   UNL     1      42.402 -15.157   2.352  1.00  0.00     0.217 C 
HETATM    2  N   UNL     1      42.981 -14.619   3.473  1.00  0.00    -0.359 N 
HETATM    3  O   UNL     1      42.010 -14.445   1.430  1.00  0.00    -0.274 OA
HETATM    4  H   UNL     1      43.180 -15.252   4.244  1.00  0.00     0.162 HD
ENDROOT
BRANCH   2   5
HETATM    5  C   UNL     1      42.988 -13.184   3.772  1.00  0.00     0.160 C 
BRANCH   5   6
HETATM    6  C   UNL     1      42.294 -12.747   5.115  1.00  0.00     0.239 C 
BRANCH   6   7
HETATM    7  N   UNL     1      41.672 -13.949   5.839  1.00  0.00    -0.069 N 
HETATM    8  H   UNL     1      41.698 -14.716   5.134  1.00  0.00     0.279 HD
HETATM    9  C   UNL     1      42.421 -14.505   7.009  1.00  0.00     0.270 C 
HETATM   10  C   UNL     1      40.216 -13.777   6.149  1.00  0.00     0.270 C 
ENDBRANCH   6   7
BRANCH   6  11
HETATM   11  C   UNL     1      43.209 -11.906   5.997  1.00  0.00    -0.004 A 
HETATM   12  C   UNL     1      42.724 -10.827   6.764  1.00  0.00     0.042 A 
HETATM   13 CL   UNL     1      41.062 -10.356   6.751  1.00  0.00    -0.084 Cl
HETATM   14  C   UNL     1      43.583 -10.080   7.579  1.00  0.00     0.024 A 
HETATM   15  C   UNL     1      44.939 -10.388   7.642  1.00  0.00     0.002 A 
HETATM   16  C   UNL     1      45.442 -11.443   6.889  1.00  0.00     0.001 A 
HETATM   17  C   UNL     1      44.589 -12.192   6.074  1.00  0.00     0.011 A 
ENDBRANCH   6  11
ENDBRANCH   5   6
ENDBRANCH   2   5
BRANCH   1  18
HETATM   18  C   UNL     1      42.272 -16.659   2.341  1.00  0.00     0.107 C 
BRANCH  18  19
HETATM   19  C   UNL     1      43.651 -17.293   2.209  1.00  0.00     0.052 C 
BRANCH  19  20
HETATM   20  C   UNL     1      43.830 -18.445   3.137  1.00  0.00    -0.008 A 
HETATM   21  C   UNL     1      43.743 -19.796   2.853  1.00  0.00     0.032 A 
HETATM   22  C   UNL     1      43.462 -20.533   1.600  1.00  0.00     0.070 C 
HETATM   23  N   UNL     1      43.987 -20.442   4.034  1.00  0.00    -0.282 N 
HETATM   24  H   UNL     1      44.014 -21.442   4.212  1.00  0.00     0.189 HD
HETATM   25  N   UNL     1      44.214 -19.615   5.061  1.00  0.00    -0.179 NA
HETATM   26  C   UNL     1      44.134 -18.394   4.528  1.00  0.00     0.059 A 
HETATM   27  C   UNL     1      44.343 -17.197   5.381  1.00  0.00     0.073 C 
ENDBRANCH  19  20
ENDBRANCH  18  19
ENDBRANCH   1  18
TORSDOF 7
ENDMDL
MODEL 10
REMARK VINA RESULT:      -7.1      3.002      7.629
REMARK  7 active torsions:
REMARK  status: ('A' for Active; 'I' for Inactive)
REMARK    1  A    between atoms: C_8  and  C_9 
REMARK    2  A    between atoms: C_9  and  C_10 
REMARK    3  A    between atoms: C_10  and  C_11 
REMARK       I    between atoms: C_11  and  N_12 
REMARK    4  A    between atoms: N_12  and  C_13 
REMARK    5  A    between atoms: C_13  and  C_14 
REMARK    6  A    between atoms: C_14  and  N_15 
REMARK    7  A    between atoms: C_14  and  C_19 
ROOT
HETATM    1  C   UNL     1      41.933 -14.419   1.862  1.00  0.00     0.217 C 
HETATM    2  N   UNL     1      40.591 -14.343   1.588  1.00  0.00    -0.359 N 
HETATM    3  O   UNL     1      42.537 -13.474   2.367  1.00  0.00    -0.274 OA
HETATM    4  H   UNL     1      40.178 -15.115   1.070  1.00  0.00     0.162 HD
ENDROOT
BRANCH   2   5
HETATM    5  C   UNL     1      39.817 -13.101   1.663  1.00  0.00     0.160 C 
BRANCH   5   6
HETATM    6  C   UNL     1      39.756 -12.237   0.349  1.00  0.00     0.239 C 
BRANCH   6   7
HETATM    7  N   UNL     1      41.114 -11.590   0.042  1.00  0.00    -0.069 N 
HETATM    8  H   UNL     1      41.794 -12.377   0.107  1.00  0.00     0.279 HD
HETATM    9  C   UNL     1      41.316 -11.047  -1.337  1.00  0.00     0.270 C 
HETATM   10  C   UNL     1      41.567 -10.619   1.089  1.00  0.00     0.270 C 
ENDBRANCH   6   7
BRANCH   6  11
HETATM   11  C   UNL     1      39.162 -13.003  -0.826  1.00  0.00    -0.004 A 
HETATM   12  C   UNL     1      38.034 -12.536  -1.532  1.00  0.00     0.042 A 
HETATM   13 CL   UNL     1      37.222 -11.071  -1.110  1.00  0.00    -0.084 Cl
HETATM   14  C   UNL     1      37.517 -13.251  -2.618  1.00  0.00     0.024 A 
HETATM   15  C   UNL     1      38.109 -14.446  -3.019  1.00  0.00     0.002 A 
HETATM   16  C   UNL     1      39.217 -14.931  -2.334  1.00  0.00     0.001 A 
HETATM   17  C   UNL     1      39.737 -14.221  -1.249  1.00  0.00     0.011 A 
ENDBRANCH   6  11
ENDBRANCH   5   6
ENDBRANCH   2   5
BRANCH   1  18
HETATM   18  C   UNL     1      42.605 -15.716   1.489  1.00  0.00     0.107 C 
BRANCH  18  19
HETATM   19  C   UNL     1      42.009 -16.856   2.306  1.00  0.00     0.052 C 
BRANCH  19  20
HETATM   20  C   UNL     1      43.021 -17.504   3.186  1.00  0.00    -0.008 A 
HETATM   21  C   UNL     1      43.617 -18.743   3.038  1.00  0.00     0.032 A 
HETATM   22  C   UNL     1      43.475 -19.799   2.009  1.00  0.00     0.070 C 
HETATM   23  N   UNL     1      44.470 -18.877   4.099  1.00  0.00    -0.282 N 
HETATM   24  H   UNL     1      45.084 -19.656   4.321  1.00  0.00     0.189 HD
HETATM   25  N   UNL     1      44.461 -17.827   4.929  1.00  0.00    -0.179 NA
HETATM   26  C   UNL     1      43.592 -16.976   4.379  1.00  0.00     0.059 A 
HETATM   27  C   UNL     1      43.324 -15.669   5.029  1.00  0.00     0.073 C 
ENDBRANCH  19  20
ENDBRANCH  18  19
ENDBRANCH   1  18
TORSDOF 7
ENDMDL
