MODEL 1
REMARK VINA RESULT:      -8.2      0.000      0.000
REMARK  5 active torsions:
REMARK  status: ('A' for Active; 'I' for Inactive)
REMARK    1  A    between atoms: C_4  and  C_5 
REMARK    2  A    between atoms: C_5  and  N_6 
REMARK       I    between atoms: N_6  and  C_7 
REMARK    3  A    between atoms: C_7  and  C_8 
REMARK    4  A    between atoms: C_11  and  N_12 
REMARK       I    between atoms: N_12  and  C_13 
REMARK    5  A    between atoms: C_13  and  C_14 
ROOT
HETATM    1  C   UNL     1      43.158 -13.820   4.156  1.00  0.00     0.032 A 
HETATM    2  C   UNL     1      43.173 -12.429   4.008  1.00  0.00     0.019 A 
HETATM    3  C   UNL     1      43.144 -11.597   5.135  1.00  0.00     0.030 A 
HETATM    4  C   UNL     1      43.092 -12.139   6.421  1.00  0.00     0.035 A 
HETATM    5  C   UNL     1      43.067 -13.532   6.565  1.00  0.00     0.030 A 
HETATM    6  C   UNL     1      43.096 -14.366   5.443  1.00  0.00     0.019 A 
ENDROOT
BRANCH   4   7
HETATM    7  N   UNL     1      43.035 -11.370   7.600  1.00  0.00    -0.323 N 
HETATM    8  C   UNL     1      44.096 -10.953   8.384  1.00  0.00     0.257 C 
HETATM    9  O   UNL     1      45.272 -11.272   8.258  1.00  0.00    -0.267 OA
HETATM   10  H   UNL     1      42.107 -11.125   7.923  1.00  0.00     0.169 HD
BRANCH   8  11
HETATM   11  C   UNL     1      43.731 -10.082   9.524  1.00  0.00     0.047 A 
HETATM   12  C   UNL     1      43.395  -8.722   9.377  1.00  0.00     0.027 A 
HETATM   13  C   UNL     1      43.059  -8.038  10.543  1.00  0.00     0.138 A 
HETATM   14  C   UNL     1      43.320  -7.764   8.322  1.00  0.00     0.033 A 
HETATM   15  N   UNL     1      42.758  -6.746  10.214  1.00  0.00    -0.350 N 
HETATM   16  N   UNL     1      43.029  -8.520  11.798  1.00  0.00    -0.242 NA
HETATM   17  H   UNL     1      42.488  -6.046  10.891  1.00  0.00     0.166 HD
HETATM   18  C   UNL     1      42.914  -6.564   8.865  1.00  0.00     0.090 A 
HETATM   19  C   UNL     1      43.396  -9.817  11.883  1.00  0.00     0.120 A 
HETATM   20  C   UNL     1      43.749 -10.625  10.815  1.00  0.00     0.037 A 
ENDBRANCH   8  11
ENDBRANCH   4   7
BRANCH   1  21
HETATM   21  C   UNL     1      43.171 -14.754   2.992  1.00  0.00     0.251 C 
HETATM   22  N   UNL     1      43.003 -16.093   3.267  1.00  0.00    -0.352 N 
HETATM   23  H   UNL     1      42.645 -16.374   4.169  1.00  0.00     0.163 HD
HETATM   24  O   UNL     1      43.299 -14.317   1.854  1.00  0.00    -0.268 OA
BRANCH  22  25
HETATM   25  C   UNL     1      42.874 -17.045   2.188  1.00  0.00     0.169 C 
BRANCH  25  26
HETATM   26  C   UNL     1      43.294 -18.389   2.686  1.00  0.00     0.000 A 
HETATM   27  S   UNL     1      44.024 -18.553   4.231  1.00  0.00    -0.105 SA
HETATM   28  C   UNL     1      44.182 -20.245   4.047  1.00  0.00     0.050 A 
HETATM   29  C   UNL     1      43.689 -20.682   2.838  1.00  0.00     0.008 A 
HETATM   30  C   UNL     1      43.178 -19.611   2.052  1.00  0.00     0.017 A 
ENDBRANCH  25  26
ENDBRANCH  22  25
ENDBRANCH   1  21
TORSDOF 5
ENDMDL
MODEL 2
REMARK VINA RESULT:      -8.1      3.208     10.147
REMARK  5 active torsions:
REMARK  status: ('A' for Active; 'I' for Inactive)
REMARK    1  A    between atoms: C_4  and  C_5 
REMARK    2  A    between atoms: C_5  and  N_6 
REMARK       I    between atoms: N_6  and  C_7 
REMARK    3  A    between atoms: C_7  and  C_8 
REMARK    4  A    between atoms: C_11  and  N_12 
REMARK       I    between atoms: N_12  and  C_13 
REMARK    5  A    between atoms: C_13  and  C_14 
ROOT
HETATM    1  C   UNL     1      43.979  -9.955   7.711  1.00  0.00     0.032 A 
HETATM    2  C   UNL     1      45.037 -10.849   7.515  1.00  0.00     0.019 A 
HETATM    3  C   UNL     1      44.874 -11.970   6.690  1.00  0.00     0.030 A 
HETATM    4  C   UNL     1      43.653 -12.219   6.059  1.00  0.00     0.035 A 
HETATM    5  C   UNL     1      42.592 -11.328   6.266  1.00  0.00     0.030 A 
HETATM    6  C   UNL     1      42.752 -10.208   7.089  1.00  0.00     0.019 A 
ENDROOT
BRANCH   4   7
HETATM    7  N   UNL     1      43.403 -13.336   5.237  1.00  0.00    -0.323 N 
HETATM    8  C   UNL     1      42.782 -14.519   5.592  1.00  0.00     0.257 C 
HETATM    9  O   UNL     1      42.434 -14.857   6.716  1.00  0.00    -0.267 OA
HETATM   10  H   UNL     1      43.751 -13.271   4.288  1.00  0.00     0.169 HD
BRANCH   8  11
HETATM   11  C   UNL     1      42.588 -15.484   4.485  1.00  0.00     0.047 A 
HETATM   12  C   UNL     1      43.291 -16.701   4.393  1.00  0.00     0.027 A 
HETATM   13  C   UNL     1      42.986 -17.510   3.301  1.00  0.00     0.138 A 
HETATM   14  C   UNL     1      44.314 -17.384   5.117  1.00  0.00     0.033 A 
HETATM   15  N   UNL     1      43.750 -18.641   3.374  1.00  0.00    -0.350 N 
HETATM   16  N   UNL     1      42.105 -17.262   2.315  1.00  0.00    -0.242 NA
HETATM   17  H   UNL     1      43.715 -19.384   2.691  1.00  0.00     0.166 HD
HETATM   18  C   UNL     1      44.565 -18.578   4.474  1.00  0.00     0.090 A 
HETATM   19  C   UNL     1      41.488 -16.066   2.436  1.00  0.00     0.120 A 
HETATM   20  C   UNL     1      41.684 -15.161   3.466  1.00  0.00     0.037 A 
ENDBRANCH   8  11
ENDBRANCH   4   7
BRANCH   1  21
HETATM   21  C   UNL     1      44.091  -8.756   8.591  1.00  0.00     0.251 C 
HETATM   22  N   UNL     1      43.122  -8.600   9.557  1.00  0.00    -0.352 N 
HETATM   23  H   UNL     1      42.533  -9.383   9.802  1.00  0.00     0.163 HD
HETATM   24  O   UNL     1      45.028  -7.977   8.454  1.00  0.00    -0.268 OA
BRANCH  22  25
HETATM   25  C   UNL     1      43.231  -7.537  10.530  1.00  0.00     0.169 C 
BRANCH  25  26
HETATM   26  C   UNL     1      42.683  -8.025  11.831  1.00  0.00     0.000 A 
HETATM   27  S   UNL     1      41.241  -8.954  11.872  1.00  0.00    -0.105 SA
HETATM   28  C   UNL     1      41.303  -9.092  13.575  1.00  0.00     0.050 A 
HETATM   29  C   UNL     1      42.398  -8.449  14.106  1.00  0.00     0.008 A 
HETATM   30  C   UNL     1      43.193  -7.831  13.100  1.00  0.00     0.017 A 
ENDBRANCH  25  26
ENDBRANCH  22  25
ENDBRANCH   1  21
TORSDOF 5
ENDMDL
MODEL 3
REMARK VINA RESULT:      -8.0      3.674     10.060
REMARK  5 active torsions:
REMARK  status: ('A' for Active; 'I' for Inactive)
REMARK    1  A    between atoms: C_4  and  C_5 
REMARK    2  A    between atoms: C_5  and  N_6 
REMARK       I    between atoms: N_6  and  C_7 
REMARK    3  A    between atoms: C_7  and  C_8 
REMARK    4  A    between atoms: C_11  and  N_12 
REMARK       I    between atoms: N_12  and  C_13 
REMARK    5  A    between atoms: C_13  and  C_14 
ROOT
HETATM    1  C   UNL     1      43.880  -9.724   7.787  1.00  0.00     0.032 A 
HETATM    2  C   UNL     1      42.707 -10.122   7.137  1.00  0.00     0.019 A 
HETATM    3  C   UNL     1      42.636 -11.371   6.505  1.00  0.00     0.030 A 
HETATM    4  C   UNL     1      43.735 -12.234   6.506  1.00  0.00     0.035 A 
HETATM    5  C   UNL     1      44.911 -11.828   7.149  1.00  0.00     0.030 A 
HETATM    6  C   UNL     1      44.985 -10.582   7.781  1.00  0.00     0.019 A 
ENDROOT
BRANCH   4   7
HETATM    7  N   UNL     1      43.749 -13.493   5.873  1.00  0.00    -0.323 N 
HETATM    8  C   UNL     1      43.316 -14.699   6.391  1.00  0.00     0.257 C 
HETATM    9  O   UNL     1      42.942 -14.915   7.537  1.00  0.00    -0.267 OA
HETATM   10  H   UNL     1      44.155 -13.515   4.946  1.00  0.00     0.169 HD
BRANCH   8  11
HETATM   11  C   UNL     1      43.381 -15.845   5.455  1.00  0.00     0.047 A 
HETATM   12  C   UNL     1      42.529 -15.978   4.341  1.00  0.00     0.027 A 
HETATM   13  C   UNL     1      42.723 -17.105   3.546  1.00  0.00     0.138 A 
HETATM   14  C   UNL     1      41.433 -15.270   3.763  1.00  0.00     0.033 A 
HETATM   15  N   UNL     1      41.823 -17.067   2.517  1.00  0.00    -0.350 N 
HETATM   16  N   UNL     1      43.622 -18.090   3.721  1.00  0.00    -0.242 NA
HETATM   17  H   UNL     1      41.760 -17.780   1.804  1.00  0.00     0.166 HD
HETATM   18  C   UNL     1      41.029 -15.956   2.637  1.00  0.00     0.090 A 
HETATM   19  C   UNL     1      44.385 -17.928   4.824  1.00  0.00     0.120 A 
HETATM   20  C   UNL     1      44.312 -16.861   5.704  1.00  0.00     0.037 A 
ENDBRANCH   8  11
ENDBRANCH   4   7
BRANCH   1  21
HETATM   21  C   UNL     1      44.018  -8.400   8.461  1.00  0.00     0.251 C 
HETATM   22  N   UNL     1      42.917  -7.931   9.142  1.00  0.00    -0.352 N 
HETATM   23  H   UNL     1      42.165  -8.567   9.370  1.00  0.00     0.163 HD
HETATM   24  O   UNL     1      45.083  -7.794   8.416  1.00  0.00    -0.268 OA
BRANCH  22  25
HETATM   25  C   UNL     1      43.009  -6.721   9.927  1.00  0.00     0.169 C 
BRANCH  25  26
HETATM   26  C   UNL     1      42.785  -7.067  11.362  1.00  0.00     0.000 A 
HETATM   27  S   UNL     1      41.782  -6.082  12.347  1.00  0.00    -0.105 SA
HETATM   28  C   UNL     1      42.034  -7.080  13.711  1.00  0.00     0.050 A 
HETATM   29  C   UNL     1      42.860  -8.144  13.429  1.00  0.00     0.008 A 
HETATM   30  C   UNL     1      43.296  -8.136  12.074  1.00  0.00     0.017 A 
ENDBRANCH  25  26
ENDBRANCH  22  25
ENDBRANCH   1  21
TORSDOF 5
ENDMDL
MODEL 4
REMARK VINA RESULT:      -7.8      1.112      2.248
REMARK  5 active torsions:
REMARK  status: ('A' for Active; 'I' for Inactive)
REMARK    1  A    between atoms: C_4  and  C_5 
REMARK    2  A    between atoms: C_5  and  N_6 
REMARK       I    between atoms: N_6  and  C_7 
REMARK    3  A    between atoms: C_7  and  C_8 
REMARK    4  A    between atoms: C_11  and  N_12 
REMARK       I    between atoms: N_12  and  C_13 
REMARK    5  A    between atoms: C_13  and  C_14 
ROOT
HETATM    1  C   UNL     1      42.454 -14.505   4.591  1.00  0.00     0.032 A 
HETATM    2  C   UNL     1      43.268 -14.641   5.720  1.00  0.00     0.019 A 
HETATM    3  C   UNL     1      43.374 -13.594   6.646  1.00  0.00     0.030 A 
HETATM    4  C   UNL     1      42.678 -12.398   6.454  1.00  0.00     0.035 A 
HETATM    5  C   UNL     1      41.872 -12.262   5.317  1.00  0.00     0.030 A 
HETATM    6  C   UNL     1      41.764 -13.305   4.390  1.00  0.00     0.019 A 
ENDROOT
BRANCH   4   7
HETATM    7  N   UNL     1      42.753 -11.293   7.325  1.00  0.00    -0.323 N 
HETATM    8  C   UNL     1      43.849 -10.869   8.053  1.00  0.00     0.257 C 
HETATM    9  O   UNL     1      44.926 -11.443   8.161  1.00  0.00    -0.267 OA
HETATM   10  H   UNL     1      41.893 -10.774   7.453  1.00  0.00     0.169 HD
BRANCH   8  11
HETATM   11  C   UNL     1      43.649  -9.620   8.823  1.00  0.00     0.047 A 
HETATM   12  C   UNL     1      43.418  -9.601  10.212  1.00  0.00     0.027 A 
HETATM   13  C   UNL     1      43.265  -8.346  10.796  1.00  0.00     0.138 A 
HETATM   14  C   UNL     1      43.254 -10.550  11.266  1.00  0.00     0.033 A 
HETATM   15  N   UNL     1      43.058  -8.516  12.137  1.00  0.00    -0.350 N 
HETATM   16  N   UNL     1      43.298  -7.147  10.188  1.00  0.00    -0.242 NA
HETATM   17  H   UNL     1      42.913  -7.751  12.781  1.00  0.00     0.166 HD
HETATM   18  C   UNL     1      43.047  -9.853  12.438  1.00  0.00     0.090 A 
HETATM   19  C   UNL     1      43.485  -7.229   8.852  1.00  0.00     0.120 A 
HETATM   20  C   UNL     1      43.659  -8.401   8.135  1.00  0.00     0.037 A 
ENDBRANCH   8  11
ENDBRANCH   4   7
BRANCH   1  21
HETATM   21  C   UNL     1      42.317 -15.579   3.564  1.00  0.00     0.251 C 
HETATM   22  N   UNL     1      43.463 -16.257   3.215  1.00  0.00    -0.352 N 
HETATM   23  H   UNL     1      44.280 -16.190   3.807  1.00  0.00     0.163 HD
HETATM   24  O   UNL     1      41.216 -15.842   3.091  1.00  0.00    -0.268 OA
BRANCH  22  25
HETATM   25  C   UNL     1      43.393 -17.394   2.327  1.00  0.00     0.169 C 
BRANCH  25  26
HETATM   26  C   UNL     1      43.677 -18.632   3.114  1.00  0.00     0.000 A 
HETATM   27  S   UNL     1      43.492 -20.179   2.396  1.00  0.00    -0.105 SA
HETATM   28  C   UNL     1      43.968 -20.973   3.833  1.00  0.00     0.050 A 
HETATM   29  C   UNL     1      44.266 -20.084   4.841  1.00  0.00     0.008 A 
HETATM   30  C   UNL     1      44.096 -18.732   4.427  1.00  0.00     0.017 A 
ENDBRANCH  25  26
ENDBRANCH  22  25
ENDBRANCH   1  21
TORSDOF 5
ENDMDL
MODEL 5
REMARK VINA RESULT:      -7.8      6.905     10.247
REMARK  5 active torsions:
REMARK  status: ('A' for Active; 'I' for Inactive)
REMARK    1  A    between atoms: C_4  and  C_5 
REMARK    2  A    between atoms: C_5  and  N_6 
REMARK       I    between atoms: N_6  and  C_7 
REMARK    3  A    between atoms: C_7  and  C_8 
REMARK    4  A    between atoms: C_11  and  N_12 
REMARK       I    between atoms: N_12  and  C_13 
REMARK    5  A    between atoms: C_13  and  C_14 
ROOT
HETATM    1  C   UNL     1      39.847 -12.995  -0.792  1.00  0.00     0.032 A 
HETATM    2  C   UNL     1      39.455 -14.337  -0.744  1.00  0.00     0.019 A 
HETATM    3  C   UNL     1      40.001 -15.201   0.214  1.00  0.00     0.030 A 
HETATM    4  C   UNL     1      40.949 -14.741   1.131  1.00  0.00     0.035 A 
HETATM    5  C   UNL     1      41.347 -13.399   1.074  1.00  0.00     0.030 A 
HETATM    6  C   UNL     1      40.804 -12.534   0.118  1.00  0.00     0.019 A 
ENDROOT
BRANCH   4   7
HETATM    7  N   UNL     1      41.562 -15.552   2.107  1.00  0.00    -0.323 N 
HETATM    8  C   UNL     1      42.831 -16.100   2.069  1.00  0.00     0.257 C 
HETATM    9  O   UNL     1      43.615 -16.072   1.128  1.00  0.00    -0.267 OA
HETATM   10  H   UNL     1      40.990 -15.784   2.909  1.00  0.00     0.169 HD
BRANCH   8  11
HETATM   11  C   UNL     1      43.231 -16.846   3.284  1.00  0.00     0.047 A 
HETATM   12  C   UNL     1      43.484 -18.231   3.288  1.00  0.00     0.027 A 
HETATM   13  C   UNL     1      43.867 -18.786   4.507  1.00  0.00     0.138 A 
HETATM   14  C   UNL     1      43.432 -19.314   2.360  1.00  0.00     0.033 A 
HETATM   15  N   UNL     1      44.075 -20.125   4.326  1.00  0.00    -0.350 N 
HETATM   16  N   UNL     1      44.013 -18.157   5.687  1.00  0.00    -0.242 NA
HETATM   17  H   UNL     1      44.357 -20.751   5.066  1.00  0.00     0.166 HD
HETATM   18  C   UNL     1      43.813 -20.462   3.023  1.00  0.00     0.090 A 
HETATM   19  C   UNL     1      43.722 -16.839   5.630  1.00  0.00     0.120 A 
HETATM   20  C   UNL     1      43.335 -16.148   4.494  1.00  0.00     0.037 A 
ENDBRANCH   8  11
ENDBRANCH   4   7
BRANCH   1  21
HETATM   21  C   UNL     1      39.312 -12.035  -1.801  1.00  0.00     0.251 C 
HETATM   22  N   UNL     1      39.688 -10.717  -1.667  1.00  0.00    -0.352 N 
HETATM   23  H   UNL     1      40.472 -10.482  -1.075  1.00  0.00     0.163 HD
HETATM   24  O   UNL     1      38.595 -12.435  -2.712  1.00  0.00    -0.268 OA
BRANCH  22  25
HETATM   25  C   UNL     1      39.318  -9.750  -2.675  1.00  0.00     0.169 C 
BRANCH  25  26
HETATM   26  C   UNL     1      40.433  -8.768  -2.824  1.00  0.00     0.000 A 
HETATM   27  S   UNL     1      40.752  -7.622  -1.586  1.00  0.00    -0.105 SA
HETATM   28  C   UNL     1      42.056  -6.946  -2.461  1.00  0.00     0.050 A 
HETATM   29  C   UNL     1      42.251  -7.577  -3.669  1.00  0.00     0.008 A 
HETATM   30  C   UNL     1      41.314  -8.627  -3.880  1.00  0.00     0.017 A 
ENDBRANCH  25  26
ENDBRANCH  22  25
ENDBRANCH   1  21
TORSDOF 5
ENDMDL
MODEL 6
REMARK VINA RESULT:      -7.6      6.345     10.385
REMARK  5 active torsions:
REMARK  status: ('A' for Active; 'I' for Inactive)
REMARK    1  A    between atoms: C_4  and  C_5 
REMARK    2  A    between atoms: C_5  and  N_6 
REMARK       I    between atoms: N_6  and  C_7 
REMARK    3  A    between atoms: C_7  and  C_8 
REMARK    4  A    between atoms: C_11  and  N_12 
REMARK       I    between atoms: N_12  and  C_13 
REMARK    5  A    between atoms: C_13  and  C_14 
ROOT
HETATM    1  C   UNL     1      42.164  -8.191  12.284  1.00  0.00     0.032 A 
HETATM    2  C   UNL     1      42.991  -7.412  13.101  1.00  0.00     0.019 A 
HETATM    3  C   UNL     1      42.822  -7.421  14.493  1.00  0.00     0.030 A 
HETATM    4  C   UNL     1      41.825  -8.199  15.085  1.00  0.00     0.035 A 
HETATM    5  C   UNL     1      40.993  -8.969  14.264  1.00  0.00     0.030 A 
HETATM    6  C   UNL     1      41.158  -8.963  12.874  1.00  0.00     0.019 A 
ENDROOT
BRANCH   4   7
HETATM    7  N   UNL     1      41.578  -8.242  16.472  1.00  0.00    -0.323 N 
HETATM    8  C   UNL     1      40.700  -7.455  17.194  1.00  0.00     0.257 C 
HETATM    9  O   UNL     1      40.056  -6.499  16.777  1.00  0.00    -0.267 OA
HETATM   10  H   UNL     1      42.134  -8.904  16.998  1.00  0.00     0.169 HD
BRANCH   8  11
HETATM   11  C   UNL     1      40.594  -7.787  18.633  1.00  0.00     0.047 A 
HETATM   12  C   UNL     1      41.668  -7.650  19.535  1.00  0.00     0.027 A 
HETATM   13  C   UNL     1      41.408  -7.989  20.861  1.00  0.00     0.138 A 
HETATM   14  C   UNL     1      43.043  -7.272  19.486  1.00  0.00     0.033 A 
HETATM   15  N   UNL     1      42.549  -7.791  21.589  1.00  0.00    -0.350 N 
HETATM   16  N   UNL     1      40.254  -8.443  21.382  1.00  0.00    -0.242 NA
HETATM   17  H   UNL     1      42.616  -7.971  22.580  1.00  0.00     0.166 HD
HETATM   18  C   UNL     1      43.553  -7.356  20.764  1.00  0.00     0.090 A 
HETATM   19  C   UNL     1      39.273  -8.588  20.466  1.00  0.00     0.120 A 
HETATM   20  C   UNL     1      39.380  -8.288  19.118  1.00  0.00     0.037 A 
ENDBRANCH   8  11
ENDBRANCH   4   7
BRANCH   1  21
HETATM   21  C   UNL     1      42.287  -8.207  10.798  1.00  0.00     0.251 C 
HETATM   22  N   UNL     1      42.701  -9.387  10.220  1.00  0.00    -0.352 N 
HETATM   23  H   UNL     1      42.672 -10.241  10.759  1.00  0.00     0.163 HD
HETATM   24  O   UNL     1      42.000  -7.209  10.145  1.00  0.00    -0.268 OA
BRANCH  22  25
HETATM   25  C   UNL     1      42.721  -9.524   8.782  1.00  0.00     0.169 C 
BRANCH  25  26
HETATM   26  C   UNL     1      44.135  -9.719   8.342  1.00  0.00     0.000 A 
HETATM   27  S   UNL     1      44.604 -11.165   7.546  1.00  0.00    -0.105 SA
HETATM   28  C   UNL     1      46.222 -10.633   7.399  1.00  0.00     0.050 A 
HETATM   29  C   UNL     1      46.406  -9.381   7.940  1.00  0.00     0.008 A 
HETATM   30  C   UNL     1      45.202  -8.853   8.486  1.00  0.00     0.017 A 
ENDBRANCH  25  26
ENDBRANCH  22  25
ENDBRANCH   1  21
TORSDOF 5
ENDMDL
MODEL 7
REMARK VINA RESULT:      -7.5      6.880     10.404
REMARK  5 active torsions:
REMARK  status: ('A' for Active; 'I' for Inactive)
REMARK    1  A    between atoms: C_4  and  C_5 
REMARK    2  A    between atoms: C_5  and  N_6 
REMARK       I    between atoms: N_6  and  C_7 
REMARK    3  A    between atoms: C_7  and  C_8 
REMARK    4  A    between atoms: C_11  and  N_12 
REMARK       I    between atoms: N_12  and  C_13 
REMARK    5  A    between atoms: C_13  and  C_14 
ROOT
HETATM    1  C   UNL     1      39.463 -13.041  -0.660  1.00  0.00     0.032 A 
HETATM    2  C   UNL     1      40.140 -12.441   0.407  1.00  0.00     0.019 A 
HETATM    3  C   UNL     1      40.827 -13.227   1.343  1.00  0.00     0.030 A 
HETATM    4  C   UNL     1      40.841 -14.620   1.230  1.00  0.00     0.035 A 
HETATM    5  C   UNL     1      40.154 -15.217   0.167  1.00  0.00     0.030 A 
HETATM    6  C   UNL     1      39.467 -14.436  -0.769  1.00  0.00     0.019 A 
ENDROOT
BRANCH   4   7
HETATM    7  N   UNL     1      41.487 -15.478   2.142  1.00  0.00    -0.323 N 
HETATM    8  C   UNL     1      42.796 -15.920   2.098  1.00  0.00     0.257 C 
HETATM    9  O   UNL     1      43.604 -15.734   1.196  1.00  0.00    -0.267 OA
HETATM   10  H   UNL     1      40.911 -15.835   2.895  1.00  0.00     0.169 HD
BRANCH   8  11
HETATM   11  C   UNL     1      43.218 -16.754   3.247  1.00  0.00     0.047 A 
HETATM   12  C   UNL     1      43.436 -18.142   3.151  1.00  0.00     0.027 A 
HETATM   13  C   UNL     1      43.845 -18.785   4.316  1.00  0.00     0.138 A 
HETATM   14  C   UNL     1      43.326 -19.159   2.155  1.00  0.00     0.033 A 
HETATM   15  N   UNL     1      44.014 -20.114   4.039  1.00  0.00    -0.350 N 
HETATM   16  N   UNL     1      44.047 -18.240   5.529  1.00  0.00    -0.242 NA
HETATM   17  H   UNL     1      44.305 -20.795   4.726  1.00  0.00     0.166 HD
HETATM   18  C   UNL     1      43.700 -20.357   2.728  1.00  0.00     0.090 A 
HETATM   19  C   UNL     1      43.787 -16.915   5.570  1.00  0.00     0.120 A 
HETATM   20  C   UNL     1      43.380 -16.142   4.495  1.00  0.00     0.037 A 
ENDBRANCH   8  11
ENDBRANCH   4   7
BRANCH   1  21
HETATM   21  C   UNL     1      38.702 -12.255  -1.674  1.00  0.00     0.251 C 
HETATM   22  N   UNL     1      37.610 -11.548  -1.222  1.00  0.00    -0.352 N 
HETATM   23  H   UNL     1      37.501 -11.383  -0.231  1.00  0.00     0.163 HD
HETATM   24  O   UNL     1      39.072 -12.237  -2.843  1.00  0.00    -0.268 OA
BRANCH  22  25
HETATM   25  C   UNL     1      36.899 -10.662  -2.114  1.00  0.00     0.169 C 
BRANCH  25  26
HETATM   26  C   UNL     1      35.843  -9.949  -1.335  1.00  0.00     0.000 A 
HETATM   27  S   UNL     1      36.034  -9.690   0.351  1.00  0.00    -0.105 SA
HETATM   28  C   UNL     1      34.529  -8.887   0.462  1.00  0.00     0.050 A 
HETATM   29  C   UNL     1      33.891  -8.812  -0.755  1.00  0.00     0.008 A 
HETATM   30  C   UNL     1      34.648  -9.427  -1.793  1.00  0.00     0.017 A 
ENDBRANCH  25  26
ENDBRANCH  22  25
ENDBRANCH   1  21
TORSDOF 5
ENDMDL
MODEL 8
REMARK VINA RESULT:      -7.5      2.179      3.140
REMARK  5 active torsions:
REMARK  status: ('A' for Active; 'I' for Inactive)
REMARK    1  A    between atoms: C_4  and  C_5 
REMARK    2  A    between atoms: C_5  and  N_6 
REMARK       I    between atoms: N_6  and  C_7 
REMARK    3  A    between atoms: C_7  and  C_8 
REMARK    4  A    between atoms: C_11  and  N_12 
REMARK       I    between atoms: N_12  and  C_13 
REMARK    5  A    between atoms: C_13  and  C_14 
ROOT
HETATM    1  C   UNL     1      43.695 -11.360   5.548  1.00  0.00     0.032 A 
HETATM    2  C   UNL     1      44.684 -11.500   6.527  1.00  0.00     0.019 A 
HETATM    3  C   UNL     1      44.545 -10.866   7.769  1.00  0.00     0.030 A 
HETATM    4  C   UNL     1      43.424 -10.079   8.047  1.00  0.00     0.035 A 
HETATM    5  C   UNL     1      42.441  -9.933   7.061  1.00  0.00     0.030 A 
HETATM    6  C   UNL     1      42.576 -10.565   5.820  1.00  0.00     0.019 A 
ENDROOT
BRANCH   4   7
HETATM    7  N   UNL     1      43.225  -9.391   9.261  1.00  0.00    -0.323 N 
HETATM    8  C   UNL     1      43.529  -8.071   9.538  1.00  0.00     0.257 C 
HETATM    9  O   UNL     1      44.130  -7.288   8.813  1.00  0.00    -0.267 OA
HETATM   10  H   UNL     1      42.847  -9.941  10.022  1.00  0.00     0.169 HD
BRANCH   8  11
HETATM   11  C   UNL     1      43.128  -7.603  10.884  1.00  0.00     0.047 A 
HETATM   12  C   UNL     1      42.490  -6.368  11.111  1.00  0.00     0.027 A 
HETATM   13  C   UNL     1      42.161  -6.075  12.432  1.00  0.00     0.138 A 
HETATM   14  C   UNL     1      42.081  -5.237  10.342  1.00  0.00     0.033 A 
HETATM   15  N   UNL     1      41.549  -4.852  12.465  1.00  0.00    -0.350 N 
HETATM   16  N   UNL     1      42.390  -6.829  13.522  1.00  0.00    -0.242 NA
HETATM   17  H   UNL     1      41.219  -4.416  13.313  1.00  0.00     0.166 HD
HETATM   18  C   UNL     1      41.495  -4.329  11.199  1.00  0.00     0.090 A 
HETATM   19  C   UNL     1      43.035  -7.983  13.250  1.00  0.00     0.120 A 
HETATM   20  C   UNL     1      43.421  -8.411  11.990  1.00  0.00     0.037 A 
ENDBRANCH   8  11
ENDBRANCH   4   7
BRANCH   1  21
HETATM   21  C   UNL     1      43.798 -11.998   4.203  1.00  0.00     0.251 C 
HETATM   22  N   UNL     1      43.032 -13.122   3.986  1.00  0.00    -0.352 N 
HETATM   23  H   UNL     1      42.272 -13.334   4.617  1.00  0.00     0.163 HD
HETATM   24  O   UNL     1      44.518 -11.505   3.341  1.00  0.00    -0.268 OA
BRANCH  22  25
HETATM   25  C   UNL     1      42.977 -13.722   2.673  1.00  0.00     0.169 C 
BRANCH  25  26
HETATM   26  C   UNL     1      43.092 -15.203   2.821  1.00  0.00     0.000 A 
HETATM   27  S   UNL     1      43.139 -15.919   4.381  1.00  0.00    -0.105 SA
HETATM   28  C   UNL     1      43.268 -17.492   3.724  1.00  0.00     0.050 A 
HETATM   29  C   UNL     1      43.273 -17.479   2.348  1.00  0.00     0.008 A 
HETATM   30  C   UNL     1      43.174 -16.158   1.826  1.00  0.00     0.017 A 
ENDBRANCH  25  26
ENDBRANCH  22  25
ENDBRANCH   1  21
TORSDOF 5
ENDMDL
MODEL 9
REMARK VINA RESULT:      -7.5      6.174     12.166
REMARK  5 active torsions:
REMARK  status: ('A' for Active; 'I' for Inactive)
REMARK    1  A    between atoms: C_4  and  C_5 
REMARK    2  A    between atoms: C_5  and  N_6 
REMARK       I    between atoms: N_6  and  C_7 
REMARK    3  A    between atoms: C_7  and  C_8 
REMARK    4  A    between atoms: C_11  and  N_12 
REMARK       I    between atoms: N_12  and  C_13 
REMARK    5  A    between atoms: C_13  and  C_14 
ROOT
HETATM    1  C   UNL     1      41.849  -7.923  14.858  1.00  0.00     0.032 A 
HETATM    2  C   UNL     1      41.215  -9.030  14.284  1.00  0.00     0.019 A 
HETATM    3  C   UNL     1      41.712  -9.596  13.102  1.00  0.00     0.030 A 
HETATM    4  C   UNL     1      42.839  -9.062  12.474  1.00  0.00     0.035 A 
HETATM    5  C   UNL     1      43.465  -7.948  13.046  1.00  0.00     0.030 A 
HETATM    6  C   UNL     1      42.973  -7.380  14.226  1.00  0.00     0.019 A 
ENDROOT
BRANCH   4   7
HETATM    7  N   UNL     1      43.382  -9.558  11.272  1.00  0.00    -0.323 N 
HETATM    8  C   UNL     1      42.978  -9.266   9.983  1.00  0.00     0.257 C 
HETATM    9  O   UNL     1      42.001  -8.606   9.651  1.00  0.00    -0.267 OA
HETATM   10  H   UNL     1      44.132 -10.232  11.373  1.00  0.00     0.169 HD
BRANCH   8  11
HETATM   11  C   UNL     1      43.797  -9.879   8.912  1.00  0.00     0.047 A 
HETATM   12  C   UNL     1      43.270 -10.261   7.663  1.00  0.00     0.027 A 
HETATM   13  C   UNL     1      44.170 -10.811   6.754  1.00  0.00     0.138 A 
HETATM   14  C   UNL     1      41.995 -10.282   7.020  1.00  0.00     0.033 A 
HETATM   15  N   UNL     1      43.493 -11.115   5.606  1.00  0.00    -0.350 N 
HETATM   16  N   UNL     1      45.485 -11.032   6.931  1.00  0.00    -0.242 NA
HETATM   17  H   UNL     1      43.928 -11.531   4.795  1.00  0.00     0.166 HD
HETATM   18  C   UNL     1      42.167 -10.799   5.753  1.00  0.00     0.090 A 
HETATM   19  C   UNL     1      45.927 -10.681   8.158  1.00  0.00     0.120 A 
HETATM   20  C   UNL     1      45.154 -10.119   9.161  1.00  0.00     0.037 A 
ENDBRANCH   8  11
ENDBRANCH   4   7
BRANCH   1  21
HETATM   21  C   UNL     1      41.356  -7.270  16.105  1.00  0.00     0.251 C 
HETATM   22  N   UNL     1      40.836  -8.096  17.077  1.00  0.00    -0.352 N 
HETATM   23  H   UNL     1      41.019  -9.089  17.035  1.00  0.00     0.163 HD
HETATM   24  O   UNL     1      41.446  -6.055  16.241  1.00  0.00    -0.268 OA
BRANCH  22  25
HETATM   25  C   UNL     1      40.457  -7.556  18.363  1.00  0.00     0.169 C 
BRANCH  25  26
HETATM   26  C   UNL     1      41.273  -8.225  19.419  1.00  0.00     0.000 A 
HETATM   27  S   UNL     1      40.574  -9.425  20.428  1.00  0.00    -0.105 SA
HETATM   28  C   UNL     1      42.039  -9.655  21.277  1.00  0.00     0.050 A 
HETATM   29  C   UNL     1      43.044  -8.841  20.806  1.00  0.00     0.008 A 
HETATM   30  C   UNL     1      42.602  -8.013  19.735  1.00  0.00     0.017 A 
ENDBRANCH  25  26
ENDBRANCH  22  25
ENDBRANCH   1  21
TORSDOF 5
ENDMDL
MODEL 10
REMARK VINA RESULT:      -7.4      6.529      9.652
REMARK  5 active torsions:
REMARK  status: ('A' for Active; 'I' for Inactive)
REMARK    1  A    between atoms: C_4  and  C_5 
REMARK    2  A    between atoms: C_5  and  N_6 
REMARK       I    between atoms: N_6  and  C_7 
REMARK    3  A    between atoms: C_7  and  C_8 
REMARK    4  A    between atoms: C_11  and  N_12 
REMARK       I    between atoms: N_12  and  C_13 
REMARK    5  A    between atoms: C_13  and  C_14 
ROOT
HETATM    1  C   UNL     1      39.582 -12.897   0.191  1.00  0.00     0.032 A 
HETATM    2  C   UNL     1      39.669 -14.187  -0.343  1.00  0.00     0.019 A 
HETATM    3  C   UNL     1      40.288 -15.214   0.383  1.00  0.00     0.030 A 
HETATM    4  C   UNL     1      40.833 -14.966   1.645  1.00  0.00     0.035 A 
HETATM    5  C   UNL     1      40.753 -13.671   2.172  1.00  0.00     0.030 A 
HETATM    6  C   UNL     1      40.136 -12.644   1.450  1.00  0.00     0.019 A 
ENDROOT
BRANCH   4   7
HETATM    7  N   UNL     1      41.491 -15.938   2.424  1.00  0.00    -0.323 N 
HETATM    8  C   UNL     1      42.848 -16.199   2.473  1.00  0.00     0.257 C 
HETATM    9  O   UNL     1      43.717 -15.707   1.763  1.00  0.00    -0.267 OA
HETATM   10  H   UNL     1      40.893 -16.532   2.985  1.00  0.00     0.169 HD
BRANCH   8  11
HETATM   11  C   UNL     1      43.256 -17.232   3.453  1.00  0.00     0.047 A 
HETATM   12  C   UNL     1      43.112 -17.071   4.845  1.00  0.00     0.027 A 
HETATM   13  C   UNL     1      43.528 -18.139   5.637  1.00  0.00     0.138 A 
HETATM   14  C   UNL     1      42.666 -16.059   5.748  1.00  0.00     0.033 A 
HETATM   15  N   UNL     1      43.311 -17.814   6.947  1.00  0.00    -0.350 N 
HETATM   16  N   UNL     1      44.062 -19.304   5.230  1.00  0.00    -0.242 NA
HETATM   17  H   UNL     1      43.536 -18.426   7.718  1.00  0.00     0.166 HD
HETATM   18  C   UNL     1      42.788 -16.550   7.030  1.00  0.00     0.090 A 
HETATM   19  C   UNL     1      44.209 -19.388   3.890  1.00  0.00     0.120 A 
HETATM   20  C   UNL     1      43.838 -18.413   2.978  1.00  0.00     0.037 A 
ENDBRANCH   8  11
ENDBRANCH   4   7
BRANCH   1  21
HETATM   21  C   UNL     1      38.951 -11.762  -0.544  1.00  0.00     0.251 C 
HETATM   22  N   UNL     1      39.614 -10.556  -0.516  1.00  0.00    -0.352 N 
HETATM   23  H   UNL     1      40.582 -10.528  -0.227  1.00  0.00     0.163 HD
HETATM   24  O   UNL     1      37.903 -11.933  -1.158  1.00  0.00    -0.268 OA
BRANCH  22  25
HETATM   25  C   UNL     1      39.137  -9.445  -1.307  1.00  0.00     0.169 C 
BRANCH  25  26
HETATM   26  C   UNL     1      40.316  -8.685  -1.819  1.00  0.00     0.000 A 
HETATM   27  S   UNL     1      40.098  -7.367  -2.896  1.00  0.00    -0.105 SA
HETATM   28  C   UNL     1      41.781  -7.080  -2.987  1.00  0.00     0.050 A 
HETATM   29  C   UNL     1      42.499  -7.965  -2.214  1.00  0.00     0.008 A 
HETATM   30  C   UNL     1      41.654  -8.892  -1.541  1.00  0.00     0.017 A 
ENDBRANCH  25  26
ENDBRANCH  22  25
ENDBRANCH   1  21
TORSDOF 5
ENDMDL
