MODEL 1
REMARK VINA RESULT:      -7.8      0.000      0.000
REMARK  6 active torsions:
REMARK  status: ('A' for Active; 'I' for Inactive)
REMARK    1  A    between atoms: C_9  and  C_10 
REMARK       I    between atoms: C_10  and  N_11 
REMARK    2  A    between atoms: N_11  and  C_12 
REMARK    3  A    between atoms: C_12  and  C_13 
REMARK    4  A    between atoms: C_13  and  O_14 
REMARK    5  A    between atoms: C_13  and  C_15 
REMARK    6  A    between atoms: C_18  and  O_19 
ROOT
HETATM    1  C   UNL     1      40.878 -13.988   3.783  1.00  0.00     0.258 C 
HETATM    2  N   UNL     1      41.187 -12.958   2.927  1.00  0.00    -0.350 N 
HETATM    3  O   UNL     1      40.204 -13.830   4.796  1.00  0.00    -0.267 OA
HETATM    4  H   UNL     1      41.658 -13.192   2.053  1.00  0.00     0.163 HD
ENDROOT
BRANCH   2   5
HETATM    5  C   UNL     1      40.598 -11.628   3.044  1.00  0.00     0.114 C 
HETATM    6  C   UNL     1      39.807 -11.322   1.769  1.00  0.00     0.035 C 
BRANCH   5   7
HETATM    7  C   UNL     1      41.673 -10.537   3.297  1.00  0.00     0.173 C 
BRANCH   7   8
HETATM    8  O   UNL     1      42.538 -10.405   2.160  1.00  0.00    -0.389 OA
HETATM    9  H   UNL     1      43.445 -10.358   2.507  1.00  0.00     0.210 HD
ENDBRANCH   7   8
BRANCH   7  10
HETATM   10  C   UNL     1      42.481 -10.772   4.560  1.00  0.00    -0.028 A 
HETATM   11  C   UNL     1      43.745 -11.372   4.478  1.00  0.00     0.012 A 
HETATM   12  C   UNL     1      44.504 -11.589   5.630  1.00  0.00     0.037 A 
HETATM   13  C   UNL     1      44.021 -11.210   6.885  1.00  0.00     0.068 A 
HETATM   14  C   UNL     1      42.771 -10.600   6.975  1.00  0.00     0.037 A 
HETATM   15  C   UNL     1      42.010 -10.378   5.821  1.00  0.00     0.012 A 
BRANCH  13  16
HETATM   16  O   UNL     1      44.862 -11.486   7.926  1.00  0.00    -0.356 OA
HETATM   17  C   UNL     1      45.727 -10.440   8.349  1.00  0.00     0.210 C 
ENDBRANCH  13  16
ENDBRANCH   7  10
ENDBRANCH   5   7
ENDBRANCH   2   5
BRANCH   1  18
HETATM   18  C   UNL     1      41.390 -15.292   3.390  1.00  0.00     0.105 A 
HETATM   19  C   UNL     1      42.388 -16.033   4.000  1.00  0.00     0.169 A 
HETATM   20  N   UNL     1      43.151 -15.787   5.114  1.00  0.00    -0.233 NA
HETATM   21  N   UNL     1      42.556 -17.185   3.224  1.00  0.00    -0.219 N 
HETATM   22  C   UNL     1      44.064 -16.670   5.400  1.00  0.00     0.035 A 
HETATM   23  C   UNL     1      44.918 -16.440   6.621  1.00  0.00     0.070 C 
HETATM   24  C   UNL     1      44.319 -17.923   4.623  1.00  0.00     0.053 A 
HETATM   25  C   UNL     1      43.537 -18.134   3.550  1.00  0.00     0.036 A 
HETATM   26  C   UNL     1      43.672 -19.337   2.669  1.00  0.00     0.070 C 
HETATM   27  N   UNL     1      41.683 -17.221   2.189  1.00  0.00    -0.170 NA
HETATM   28  C   UNL     1      40.989 -16.082   2.282  1.00  0.00     0.071 A 
HETATM   29  C   UNL     1      39.937 -15.773   1.278  1.00  0.00     0.073 C 
ENDBRANCH   1  18
TORSDOF 6
ENDMDL
MODEL 2
REMARK VINA RESULT:      -7.8      3.008      6.055
REMARK  6 active torsions:
REMARK  status: ('A' for Active; 'I' for Inactive)
REMARK    1  A    between atoms: C_9  and  C_10 
REMARK       I    between atoms: C_10  and  N_11 
REMARK    2  A    between atoms: N_11  and  C_12 
REMARK    3  A    between atoms: C_12  and  C_13 
REMARK    4  A    between atoms: C_13  and  O_14 
REMARK    5  A    between atoms: C_13  and  C_15 
REMARK    6  A    between atoms: C_18  and  O_19 
ROOT
HETATM    1  C   UNL     1      42.858 -15.469   3.197  1.00  0.00     0.258 C 
HETATM    2  N   UNL     1      41.567 -15.050   3.409  1.00  0.00    -0.350 N 
HETATM    3  O   UNL     1      43.610 -14.924   2.395  1.00  0.00    -0.267 OA
HETATM    4  H   UNL     1      41.044 -15.486   4.169  1.00  0.00     0.163 HD
ENDROOT
BRANCH   2   5
HETATM    5  C   UNL     1      41.030 -13.818   2.840  1.00  0.00     0.114 C 
HETATM    6  C   UNL     1      40.639 -12.874   3.980  1.00  0.00     0.035 C 
BRANCH   5   7
HETATM    7  C   UNL     1      39.817 -14.087   1.911  1.00  0.00     0.173 C 
BRANCH   7   8
HETATM    8  O   UNL     1      39.417 -15.463   1.986  1.00  0.00    -0.389 OA
HETATM    9  H   UNL     1      39.300 -15.666   2.930  1.00  0.00     0.210 HD
ENDBRANCH   7   8
BRANCH   7  10
HETATM   10  C   UNL     1      40.063 -13.680   0.469  1.00  0.00    -0.028 A 
HETATM   11  C   UNL     1      40.694 -12.462   0.187  1.00  0.00     0.012 A 
HETATM   12  C   UNL     1      40.932 -12.075  -1.134  1.00  0.00     0.037 A 
HETATM   13  C   UNL     1      40.549 -12.895  -2.198  1.00  0.00     0.068 A 
HETATM   14  C   UNL     1      39.933 -14.116  -1.927  1.00  0.00     0.037 A 
HETATM   15  C   UNL     1      39.696 -14.507  -0.604  1.00  0.00     0.012 A 
BRANCH  13  16
HETATM   16  O   UNL     1      40.836 -12.393  -3.437  1.00  0.00    -0.356 OA
HETATM   17  C   UNL     1      40.926 -10.978  -3.552  1.00  0.00     0.210 C 
ENDBRANCH  13  16
ENDBRANCH   7  10
ENDBRANCH   5   7
ENDBRANCH   2   5
BRANCH   1  18
HETATM   18  C   UNL     1      43.282 -16.598   4.010  1.00  0.00     0.105 A 
HETATM   19  C   UNL     1      43.449 -17.915   3.617  1.00  0.00     0.169 A 
HETATM   20  N   UNL     1      43.291 -18.527   2.399  1.00  0.00    -0.233 NA
HETATM   21  N   UNL     1      43.815 -18.628   4.764  1.00  0.00    -0.219 N 
HETATM   22  C   UNL     1      43.470 -19.816   2.368  1.00  0.00     0.035 A 
HETATM   23  C   UNL     1      43.312 -20.524   1.046  1.00  0.00     0.070 C 
HETATM   24  C   UNL     1      43.852 -20.658   3.545  1.00  0.00     0.053 A 
HETATM   25  C   UNL     1      44.016 -20.015   4.714  1.00  0.00     0.036 A 
HETATM   26  C   UNL     1      44.393 -20.717   5.982  1.00  0.00     0.070 C 
HETATM   27  N   UNL     1      43.929 -17.815   5.841  1.00  0.00    -0.170 NA
HETATM   28  C   UNL     1      43.600 -16.598   5.393  1.00  0.00     0.071 A 
HETATM   29  C   UNL     1      43.598 -15.442   6.327  1.00  0.00     0.073 C 
ENDBRANCH   1  18
TORSDOF 6
ENDMDL
MODEL 3
REMARK VINA RESULT:      -7.8      3.614      7.452
REMARK  6 active torsions:
REMARK  status: ('A' for Active; 'I' for Inactive)
REMARK    1  A    between atoms: C_9  and  C_10 
REMARK       I    between atoms: C_10  and  N_11 
REMARK    2  A    between atoms: N_11  and  C_12 
REMARK    3  A    between atoms: C_12  and  C_13 
REMARK    4  A    between atoms: C_13  and  O_14 
REMARK    5  A    between atoms: C_13  and  C_15 
REMARK    6  A    between atoms: C_18  and  O_19 
ROOT
HETATM    1  C   UNL     1      40.195 -14.638   0.495  1.00  0.00     0.258 C 
HETATM    2  N   UNL     1      41.123 -14.156   1.386  1.00  0.00    -0.350 N 
HETATM    3  O   UNL     1      39.690 -15.752   0.601  1.00  0.00    -0.267 OA
HETATM    4  H   UNL     1      41.411 -13.182   1.291  1.00  0.00     0.163 HD
ENDROOT
BRANCH   2   5
HETATM    5  C   UNL     1      41.459 -14.842   2.629  1.00  0.00     0.114 C 
HETATM    6  C   UNL     1      41.034 -13.965   3.811  1.00  0.00     0.035 C 
BRANCH   5   7
HETATM    7  C   UNL     1      42.970 -15.182   2.715  1.00  0.00     0.173 C 
BRANCH   7   8
HETATM    8  O   UNL     1      43.652 -14.764   1.524  1.00  0.00    -0.389 OA
HETATM    9  H   UNL     1      43.267 -13.908   1.271  1.00  0.00     0.210 HD
ENDBRANCH   7   8
BRANCH   7  10
HETATM   10  C   UNL     1      43.241 -16.648   3.000  1.00  0.00    -0.028 A 
HETATM   11  C   UNL     1      43.703 -17.039   4.263  1.00  0.00     0.012 A 
HETATM   12  C   UNL     1      43.951 -18.385   4.543  1.00  0.00     0.037 A 
HETATM   13  C   UNL     1      43.741 -19.366   3.572  1.00  0.00     0.068 A 
HETATM   14  C   UNL     1      43.269 -18.989   2.316  1.00  0.00     0.037 A 
HETATM   15  C   UNL     1      43.016 -17.641   2.034  1.00  0.00     0.012 A 
BRANCH  13  16
HETATM   16  O   UNL     1      44.030 -20.640   3.977  1.00  0.00    -0.356 OA
HETATM   17  C   UNL     1      44.262 -20.836   5.366  1.00  0.00     0.210 C 
ENDBRANCH  13  16
ENDBRANCH   7  10
ENDBRANCH   5   7
ENDBRANCH   2   5
BRANCH   1  18
HETATM   18  C   UNL     1      39.832 -13.724  -0.576  1.00  0.00     0.105 A 
HETATM   19  C   UNL     1      39.962 -12.345  -0.598  1.00  0.00     0.169 A 
HETATM   20  N   UNL     1      40.462 -11.464   0.328  1.00  0.00    -0.233 NA
HETATM   21  N   UNL     1      39.427 -11.917  -1.818  1.00  0.00    -0.219 N 
HETATM   22  C   UNL     1      40.388 -10.200   0.026  1.00  0.00     0.035 A 
HETATM   23  C   UNL     1      40.934  -9.200   1.015  1.00  0.00     0.070 C 
HETATM   24  C   UNL     1      39.825  -9.653  -1.247  1.00  0.00     0.053 A 
HETATM   25  C   UNL     1      39.363 -10.552  -2.134  1.00  0.00     0.036 A 
HETATM   26  C   UNL     1      38.767 -10.162  -3.451  1.00  0.00     0.070 C 
HETATM   27  N   UNL     1      39.013 -12.961  -2.575  1.00  0.00    -0.170 NA
HETATM   28  C   UNL     1      39.247 -14.044  -1.827  1.00  0.00     0.071 A 
HETATM   29  C   UNL     1      38.890 -15.391  -2.346  1.00  0.00     0.073 C 
ENDBRANCH   1  18
TORSDOF 6
ENDMDL
MODEL 4
REMARK VINA RESULT:      -7.6      3.249      7.373
REMARK  6 active torsions:
REMARK  status: ('A' for Active; 'I' for Inactive)
REMARK    1  A    between atoms: C_9  and  C_10 
REMARK       I    between atoms: C_10  and  N_11 
REMARK    2  A    between atoms: N_11  and  C_12 
REMARK    3  A    between atoms: C_12  and  C_13 
REMARK    4  A    between atoms: C_13  and  O_14 
REMARK    5  A    between atoms: C_13  and  C_15 
REMARK    6  A    between atoms: C_18  and  O_19 
ROOT
HETATM    1  C   UNL     1      39.979 -13.016   2.243  1.00  0.00     0.258 C 
HETATM    2  N   UNL     1      41.257 -13.232   1.790  1.00  0.00    -0.350 N 
HETATM    3  O   UNL     1      39.587 -13.406   3.339  1.00  0.00    -0.267 OA
HETATM    4  H   UNL     1      41.535 -12.782   0.918  1.00  0.00     0.163 HD
ENDROOT
BRANCH   2   5
HETATM    5  C   UNL     1      42.314 -13.783   2.633  1.00  0.00     0.114 C 
HETATM    6  C   UNL     1      43.263 -12.652   3.040  1.00  0.00     0.035 C 
BRANCH   5   7
HETATM    7  C   UNL     1      43.091 -14.921   1.921  1.00  0.00     0.173 C 
BRANCH   7   8
HETATM    8  O   UNL     1      42.425 -15.311   0.711  1.00  0.00    -0.389 OA
HETATM    9  H   UNL     1      41.975 -14.517   0.376  1.00  0.00     0.210 HD
ENDBRANCH   7   8
BRANCH   7  10
HETATM   10  C   UNL     1      43.336 -16.128   2.809  1.00  0.00    -0.028 A 
HETATM   11  C   UNL     1      43.447 -15.962   4.196  1.00  0.00     0.012 A 
HETATM   12  C   UNL     1      43.667 -17.063   5.027  1.00  0.00     0.037 A 
HETATM   13  C   UNL     1      43.777 -18.349   4.494  1.00  0.00     0.068 A 
HETATM   14  C   UNL     1      43.654 -18.526   3.116  1.00  0.00     0.037 A 
HETATM   15  C   UNL     1      43.430 -17.425   2.282  1.00  0.00     0.012 A 
BRANCH  13  16
HETATM   16  O   UNL     1      43.997 -19.333   5.418  1.00  0.00    -0.356 OA
HETATM   17  C   UNL     1      44.085 -20.665   4.929  1.00  0.00     0.210 C 
ENDBRANCH  13  16
ENDBRANCH   7  10
ENDBRANCH   5   7
ENDBRANCH   2   5
BRANCH   1  18
HETATM   18  C   UNL     1      39.121 -12.267   1.338  1.00  0.00     0.105 A 
HETATM   19  C   UNL     1      38.782 -12.581   0.033  1.00  0.00     0.169 A 
HETATM   20  N   UNL     1      39.118 -13.648  -0.763  1.00  0.00    -0.233 NA
HETATM   21  N   UNL     1      37.981 -11.532  -0.432  1.00  0.00    -0.219 N 
HETATM   22  C   UNL     1      38.678 -13.621  -1.988  1.00  0.00     0.035 A 
HETATM   23  C   UNL     1      39.020 -14.779  -2.891  1.00  0.00     0.070 C 
HETATM   24  C   UNL     1      37.826 -12.538  -2.570  1.00  0.00     0.053 A 
HETATM   25  C   UNL     1      37.504 -11.521  -1.751  1.00  0.00     0.036 A 
HETATM   26  C   UNL     1      36.664 -10.361  -2.186  1.00  0.00     0.070 C 
HETATM   27  N   UNL     1      37.768 -10.603   0.531  1.00  0.00    -0.170 NA
HETATM   28  C   UNL     1      38.458 -11.038   1.590  1.00  0.00     0.071 A 
HETATM   29  C   UNL     1      38.466 -10.242   2.846  1.00  0.00     0.073 C 
ENDBRANCH   1  18
TORSDOF 6
ENDMDL
MODEL 5
REMARK VINA RESULT:      -7.5      2.342      4.143
REMARK  6 active torsions:
REMARK  status: ('A' for Active; 'I' for Inactive)
REMARK    1  A    between atoms: C_9  and  C_10 
REMARK       I    between atoms: C_10  and  N_11 
REMARK    2  A    between atoms: N_11  and  C_12 
REMARK    3  A    between atoms: C_12  and  C_13 
REMARK    4  A    between atoms: C_13  and  O_14 
REMARK    5  A    between atoms: C_13  and  C_15 
REMARK    6  A    between atoms: C_18  and  O_19 
ROOT
HETATM    1  C   UNL     1      42.701 -13.915   6.191  1.00  0.00     0.258 C 
HETATM    2  N   UNL     1      43.717 -12.992   6.132  1.00  0.00    -0.350 N 
HETATM    3  O   UNL     1      41.528 -13.601   6.373  1.00  0.00    -0.267 OA
HETATM    4  H   UNL     1      44.645 -13.323   5.869  1.00  0.00     0.163 HD
ENDROOT
BRANCH   2   5
HETATM    5  C   UNL     1      43.479 -11.552   6.100  1.00  0.00     0.114 C 
HETATM    6  C   UNL     1      43.212 -11.126   4.653  1.00  0.00     0.035 C 
BRANCH   5   7
HETATM    7  C   UNL     1      44.667 -10.753   6.697  1.00  0.00     0.173 C 
BRANCH   7   8
HETATM    8  O   UNL     1      45.856 -11.556   6.722  1.00  0.00    -0.389 OA
HETATM    9  H   UNL     1      46.480 -11.107   7.318  1.00  0.00     0.210 HD
ENDBRANCH   7   8
BRANCH   7  10
HETATM   10  C   UNL     1      44.377 -10.184   8.073  1.00  0.00    -0.028 A 
HETATM   11  C   UNL     1      45.366 -10.218   9.065  1.00  0.00     0.012 A 
HETATM   12  C   UNL     1      45.116  -9.693  10.335  1.00  0.00     0.037 A 
HETATM   13  C   UNL     1      43.879  -9.121  10.641  1.00  0.00     0.068 A 
HETATM   14  C   UNL     1      42.893  -9.069   9.656  1.00  0.00     0.037 A 
HETATM   15  C   UNL     1      43.142  -9.592   8.382  1.00  0.00     0.012 A 
BRANCH  13  16
HETATM   16  O   UNL     1      43.769  -8.652  11.920  1.00  0.00    -0.356 OA
HETATM   17  C   UNL     1      42.737  -9.213  12.723  1.00  0.00     0.210 C 
ENDBRANCH  13  16
ENDBRANCH   7  10
ENDBRANCH   5   7
ENDBRANCH   2   5
BRANCH   1  18
HETATM   18  C   UNL     1      43.110 -15.297   5.999  1.00  0.00     0.105 A 
HETATM   19  C   UNL     1      43.266 -15.980   4.806  1.00  0.00     0.169 A 
HETATM   20  N   UNL     1      43.110 -15.581   3.501  1.00  0.00    -0.233 NA
HETATM   21  N   UNL     1      43.619 -17.292   5.143  1.00  0.00    -0.219 N 
HETATM   22  C   UNL     1      43.277 -16.494   2.589  1.00  0.00     0.035 A 
HETATM   23  C   UNL     1      43.121 -16.092   1.144  1.00  0.00     0.070 C 
HETATM   24  C   UNL     1      43.644 -17.919   2.859  1.00  0.00     0.053 A 
HETATM   25  C   UNL     1      43.807 -18.264   4.149  1.00  0.00     0.036 A 
HETATM   26  C   UNL     1      44.169 -19.650   4.581  1.00  0.00     0.070 C 
HETATM   27  N   UNL     1      43.733 -17.448   6.483  1.00  0.00    -0.170 NA
HETATM   28  C   UNL     1      43.419 -16.255   6.999  1.00  0.00     0.071 A 
HETATM   29  C   UNL     1      43.421 -16.064   8.473  1.00  0.00     0.073 C 
ENDBRANCH   1  18
TORSDOF 6
ENDMDL
MODEL 6
REMARK VINA RESULT:      -7.4      3.051      7.757
REMARK  6 active torsions:
REMARK  status: ('A' for Active; 'I' for Inactive)
REMARK    1  A    between atoms: C_9  and  C_10 
REMARK       I    between atoms: C_10  and  N_11 
REMARK    2  A    between atoms: N_11  and  C_12 
REMARK    3  A    between atoms: C_12  and  C_13 
REMARK    4  A    between atoms: C_13  and  O_14 
REMARK    5  A    between atoms: C_13  and  C_15 
REMARK    6  A    between atoms: C_18  and  O_19 
ROOT
HETATM    1  C   UNL     1      43.982 -11.586   5.252  1.00  0.00     0.258 C 
HETATM    2  N   UNL     1      43.014 -12.529   5.006  1.00  0.00    -0.350 N 
HETATM    3  O   UNL     1      44.895 -11.351   4.465  1.00  0.00    -0.267 OA
HETATM    4  H   UNL     1      42.231 -12.587   5.657  1.00  0.00     0.163 HD
ENDROOT
BRANCH   2   5
HETATM    5  C   UNL     1      42.876 -13.207   3.721  1.00  0.00     0.114 C 
HETATM    6  C   UNL     1      42.465 -12.181   2.661  1.00  0.00     0.035 C 
BRANCH   5   7
HETATM    7  C   UNL     1      41.851 -14.370   3.785  1.00  0.00     0.173 C 
BRANCH   7   8
HETATM    8  O   UNL     1      41.086 -14.306   4.997  1.00  0.00    -0.389 OA
HETATM    9  H   UNL     1      41.488 -14.945   5.611  1.00  0.00     0.210 HD
ENDBRANCH   7   8
BRANCH   7  10
HETATM   10  C   UNL     1      42.486 -15.739   3.624  1.00  0.00    -0.028 A 
HETATM   11  C   UNL     1      42.272 -16.474   2.450  1.00  0.00     0.012 A 
HETATM   12  C   UNL     1      42.854 -17.733   2.285  1.00  0.00     0.037 A 
HETATM   13  C   UNL     1      43.662 -18.283   3.283  1.00  0.00     0.068 A 
HETATM   14  C   UNL     1      43.892 -17.554   4.448  1.00  0.00     0.037 A 
HETATM   15  C   UNL     1      43.313 -16.290   4.615  1.00  0.00     0.012 A 
BRANCH  13  16
HETATM   16  O   UNL     1      44.161 -19.522   2.993  1.00  0.00    -0.356 OA
HETATM   17  C   UNL     1      43.575 -20.211   1.896  1.00  0.00     0.210 C 
ENDBRANCH  13  16
ENDBRANCH   7  10
ENDBRANCH   5   7
ENDBRANCH   2   5
BRANCH   1  18
HETATM   18  C   UNL     1      43.838 -10.864   6.506  1.00  0.00     0.105 A 
HETATM   19  C   UNL     1      42.681 -10.346   7.061  1.00  0.00     0.169 A 
HETATM   20  N   UNL     1      41.377 -10.366   6.631  1.00  0.00    -0.233 NA
HETATM   21  N   UNL     1      43.062  -9.698   8.241  1.00  0.00    -0.219 N 
HETATM   22  C   UNL     1      40.513  -9.724   7.363  1.00  0.00     0.035 A 
HETATM   23  C   UNL     1      39.069  -9.730   6.927  1.00  0.00     0.070 C 
HETATM   24  C   UNL     1      40.834  -8.998   8.631  1.00  0.00     0.053 A 
HETATM   25  C   UNL     1      42.119  -9.019   9.026  1.00  0.00     0.036 A 
HETATM   26  C   UNL     1      42.598  -8.336  10.269  1.00  0.00     0.070 C 
HETATM   27  N   UNL     1      44.391  -9.825   8.472  1.00  0.00    -0.170 NA
HETATM   28  C   UNL     1      44.859 -10.517   7.428  1.00  0.00     0.071 A 
HETATM   29  C   UNL     1      46.310 -10.830   7.339  1.00  0.00     0.073 C 
ENDBRANCH   1  18
TORSDOF 6
ENDMDL
MODEL 7
REMARK VINA RESULT:      -7.3      1.792      3.235
REMARK  6 active torsions:
REMARK  status: ('A' for Active; 'I' for Inactive)
REMARK    1  A    between atoms: C_9  and  C_10 
REMARK       I    between atoms: C_10  and  N_11 
REMARK    2  A    between atoms: N_11  and  C_12 
REMARK    3  A    between atoms: C_12  and  C_13 
REMARK    4  A    between atoms: C_13  and  O_14 
REMARK    5  A    between atoms: C_13  and  C_15 
REMARK    6  A    between atoms: C_18  and  O_19 
ROOT
HETATM    1  C   UNL     1      42.477 -14.237   5.772  1.00  0.00     0.258 C 
HETATM    2  N   UNL     1      42.840 -13.543   4.643  1.00  0.00    -0.350 N 
HETATM    3  O   UNL     1      41.784 -13.748   6.658  1.00  0.00    -0.267 OA
HETATM    4  H   UNL     1      43.325 -14.054   3.906  1.00  0.00     0.163 HD
ENDROOT
BRANCH   2   5
HETATM    5  C   UNL     1      42.293 -12.232   4.309  1.00  0.00     0.114 C 
HETATM    6  C   UNL     1      41.730 -12.278   2.886  1.00  0.00     0.035 C 
BRANCH   5   7
HETATM    7  C   UNL     1      43.354 -11.108   4.443  1.00  0.00     0.173 C 
BRANCH   7   8
HETATM    8  O   UNL     1      44.428 -11.312   3.513  1.00  0.00    -0.389 OA
HETATM    9  H   UNL     1      45.209 -11.549   4.042  1.00  0.00     0.210 HD
ENDBRANCH   7   8
BRANCH   7  10
HETATM   10  C   UNL     1      43.890 -10.952   5.854  1.00  0.00    -0.028 A 
HETATM   11  C   UNL     1      43.057 -10.460   6.867  1.00  0.00     0.012 A 
HETATM   12  C   UNL     1      43.534 -10.316   8.172  1.00  0.00     0.037 A 
HETATM   13  C   UNL     1      44.847 -10.664   8.494  1.00  0.00     0.068 A 
HETATM   14  C   UNL     1      45.680 -11.168   7.496  1.00  0.00     0.037 A 
HETATM   15  C   UNL     1      45.204 -11.316   6.188  1.00  0.00     0.012 A 
BRANCH  13  16
HETATM   16  O   UNL     1      45.184 -10.467   9.804  1.00  0.00    -0.356 OA
HETATM   17  C   UNL     1      44.125 -10.508  10.753  1.00  0.00     0.210 C 
ENDBRANCH  13  16
ENDBRANCH   7  10
ENDBRANCH   5   7
ENDBRANCH   2   5
BRANCH   1  18
HETATM   18  C   UNL     1      42.956 -15.609   5.834  1.00  0.00     0.105 A 
HETATM   19  C   UNL     1      43.185 -16.479   4.781  1.00  0.00     0.169 A 
HETATM   20  N   UNL     1      43.056 -16.318   3.424  1.00  0.00    -0.233 NA
HETATM   21  N   UNL     1      43.585 -17.693   5.350  1.00  0.00    -0.219 N 
HETATM   22  C   UNL     1      43.297 -17.365   2.689  1.00  0.00     0.035 A 
HETATM   23  C   UNL     1      43.174 -17.226   1.192  1.00  0.00     0.070 C 
HETATM   24  C   UNL     1      43.720 -18.702   3.211  1.00  0.00     0.053 A 
HETATM   25  C   UNL     1      43.852 -18.810   4.545  1.00  0.00     0.036 A 
HETATM   26  C   UNL     1      44.263 -20.082   5.221  1.00  0.00     0.070 C 
HETATM   27  N   UNL     1      43.659 -17.610   6.700  1.00  0.00    -0.170 NA
HETATM   28  C   UNL     1      43.273 -16.364   6.992  1.00  0.00     0.071 A 
HETATM   29  C   UNL     1      43.215 -15.922   8.411  1.00  0.00     0.073 C 
ENDBRANCH   1  18
TORSDOF 6
ENDMDL
MODEL 8
REMARK VINA RESULT:      -7.3      1.537      1.867
REMARK  6 active torsions:
REMARK  status: ('A' for Active; 'I' for Inactive)
REMARK    1  A    between atoms: C_9  and  C_10 
REMARK       I    between atoms: C_10  and  N_11 
REMARK    2  A    between atoms: N_11  and  C_12 
REMARK    3  A    between atoms: C_12  and  C_13 
REMARK    4  A    between atoms: C_13  and  O_14 
REMARK    5  A    between atoms: C_13  and  C_15 
REMARK    6  A    between atoms: C_18  and  O_19 
ROOT
HETATM    1  C   UNL     1      42.247 -14.690   4.362  1.00  0.00     0.258 C 
HETATM    2  N   UNL     1      42.630 -13.538   3.718  1.00  0.00    -0.350 N 
HETATM    3  O   UNL     1      41.624 -14.683   5.420  1.00  0.00    -0.267 OA
HETATM    4  H   UNL     1      43.048 -13.628   2.792  1.00  0.00     0.163 HD
ENDROOT
BRANCH   2   5
HETATM    5  C   UNL     1      42.180 -12.213   4.131  1.00  0.00     0.114 C 
HETATM    6  C   UNL     1      41.141 -11.707   3.126  1.00  0.00     0.035 C 
BRANCH   5   7
HETATM    7  C   UNL     1      43.358 -11.211   4.252  1.00  0.00     0.173 C 
BRANCH   7   8
HETATM    8  O   UNL     1      44.424 -11.571   3.360  1.00  0.00    -0.389 OA
HETATM    9  H   UNL     1      45.235 -11.595   3.896  1.00  0.00     0.210 HD
ENDBRANCH   7   8
BRANCH   7  10
HETATM   10  C   UNL     1      43.876 -11.060   5.670  1.00  0.00    -0.028 A 
HETATM   11  C   UNL     1      45.222 -11.325   5.954  1.00  0.00     0.012 A 
HETATM   12  C   UNL     1      45.715 -11.186   7.253  1.00  0.00     0.037 A 
HETATM   13  C   UNL     1      44.878 -10.776   8.294  1.00  0.00     0.068 A 
HETATM   14  C   UNL     1      43.540 -10.496   8.019  1.00  0.00     0.037 A 
HETATM   15  C   UNL     1      43.045 -10.632   6.717  1.00  0.00     0.012 A 
BRANCH  13  16
HETATM   16  O   UNL     1      45.488 -10.687   9.514  1.00  0.00    -0.356 OA
HETATM   17  C   UNL     1      44.956  -9.738  10.431  1.00  0.00     0.210 C 
ENDBRANCH  13  16
ENDBRANCH   7  10
ENDBRANCH   5   7
ENDBRANCH   2   5
BRANCH   1  18
HETATM   18  C   UNL     1      42.615 -15.926   3.690  1.00  0.00     0.105 A 
HETATM   19  C   UNL     1      42.981 -17.131   4.264  1.00  0.00     0.169 A 
HETATM   20  N   UNL     1      43.088 -17.517   5.577  1.00  0.00    -0.233 NA
HETATM   21  N   UNL     1      43.292 -17.995   3.209  1.00  0.00    -0.219 N 
HETATM   22  C   UNL     1      43.523 -18.725   5.794  1.00  0.00     0.035 A 
HETATM   23  C   UNL     1      43.647 -19.189   7.224  1.00  0.00     0.070 C 
HETATM   24  C   UNL     1      43.887 -19.711   4.730  1.00  0.00     0.053 A 
HETATM   25  C   UNL     1      43.749 -19.298   3.457  1.00  0.00     0.036 A 
HETATM   26  C   UNL     1      44.076 -20.165   2.281  1.00  0.00     0.070 C 
HETATM   27  N   UNL     1      43.095 -17.404   2.006  1.00  0.00    -0.170 NA
HETATM   28  C   UNL     1      42.697 -16.160   2.293  1.00  0.00     0.071 A 
HETATM   29  C   UNL     1      42.405 -15.205   1.191  1.00  0.00     0.073 C 
ENDBRANCH   1  18
TORSDOF 6
ENDMDL
MODEL 9
REMARK VINA RESULT:      -7.3      2.999      7.405
REMARK  6 active torsions:
REMARK  status: ('A' for Active; 'I' for Inactive)
REMARK    1  A    between atoms: C_9  and  C_10 
REMARK       I    between atoms: C_10  and  N_11 
REMARK    2  A    between atoms: N_11  and  C_12 
REMARK    3  A    between atoms: C_12  and  C_13 
REMARK    4  A    between atoms: C_13  and  O_14 
REMARK    5  A    between atoms: C_13  and  C_15 
REMARK    6  A    between atoms: C_18  and  O_19 
ROOT
HETATM    1  C   UNL     1      41.527 -12.068   5.010  1.00  0.00     0.258 C 
HETATM    2  N   UNL     1      41.782 -13.357   5.414  1.00  0.00    -0.350 N 
HETATM    3  O   UNL     1      41.326 -11.767   3.837  1.00  0.00    -0.267 OA
HETATM    4  H   UNL     1      41.829 -13.540   6.415  1.00  0.00     0.163 HD
ENDROOT
BRANCH   2   5
HETATM    5  C   UNL     1      41.661 -14.505   4.521  1.00  0.00     0.114 C 
HETATM    6  C   UNL     1      41.195 -15.717   5.333  1.00  0.00     0.035 C 
BRANCH   5   7
HETATM    7  C   UNL     1      42.993 -14.815   3.789  1.00  0.00     0.173 C 
BRANCH   7   8
HETATM    8  O   UNL     1      43.077 -14.083   2.557  1.00  0.00    -0.389 OA
HETATM    9  H   UNL     1      42.726 -13.194   2.740  1.00  0.00     0.210 HD
ENDBRANCH   7   8
BRANCH   7  10
HETATM   10  C   UNL     1      43.216 -16.296   3.547  1.00  0.00    -0.028 A 
HETATM   11  C   UNL     1      43.952 -17.051   4.469  1.00  0.00     0.012 A 
HETATM   12  C   UNL     1      44.160 -18.417   4.263  1.00  0.00     0.037 A 
HETATM   13  C   UNL     1      43.636 -19.057   3.138  1.00  0.00     0.068 A 
HETATM   14  C   UNL     1      42.891 -18.318   2.221  1.00  0.00     0.037 A 
HETATM   15  C   UNL     1      42.678 -16.949   2.427  1.00  0.00     0.012 A 
BRANCH  13  16
HETATM   16  O   UNL     1      43.920 -20.392   3.058  1.00  0.00    -0.356 OA
HETATM   17  C   UNL     1      43.939 -21.120   4.280  1.00  0.00     0.210 C 
ENDBRANCH  13  16
ENDBRANCH   7  10
ENDBRANCH   5   7
ENDBRANCH   2   5
BRANCH   1  18
HETATM   18  C   UNL     1      41.489 -11.082   6.079  1.00  0.00     0.105 A 
HETATM   19  C   UNL     1      42.547 -10.602   6.831  1.00  0.00     0.169 A 
HETATM   20  N   UNL     1      43.891 -10.878   6.791  1.00  0.00    -0.233 NA
HETATM   21  N   UNL     1      41.999  -9.714   7.764  1.00  0.00    -0.219 N 
HETATM   22  C   UNL     1      44.631 -10.295   7.689  1.00  0.00     0.035 A 
HETATM   23  C   UNL     1      46.114 -10.568   7.673  1.00  0.00     0.070 C 
HETATM   24  C   UNL     1      44.130  -9.342   8.727  1.00  0.00     0.053 A 
HETATM   25  C   UNL     1      42.811  -9.084   8.718  1.00  0.00     0.036 A 
HETATM   26  C   UNL     1      42.157  -8.157   9.695  1.00  0.00     0.070 C 
HETATM   27  N   UNL     1      40.661  -9.584   7.602  1.00  0.00    -0.170 NA
HETATM   28  C   UNL     1      40.352 -10.411   6.597  1.00  0.00     0.071 A 
HETATM   29  C   UNL     1      38.938 -10.540   6.154  1.00  0.00     0.073 C 
ENDBRANCH   1  18
TORSDOF 6
ENDMDL
MODEL 10
REMARK VINA RESULT:      -7.0      2.407      5.962
REMARK  6 active torsions:
REMARK  status: ('A' for Active; 'I' for Inactive)
REMARK    1  A    between atoms: C_9  and  C_10 
REMARK       I    between atoms: C_10  and  N_11 
REMARK    2  A    between atoms: N_11  and  C_12 
REMARK    3  A    between atoms: C_12  and  C_13 
REMARK    4  A    between atoms: C_13  and  O_14 
REMARK    5  A    between atoms: C_13  and  C_15 
REMARK    6  A    between atoms: C_18  and  O_19 
ROOT
HETATM    1  C   UNL     1      40.689 -12.533   2.778  1.00  0.00     0.258 C 
HETATM    2  N   UNL     1      41.506 -13.292   1.975  1.00  0.00    -0.350 N 
HETATM    3  O   UNL     1      39.469 -12.510   2.651  1.00  0.00    -0.267 OA
HETATM    4  H   UNL     1      42.496 -13.340   2.215  1.00  0.00     0.163 HD
ENDROOT
BRANCH   2   5
HETATM    5  C   UNL     1      40.992 -14.271   1.022  1.00  0.00     0.114 C 
HETATM    6  C   UNL     1      39.907 -13.610   0.168  1.00  0.00     0.035 C 
BRANCH   5   7
HETATM    7  C   UNL     1      40.438 -15.535   1.731  1.00  0.00     0.173 C 
BRANCH   7   8
HETATM    8  O   UNL     1      39.310 -15.203   2.552  1.00  0.00    -0.389 OA
HETATM    9  H   UNL     1      39.663 -14.751   3.338  1.00  0.00     0.210 HD
ENDBRANCH   7   8
BRANCH   7  10
HETATM   10  C   UNL     1      41.486 -16.280   2.537  1.00  0.00    -0.028 A 
HETATM   11  C   UNL     1      41.313 -16.450   3.917  1.00  0.00     0.012 A 
HETATM   12  C   UNL     1      42.266 -17.138   4.673  1.00  0.00     0.037 A 
HETATM   13  C   UNL     1      43.406 -17.672   4.068  1.00  0.00     0.068 A 
HETATM   14  C   UNL     1      43.580 -17.521   2.693  1.00  0.00     0.037 A 
HETATM   15  C   UNL     1      42.625 -16.835   1.934  1.00  0.00     0.012 A 
BRANCH  13  16
HETATM   16  O   UNL     1      44.257 -18.314   4.924  1.00  0.00    -0.356 OA
HETATM   17  C   UNL     1      44.263 -19.736   4.879  1.00  0.00     0.210 C 
ENDBRANCH  13  16
ENDBRANCH   7  10
ENDBRANCH   5   7
ENDBRANCH   2   5
BRANCH   1  18
HETATM   18  C   UNL     1      41.373 -11.771   3.811  1.00  0.00     0.105 A 
HETATM   19  C   UNL     1      42.207 -12.247   4.808  1.00  0.00     0.169 A 
HETATM   20  N   UNL     1      42.637 -13.516   5.105  1.00  0.00    -0.233 NA
HETATM   21  N   UNL     1      42.573 -11.139   5.581  1.00  0.00    -0.219 N 
HETATM   22  C   UNL     1      43.383 -13.644   6.164  1.00  0.00     0.035 A 
HETATM   23  C   UNL     1      43.882 -15.022   6.519  1.00  0.00     0.070 C 
HETATM   24  C   UNL     1      43.814 -12.520   7.052  1.00  0.00     0.053 A 
HETATM   25  C   UNL     1      43.386 -11.290   6.714  1.00  0.00     0.036 A 
HETATM   26  C   UNL     1      43.728 -10.065   7.503  1.00  0.00     0.070 C 
HETATM   27  N   UNL     1      42.046  -9.992   5.089  1.00  0.00    -0.170 NA
HETATM   28  C   UNL     1      41.319 -10.370   4.033  1.00  0.00     0.071 A 
HETATM   29  C   UNL     1      40.570  -9.353   3.248  1.00  0.00     0.073 C 
ENDBRANCH   1  18
TORSDOF 6
ENDMDL
