MODEL 1
REMARK VINA RESULT:      -8.5      0.000      0.000
REMARK  7 active torsions:
REMARK  status: ('A' for Active; 'I' for Inactive)
REMARK       I    between atoms: N_2  and  C_3 
REMARK    1  A    between atoms: C_3  and  C_4 
REMARK    2  A    between atoms: C_4  and  C_5 
REMARK    3  A    between atoms: C_5  and  O_6 
REMARK    4  A    between atoms: O_6  and  C_7 
REMARK    5  A    between atoms: C_10  and  N_11 
REMARK       I    between atoms: N_11  and  C_12 
REMARK    6  A    between atoms: C_12  and  C_13 
REMARK    7  A    between atoms: C_15  and  C_16 
ROOT
HETATM    1  N   UNL     1      43.608 -13.102   5.149  1.00  0.00    -0.323 N 
HETATM    2  C   UNL     1      42.930 -14.308   5.195  1.00  0.00     0.256 C 
HETATM    3  O   UNL     1      42.284 -14.747   6.140  1.00  0.00    -0.267 OA
HETATM    4  H   UNL     1      44.183 -12.927   4.337  1.00  0.00     0.169 HD
ENDROOT
BRANCH   1   5
HETATM    5  C   UNL     1      43.651 -12.107   6.149  1.00  0.00     0.035 A 
HETATM    6  C   UNL     1      42.603 -11.227   6.423  1.00  0.00     0.032 A 
HETATM    7  C   UNL     1      42.720 -10.266   7.439  1.00  0.00     0.039 A 
HETATM    8  C   UNL     1      43.890 -10.171   8.186  1.00  0.00     0.068 A 
HETATM    9  C   UNL     1      44.944 -11.042   7.910  1.00  0.00     0.039 A 
HETATM   10  C   UNL     1      44.825 -12.005   6.902  1.00  0.00     0.032 A 
BRANCH   8  11
HETATM   11  O   UNL     1      44.133  -9.277   9.192  1.00  0.00    -0.351 OA
BRANCH  11  12
HETATM   12  C   UNL     1      44.933  -9.736  10.289  1.00  0.00     0.185 C 
BRANCH  12  13
HETATM   13  C   UNL     1      44.024 -10.458  11.273  1.00  0.00     0.129 C 
BRANCH  13  14
HETATM   14  C   UNL     1      42.792  -9.637  11.591  1.00  0.00     0.219 C 
HETATM   15  N   UNL     1      41.633 -10.101  11.014  1.00  0.00    -0.365 N 
HETATM   16  C   UNL     1      40.365  -9.478  11.287  1.00  0.00     0.149 C 
HETATM   17  H   UNL     1      41.641 -11.039  10.622  1.00  0.00     0.161 HD
HETATM   18  O   UNL     1      42.848  -8.623  12.280  1.00  0.00    -0.274 OA
ENDBRANCH  13  14
ENDBRANCH  12  13
ENDBRANCH  11  12
ENDBRANCH   8  11
ENDBRANCH   1   5
BRANCH   2  19
HETATM   19  C   UNL     1      43.044 -15.153   3.971  1.00  0.00     0.033 A 
HETATM   20  C   UNL     1      43.248 -16.531   4.139  1.00  0.00     0.029 A 
HETATM   21  C   UNL     1      43.352 -17.380   3.029  1.00  0.00    -0.023 A 
HETATM   22  C   UNL     1      43.253 -16.827   1.746  1.00  0.00     0.012 A 
HETATM   23  C   UNL     1      43.032 -15.458   1.573  1.00  0.00     0.002 A 
HETATM   24  C   UNL     1      42.920 -14.621   2.683  1.00  0.00     0.017 A 
BRANCH  21  25
HETATM   25  C   UNL     1      43.561 -18.811   3.194  1.00  0.00    -0.002 A 
HETATM   26  C   UNL     1      43.362 -19.750   2.200  1.00  0.00     0.153 A 
HETATM   27  O   UNL     1      43.652 -20.999   2.649  1.00  0.00    -0.334 OA
HETATM   28  C   UNL     1      44.048 -20.871   3.939  1.00  0.00     0.142 A 
HETATM   29  C   UNL     1      44.017 -19.550   4.322  1.00  0.00     0.038 A 
ENDBRANCH  21  25
ENDBRANCH   2  19
TORSDOF 7
ENDMDL
MODEL 2
REMARK VINA RESULT:      -7.6      4.330      8.044
REMARK  7 active torsions:
REMARK  status: ('A' for Active; 'I' for Inactive)
REMARK       I    between atoms: N_2  and  C_3 
REMARK    1  A    between atoms: C_3  and  C_4 
REMARK    2  A    between atoms: C_4  and  C_5 
REMARK    3  A    between atoms: C_5  and  O_6 
REMARK    4  A    between atoms: O_6  and  C_7 
REMARK    5  A    between atoms: C_10  and  N_11 
REMARK       I    between atoms: N_11  and  C_12 
REMARK    6  A    between atoms: C_12  and  C_13 
REMARK    7  A    between atoms: C_15  and  C_16 
ROOT
HETATM    1  N   UNL     1      43.544  -9.153  11.650  1.00  0.00    -0.323 N 
HETATM    2  C   UNL     1      43.130  -9.031  10.335  1.00  0.00     0.256 C 
HETATM    3  O   UNL     1      42.074  -8.548   9.943  1.00  0.00    -0.267 OA
HETATM    4  H   UNL     1      44.395  -9.670  11.821  1.00  0.00     0.169 HD
ENDROOT
BRANCH   1   5
HETATM    5  C   UNL     1      42.869  -8.699  12.804  1.00  0.00     0.035 A 
HETATM    6  C   UNL     1      41.728  -9.305  13.331  1.00  0.00     0.032 A 
HETATM    7  C   UNL     1      41.115  -8.797  14.486  1.00  0.00     0.039 A 
HETATM    8  C   UNL     1      41.633  -7.673  15.123  1.00  0.00     0.068 A 
HETATM    9  C   UNL     1      42.769  -7.059  14.594  1.00  0.00     0.039 A 
HETATM   10  C   UNL     1      43.385  -7.569  13.446  1.00  0.00     0.032 A 
BRANCH   8  11
HETATM   11  O   UNL     1      41.128  -7.077  16.244  1.00  0.00    -0.351 OA
BRANCH  11  12
HETATM   12  C   UNL     1      41.226  -7.811  17.471  1.00  0.00     0.185 C 
BRANCH  12  13
HETATM   13  C   UNL     1      39.958  -7.566  18.276  1.00  0.00     0.129 C 
BRANCH  13  14
HETATM   14  C   UNL     1      39.799  -8.589  19.381  1.00  0.00     0.219 C 
HETATM   15  N   UNL     1      40.934  -9.316  19.653  1.00  0.00    -0.365 N 
HETATM   16  C   UNL     1      40.966 -10.270  20.730  1.00  0.00     0.149 C 
HETATM   17  H   UNL     1      41.814  -8.980  19.273  1.00  0.00     0.161 HD
HETATM   18  O   UNL     1      38.727  -8.766  19.952  1.00  0.00    -0.274 OA
ENDBRANCH  13  14
ENDBRANCH  12  13
ENDBRANCH  11  12
ENDBRANCH   8  11
ENDBRANCH   1   5
BRANCH   2  19
HETATM   19  C   UNL     1      44.069  -9.584   9.316  1.00  0.00     0.033 A 
HETATM   20  C   UNL     1      43.577 -10.546   8.421  1.00  0.00     0.029 A 
HETATM   21  C   UNL     1      44.405 -11.096   7.433  1.00  0.00    -0.023 A 
HETATM   22  C   UNL     1      45.737 -10.669   7.358  1.00  0.00     0.012 A 
HETATM   23  C   UNL     1      46.228  -9.698   8.235  1.00  0.00     0.002 A 
HETATM   24  C   UNL     1      45.394  -9.149   9.209  1.00  0.00     0.017 A 
BRANCH  21  25
HETATM   25  C   UNL     1      43.903 -12.092   6.499  1.00  0.00    -0.002 A 
HETATM   26  C   UNL     1      43.677 -13.418   6.816  1.00  0.00     0.153 A 
HETATM   27  O   UNL     1      43.196 -14.098   5.742  1.00  0.00    -0.334 OA
HETATM   28  C   UNL     1      43.104 -13.207   4.723  1.00  0.00     0.142 A 
HETATM   29  C   UNL     1      43.518 -11.962   5.134  1.00  0.00     0.038 A 
ENDBRANCH  21  25
ENDBRANCH   2  19
TORSDOF 7
ENDMDL
MODEL 3
REMARK VINA RESULT:      -7.4      6.236      9.846
REMARK  7 active torsions:
REMARK  status: ('A' for Active; 'I' for Inactive)
REMARK       I    between atoms: N_2  and  C_3 
REMARK    1  A    between atoms: C_3  and  C_4 
REMARK    2  A    between atoms: C_4  and  C_5 
REMARK    3  A    between atoms: C_5  and  O_6 
REMARK    4  A    between atoms: O_6  and  C_7 
REMARK    5  A    between atoms: C_10  and  N_11 
REMARK       I    between atoms: N_11  and  C_12 
REMARK    6  A    between atoms: C_12  and  C_13 
REMARK    7  A    between atoms: C_15  and  C_16 
ROOT
HETATM    1  N   UNL     1      40.963 -15.029   0.710  1.00  0.00    -0.323 N 
HETATM    2  C   UNL     1      40.576 -15.747   1.827  1.00  0.00     0.256 C 
HETATM    3  O   UNL     1      39.438 -15.852   2.271  1.00  0.00    -0.267 OA
HETATM    4  H   UNL     1      41.955 -14.951   0.532  1.00  0.00     0.169 HD
ENDROOT
BRANCH   1   5
HETATM    5  C   UNL     1      40.129 -14.317  -0.180  1.00  0.00     0.035 A 
HETATM    6  C   UNL     1      39.426 -14.905  -1.232  1.00  0.00     0.032 A 
HETATM    7  C   UNL     1      38.612 -14.131  -2.072  1.00  0.00     0.039 A 
HETATM    8  C   UNL     1      38.499 -12.758  -1.873  1.00  0.00     0.068 A 
HETATM    9  C   UNL     1      39.207 -12.164  -0.828  1.00  0.00     0.039 A 
HETATM   10  C   UNL     1      40.013 -12.937   0.015  1.00  0.00     0.032 A 
BRANCH   8  11
HETATM   11  O   UNL     1      37.750 -11.893  -2.622  1.00  0.00    -0.351 OA
BRANCH  11  12
HETATM   12  C   UNL     1      38.323 -10.609  -2.898  1.00  0.00     0.185 C 
BRANCH  12  13
HETATM   13  C   UNL     1      37.219  -9.694  -3.406  1.00  0.00     0.129 C 
BRANCH  13  14
HETATM   14  C   UNL     1      35.853 -10.323  -3.226  1.00  0.00     0.219 C 
HETATM   15  N   UNL     1      35.511 -11.232  -4.200  1.00  0.00    -0.365 N 
HETATM   16  C   UNL     1      34.281 -11.975  -4.125  1.00  0.00     0.149 C 
HETATM   17  H   UNL     1      36.249 -11.570  -4.812  1.00  0.00     0.161 HD
HETATM   18  O   UNL     1      35.110 -10.009  -2.301  1.00  0.00    -0.274 OA
ENDBRANCH  13  14
ENDBRANCH  12  13
ENDBRANCH  11  12
ENDBRANCH   8  11
ENDBRANCH   1   5
BRANCH   2  19
HETATM   19  C   UNL     1      41.680 -16.424   2.567  1.00  0.00     0.033 A 
HETATM   20  C   UNL     1      41.854 -16.109   3.923  1.00  0.00     0.029 A 
HETATM   21  C   UNL     1      42.867 -16.718   4.677  1.00  0.00    -0.023 A 
HETATM   22  C   UNL     1      43.707 -17.646   4.049  1.00  0.00     0.012 A 
HETATM   23  C   UNL     1      43.528 -17.976   2.702  1.00  0.00     0.002 A 
HETATM   24  C   UNL     1      42.512 -17.373   1.962  1.00  0.00     0.017 A 
BRANCH  21  25
HETATM   25  C   UNL     1      43.052 -16.401   6.084  1.00  0.00    -0.002 A 
HETATM   26  C   UNL     1      43.836 -17.133   6.955  1.00  0.00     0.153 A 
HETATM   27  O   UNL     1      43.824 -16.584   8.198  1.00  0.00    -0.334 OA
HETATM   28  C   UNL     1      43.032 -15.484   8.133  1.00  0.00     0.142 A 
HETATM   29  C   UNL     1      42.539 -15.322   6.859  1.00  0.00     0.038 A 
ENDBRANCH  21  25
ENDBRANCH   2  19
TORSDOF 7
ENDMDL
MODEL 4
REMARK VINA RESULT:      -7.3      2.055      2.927
REMARK  7 active torsions:
REMARK  status: ('A' for Active; 'I' for Inactive)
REMARK       I    between atoms: N_2  and  C_3 
REMARK    1  A    between atoms: C_3  and  C_4 
REMARK    2  A    between atoms: C_4  and  C_5 
REMARK    3  A    between atoms: C_5  and  O_6 
REMARK    4  A    between atoms: O_6  and  C_7 
REMARK    5  A    between atoms: C_10  and  N_11 
REMARK       I    between atoms: N_11  and  C_12 
REMARK    6  A    between atoms: C_12  and  C_13 
REMARK    7  A    between atoms: C_15  and  C_16 
ROOT
HETATM    1  N   UNL     1      41.500 -12.964   4.691  1.00  0.00    -0.323 N 
HETATM    2  C   UNL     1      42.589 -13.792   4.899  1.00  0.00     0.256 C 
HETATM    3  O   UNL     1      43.345 -13.780   5.864  1.00  0.00    -0.267 OA
HETATM    4  H   UNL     1      41.037 -13.025   3.796  1.00  0.00     0.169 HD
ENDROOT
BRANCH   1   5
HETATM    5  C   UNL     1      41.000 -11.975   5.567  1.00  0.00     0.035 A 
HETATM    6  C   UNL     1      41.725 -10.856   5.979  1.00  0.00     0.032 A 
HETATM    7  C   UNL     1      41.157  -9.913   6.848  1.00  0.00     0.039 A 
HETATM    8  C   UNL     1      39.859 -10.084   7.321  1.00  0.00     0.068 A 
HETATM    9  C   UNL     1      39.134 -11.206   6.919  1.00  0.00     0.039 A 
HETATM   10  C   UNL     1      39.697 -12.142   6.046  1.00  0.00     0.032 A 
BRANCH   8  11
HETATM   11  O   UNL     1      39.196  -9.248   8.175  1.00  0.00    -0.351 OA
BRANCH  11  12
HETATM   12  C   UNL     1      39.058  -9.683   9.534  1.00  0.00     0.185 C 
BRANCH  12  13
HETATM   13  C   UNL     1      39.076  -8.454  10.432  1.00  0.00     0.129 C 
BRANCH  13  14
HETATM   14  C   UNL     1      40.460  -8.197  10.989  1.00  0.00     0.219 C 
HETATM   15  N   UNL     1      41.469  -8.249  10.056  1.00  0.00    -0.365 N 
HETATM   16  C   UNL     1      42.829  -7.946  10.415  1.00  0.00     0.149 C 
HETATM   17  H   UNL     1      41.207  -8.230   9.074  1.00  0.00     0.161 HD
HETATM   18  O   UNL     1      40.651  -7.997  12.185  1.00  0.00    -0.274 OA
ENDBRANCH  13  14
ENDBRANCH  12  13
ENDBRANCH  11  12
ENDBRANCH   8  11
ENDBRANCH   1   5
BRANCH   2  19
HETATM   19  C   UNL     1      42.868 -14.766   3.804  1.00  0.00     0.033 A 
HETATM   20  C   UNL     1      43.128 -16.099   4.158  1.00  0.00     0.029 A 
HETATM   21  C   UNL     1      43.387 -17.065   3.176  1.00  0.00    -0.023 A 
HETATM   22  C   UNL     1      43.385 -16.674   1.831  1.00  0.00     0.012 A 
HETATM   23  C   UNL     1      43.109 -15.352   1.471  1.00  0.00     0.002 A 
HETATM   24  C   UNL     1      42.843 -14.399   2.454  1.00  0.00     0.017 A 
BRANCH  21  25
HETATM   25  C   UNL     1      43.655 -18.449   3.534  1.00  0.00    -0.002 A 
HETATM   26  C   UNL     1      43.996 -18.878   4.802  1.00  0.00     0.153 A 
HETATM   27  O   UNL     1      44.171 -20.225   4.828  1.00  0.00    -0.334 OA
HETATM   28  C   UNL     1      43.936 -20.675   3.571  1.00  0.00     0.142 A 
HETATM   29  C   UNL     1      43.609 -19.630   2.739  1.00  0.00     0.038 A 
ENDBRANCH  21  25
ENDBRANCH   2  19
TORSDOF 7
ENDMDL
MODEL 5
REMARK VINA RESULT:      -7.3      2.151      3.313
REMARK  7 active torsions:
REMARK  status: ('A' for Active; 'I' for Inactive)
REMARK       I    between atoms: N_2  and  C_3 
REMARK    1  A    between atoms: C_3  and  C_4 
REMARK    2  A    between atoms: C_4  and  C_5 
REMARK    3  A    between atoms: C_5  and  O_6 
REMARK    4  A    between atoms: O_6  and  C_7 
REMARK    5  A    between atoms: C_10  and  N_11 
REMARK       I    between atoms: N_11  and  C_12 
REMARK    6  A    between atoms: C_12  and  C_13 
REMARK    7  A    between atoms: C_15  and  C_16 
ROOT
HETATM    1  N   UNL     1      43.812 -12.826   6.063  1.00  0.00    -0.323 N 
HETATM    2  C   UNL     1      43.429 -14.084   6.494  1.00  0.00     0.256 C 
HETATM    3  O   UNL     1      43.268 -14.442   7.655  1.00  0.00    -0.267 OA
HETATM    4  H   UNL     1      44.005 -12.714   5.078  1.00  0.00     0.169 HD
ENDROOT
BRANCH   1   5
HETATM    5  C   UNL     1      44.042 -11.684   6.860  1.00  0.00     0.035 A 
HETATM    6  C   UNL     1      45.272 -11.366   7.435  1.00  0.00     0.032 A 
HETATM    7  C   UNL     1      45.424 -10.208   8.213  1.00  0.00     0.039 A 
HETATM    8  C   UNL     1      44.342  -9.359   8.429  1.00  0.00     0.068 A 
HETATM    9  C   UNL     1      43.107  -9.677   7.864  1.00  0.00     0.039 A 
HETATM   10  C   UNL     1      42.958 -10.828   7.082  1.00  0.00     0.032 A 
BRANCH   8  11
HETATM   11  O   UNL     1      44.355  -8.211   9.170  1.00  0.00    -0.351 OA
BRANCH  11  12
HETATM   12  C   UNL     1      43.336  -8.070  10.168  1.00  0.00     0.185 C 
BRANCH  12  13
HETATM   13  C   UNL     1      43.805  -8.775  11.432  1.00  0.00     0.129 C 
BRANCH  13  14
HETATM   14  C   UNL     1      42.641  -9.124  12.335  1.00  0.00     0.219 C 
HETATM   15  N   UNL     1      41.557  -9.666  11.684  1.00  0.00    -0.365 N 
HETATM   16  C   UNL     1      40.405 -10.125  12.414  1.00  0.00     0.149 C 
HETATM   17  H   UNL     1      41.691  -9.988  10.730  1.00  0.00     0.161 HD
HETATM   18  O   UNL     1      42.666  -8.902  13.542  1.00  0.00    -0.274 OA
ENDBRANCH  13  14
ENDBRANCH  12  13
ENDBRANCH  11  12
ENDBRANCH   8  11
ENDBRANCH   1   5
BRANCH   2  19
HETATM   19  C   UNL     1      43.232 -15.096   5.415  1.00  0.00     0.033 A 
HETATM   20  C   UNL     1      42.452 -14.734   4.306  1.00  0.00     0.029 A 
HETATM   21  C   UNL     1      42.239 -15.635   3.255  1.00  0.00    -0.023 A 
HETATM   22  C   UNL     1      42.817 -16.909   3.332  1.00  0.00     0.012 A 
HETATM   23  C   UNL     1      43.609 -17.269   4.426  1.00  0.00     0.002 A 
HETATM   24  C   UNL     1      43.825 -16.363   5.463  1.00  0.00     0.017 A 
BRANCH  21  25
HETATM   25  C   UNL     1      41.434 -15.268   2.100  1.00  0.00    -0.002 A 
HETATM   26  C   UNL     1      41.675 -14.172   1.294  1.00  0.00     0.153 A 
HETATM   27  O   UNL     1      40.763 -14.098   0.290  1.00  0.00    -0.334 OA
HETATM   28  C   UNL     1      39.928 -15.156   0.440  1.00  0.00     0.142 A 
HETATM   29  C   UNL     1      40.297 -15.909   1.529  1.00  0.00     0.038 A 
ENDBRANCH  21  25
ENDBRANCH   2  19
TORSDOF 7
ENDMDL
MODEL 6
REMARK VINA RESULT:      -7.3     17.205     19.087
REMARK  7 active torsions:
REMARK  status: ('A' for Active; 'I' for Inactive)
REMARK       I    between atoms: N_2  and  C_3 
REMARK    1  A    between atoms: C_3  and  C_4 
REMARK    2  A    between atoms: C_4  and  C_5 
REMARK    3  A    between atoms: C_5  and  O_6 
REMARK    4  A    between atoms: O_6  and  C_7 
REMARK    5  A    between atoms: C_10  and  N_11 
REMARK       I    between atoms: N_11  and  C_12 
REMARK    6  A    between atoms: C_12  and  C_13 
REMARK    7  A    between atoms: C_15  and  C_16 
ROOT
HETATM    1  N   UNL     1      42.556 -29.952   0.648  1.00  0.00    -0.323 N 
HETATM    2  C   UNL     1      43.914 -29.997   0.386  1.00  0.00     0.256 C 
HETATM    3  O   UNL     1      44.798 -30.344   1.162  1.00  0.00    -0.267 OA
HETATM    4  H   UNL     1      41.963 -29.542  -0.059  1.00  0.00     0.169 HD
ENDROOT
BRANCH   1   5
HETATM    5  C   UNL     1      41.902 -30.346   1.836  1.00  0.00     0.035 A 
HETATM    6  C   UNL     1      42.134 -29.770   3.085  1.00  0.00     0.032 A 
HETATM    7  C   UNL     1      41.440 -30.214   4.220  1.00  0.00     0.039 A 
HETATM    8  C   UNL     1      40.510 -31.244   4.119  1.00  0.00     0.068 A 
HETATM    9  C   UNL     1      40.281 -31.829   2.873  1.00  0.00     0.039 A 
HETATM   10  C   UNL     1      40.968 -31.382   1.739  1.00  0.00     0.032 A 
BRANCH   8  11
HETATM   11  O   UNL     1      39.777 -31.772   5.144  1.00  0.00    -0.351 OA
BRANCH  11  12
HETATM   12  C   UNL     1      40.429 -32.735   5.981  1.00  0.00     0.185 C 
BRANCH  12  13
HETATM   13  C   UNL     1      39.489 -33.917   6.170  1.00  0.00     0.129 C 
BRANCH  13  14
HETATM   14  C   UNL     1      38.040 -33.489   6.087  1.00  0.00     0.219 C 
HETATM   15  N   UNL     1      37.512 -33.505   4.816  1.00  0.00    -0.365 N 
HETATM   16  C   UNL     1      36.125 -33.203   4.583  1.00  0.00     0.149 C 
HETATM   17  H   UNL     1      38.034 -33.993   4.093  1.00  0.00     0.161 HD
HETATM   18  O   UNL     1      37.412 -33.126   7.077  1.00  0.00    -0.274 OA
ENDBRANCH  13  14
ENDBRANCH  12  13
ENDBRANCH  11  12
ENDBRANCH   8  11
ENDBRANCH   1   5
BRANCH   2  19
HETATM   19  C   UNL     1      44.318 -29.539  -0.975  1.00  0.00     0.033 A 
HETATM   20  C   UNL     1      44.111 -30.414  -2.053  1.00  0.00     0.029 A 
HETATM   21  C   UNL     1      44.459 -30.038  -3.358  1.00  0.00    -0.023 A 
HETATM   22  C   UNL     1      45.021 -28.772  -3.567  1.00  0.00     0.012 A 
HETATM   23  C   UNL     1      45.213 -27.890  -2.500  1.00  0.00     0.002 A 
HETATM   24  C   UNL     1      44.855 -28.268  -1.206  1.00  0.00     0.017 A 
BRANCH  21  25
HETATM   25  C   UNL     1      44.247 -30.937  -4.481  1.00  0.00    -0.002 A 
HETATM   26  C   UNL     1      43.871 -30.532  -5.748  1.00  0.00     0.153 A 
HETATM   27  O   UNL     1      43.764 -31.597  -6.585  1.00  0.00    -0.334 OA
HETATM   28  C   UNL     1      44.079 -32.699  -5.861  1.00  0.00     0.142 A 
HETATM   29  C   UNL     1      44.389 -32.352  -4.567  1.00  0.00     0.038 A 
ENDBRANCH  21  25
ENDBRANCH   2  19
TORSDOF 7
ENDMDL
MODEL 7
REMARK VINA RESULT:      -7.3      6.971     10.597
REMARK  7 active torsions:
REMARK  status: ('A' for Active; 'I' for Inactive)
REMARK       I    between atoms: N_2  and  C_3 
REMARK    1  A    between atoms: C_3  and  C_4 
REMARK    2  A    between atoms: C_4  and  C_5 
REMARK    3  A    between atoms: C_5  and  O_6 
REMARK    4  A    between atoms: O_6  and  C_7 
REMARK    5  A    between atoms: C_10  and  N_11 
REMARK       I    between atoms: N_11  and  C_12 
REMARK    6  A    between atoms: C_12  and  C_13 
REMARK    7  A    between atoms: C_15  and  C_16 
ROOT
HETATM    1  N   UNL     1      40.587 -14.409   0.599  1.00  0.00    -0.323 N 
HETATM    2  C   UNL     1      40.318 -15.275   1.645  1.00  0.00     0.256 C 
HETATM    3  O   UNL     1      39.217 -15.692   1.985  1.00  0.00    -0.267 OA
HETATM    4  H   UNL     1      41.535 -14.073   0.510  1.00  0.00     0.169 HD
ENDROOT
BRANCH   1   5
HETATM    5  C   UNL     1      39.663 -13.872  -0.324  1.00  0.00     0.035 A 
HETATM    6  C   UNL     1      39.269 -14.512  -1.498  1.00  0.00     0.032 A 
HETATM    7  C   UNL     1      38.341 -13.916  -2.365  1.00  0.00     0.039 A 
HETATM    8  C   UNL     1      37.803 -12.667  -2.068  1.00  0.00     0.068 A 
HETATM    9  C   UNL     1      38.200 -12.019  -0.899  1.00  0.00     0.039 A 
HETATM   10  C   UNL     1      39.120 -12.616  -0.031  1.00  0.00     0.032 A 
BRANCH   8  11
HETATM   11  O   UNL     1      36.901 -11.976  -2.829  1.00  0.00    -0.351 OA
BRANCH  11  12
HETATM   12  C   UNL     1      35.992 -12.750  -3.622  1.00  0.00     0.185 C 
BRANCH  12  13
HETATM   13  C   UNL     1      34.648 -12.038  -3.638  1.00  0.00     0.129 C 
BRANCH  13  14
HETATM   14  C   UNL     1      34.126 -11.873  -5.049  1.00  0.00     0.219 C 
HETATM   15  N   UNL     1      34.642 -12.769  -5.957  1.00  0.00    -0.365 N 
HETATM   16  C   UNL     1      34.185 -12.794  -7.320  1.00  0.00     0.149 C 
HETATM   17  H   UNL     1      35.137 -13.579  -5.593  1.00  0.00     0.161 HD
HETATM   18  O   UNL     1      33.334 -10.985  -5.349  1.00  0.00    -0.274 OA
ENDBRANCH  13  14
ENDBRANCH  12  13
ENDBRANCH  11  12
ENDBRANCH   8  11
ENDBRANCH   1   5
BRANCH   2  19
HETATM   19  C   UNL     1      41.505 -15.700   2.443  1.00  0.00     0.033 A 
HETATM   20  C   UNL     1      41.872 -17.054   2.407  1.00  0.00     0.029 A 
HETATM   21  C   UNL     1      42.983 -17.515   3.126  1.00  0.00    -0.023 A 
HETATM   22  C   UNL     1      43.721 -16.598   3.886  1.00  0.00     0.012 A 
HETATM   23  C   UNL     1      43.370 -15.245   3.912  1.00  0.00     0.002 A 
HETATM   24  C   UNL     1      42.269 -14.793   3.186  1.00  0.00     0.017 A 
BRANCH  21  25
HETATM   25  C   UNL     1      43.373 -18.916   3.092  1.00  0.00    -0.002 A 
HETATM   26  C   UNL     1      43.198 -19.751   2.006  1.00  0.00     0.153 A 
HETATM   27  O   UNL     1      43.672 -20.997   2.271  1.00  0.00    -0.334 OA
HETATM   28  C   UNL     1      44.165 -20.969   3.534  1.00  0.00     0.142 A 
HETATM   29  C   UNL     1      44.013 -19.716   4.081  1.00  0.00     0.038 A 
ENDBRANCH  21  25
ENDBRANCH   2  19
TORSDOF 7
ENDMDL
MODEL 8
REMARK VINA RESULT:      -7.2      6.318     14.169
REMARK  7 active torsions:
REMARK  status: ('A' for Active; 'I' for Inactive)
REMARK       I    between atoms: N_2  and  C_3 
REMARK    1  A    between atoms: C_3  and  C_4 
REMARK    2  A    between atoms: C_4  and  C_5 
REMARK    3  A    between atoms: C_5  and  O_6 
REMARK    4  A    between atoms: O_6  and  C_7 
REMARK    5  A    between atoms: C_10  and  N_11 
REMARK       I    between atoms: N_11  and  C_12 
REMARK    6  A    between atoms: C_12  and  C_13 
REMARK    7  A    between atoms: C_15  and  C_16 
ROOT
HETATM    1  N   UNL     1      41.667  -7.774  15.657  1.00  0.00    -0.323 N 
HETATM    2  C   UNL     1      40.641  -6.895  15.958  1.00  0.00     0.256 C 
HETATM    3  O   UNL     1      39.839  -6.410  15.168  1.00  0.00    -0.267 OA
HETATM    4  H   UNL     1      42.311  -8.003  16.400  1.00  0.00     0.169 HD
ENDROOT
BRANCH   1   5
HETATM    5  C   UNL     1      41.969  -8.335  14.397  1.00  0.00     0.035 A 
HETATM    6  C   UNL     1      41.275  -9.404  13.830  1.00  0.00     0.032 A 
HETATM    7  C   UNL     1      41.632  -9.905  12.570  1.00  0.00     0.039 A 
HETATM    8  C   UNL     1      42.694  -9.345  11.865  1.00  0.00     0.068 A 
HETATM    9  C   UNL     1      43.397  -8.281  12.432  1.00  0.00     0.039 A 
HETATM   10  C   UNL     1      43.037  -7.777  13.686  1.00  0.00     0.032 A 
BRANCH   8  11
HETATM   11  O   UNL     1      43.147  -9.743  10.639  1.00  0.00    -0.351 OA
BRANCH  11  12
HETATM   12  C   UNL     1      44.068  -8.870   9.971  1.00  0.00     0.185 C 
BRANCH  12  13
HETATM   13  C   UNL     1      45.410  -9.580   9.870  1.00  0.00     0.129 C 
BRANCH  13  14
HETATM   14  C   UNL     1      45.831  -9.763   8.427  1.00  0.00     0.219 C 
HETATM   15  N   UNL     1      45.453 -10.962   7.870  1.00  0.00    -0.365 N 
HETATM   16  C   UNL     1      45.707 -11.252   6.484  1.00  0.00     0.149 C 
HETATM   17  H   UNL     1      44.759 -11.516   8.365  1.00  0.00     0.161 HD
HETATM   18  O   UNL     1      46.486  -8.915   7.830  1.00  0.00    -0.274 OA
ENDBRANCH  13  14
ENDBRANCH  12  13
ENDBRANCH  11  12
ENDBRANCH   8  11
ENDBRANCH   1   5
BRANCH   2  19
HETATM   19  C   UNL     1      40.547  -6.489  17.390  1.00  0.00     0.033 A 
HETATM   20  C   UNL     1      40.422  -7.501  18.355  1.00  0.00     0.029 A 
HETATM   21  C   UNL     1      40.340  -7.185  19.718  1.00  0.00    -0.023 A 
HETATM   22  C   UNL     1      40.382  -5.838  20.101  1.00  0.00     0.012 A 
HETATM   23  C   UNL     1      40.523  -4.827  19.146  1.00  0.00     0.002 A 
HETATM   24  C   UNL     1      40.614  -5.150  17.792  1.00  0.00     0.017 A 
BRANCH  21  25
HETATM   25  C   UNL     1      40.214  -8.227  20.725  1.00  0.00    -0.002 A 
HETATM   26  C   UNL     1      39.398  -8.145  21.837  1.00  0.00     0.153 A 
HETATM   27  O   UNL     1      39.482  -9.277  22.585  1.00  0.00    -0.334 OA
HETATM   28  C   UNL     1      40.353 -10.102  21.951  1.00  0.00     0.142 A 
HETATM   29  C   UNL     1      40.826  -9.510  20.803  1.00  0.00     0.038 A 
ENDBRANCH  21  25
ENDBRANCH   2  19
TORSDOF 7
ENDMDL
MODEL 9
REMARK VINA RESULT:      -7.2      3.962      7.734
REMARK  7 active torsions:
REMARK  status: ('A' for Active; 'I' for Inactive)
REMARK       I    between atoms: N_2  and  C_3 
REMARK    1  A    between atoms: C_3  and  C_4 
REMARK    2  A    between atoms: C_4  and  C_5 
REMARK    3  A    between atoms: C_5  and  O_6 
REMARK    4  A    between atoms: O_6  and  C_7 
REMARK    5  A    between atoms: C_10  and  N_11 
REMARK       I    between atoms: N_11  and  C_12 
REMARK    6  A    between atoms: C_12  and  C_13 
REMARK    7  A    between atoms: C_15  and  C_16 
ROOT
HETATM    1  N   UNL     1      43.733  -9.222  11.441  1.00  0.00    -0.323 N 
HETATM    2  C   UNL     1      43.653  -8.745  10.144  1.00  0.00     0.256 C 
HETATM    3  O   UNL     1      42.968  -7.809   9.750  1.00  0.00    -0.267 OA
HETATM    4  H   UNL     1      44.262 -10.070  11.590  1.00  0.00     0.169 HD
ENDROOT
BRANCH   1   5
HETATM    5  C   UNL     1      43.092  -8.698  12.585  1.00  0.00     0.035 A 
HETATM    6  C   UNL     1      43.528  -7.570  13.278  1.00  0.00     0.032 A 
HETATM    7  C   UNL     1      42.834  -7.107  14.406  1.00  0.00     0.039 A 
HETATM    8  C   UNL     1      41.698  -7.773  14.856  1.00  0.00     0.068 A 
HETATM    9  C   UNL     1      41.263  -8.908  14.170  1.00  0.00     0.039 A 
HETATM   10  C   UNL     1      41.951  -9.366  13.042  1.00  0.00     0.032 A 
BRANCH   8  11
HETATM   11  O   UNL     1      40.940  -7.432  15.941  1.00  0.00    -0.351 OA
BRANCH  11  12
HETATM   12  C   UNL     1      41.422  -7.844  17.226  1.00  0.00     0.185 C 
BRANCH  12  13
HETATM   13  C   UNL     1      41.976  -6.620  17.941  1.00  0.00     0.129 C 
BRANCH  13  14
HETATM   14  C   UNL     1      41.172  -5.379  17.615  1.00  0.00     0.219 C 
HETATM   15  N   UNL     1      41.738  -4.568  16.660  1.00  0.00    -0.365 N 
HETATM   16  C   UNL     1      41.057  -3.393  16.183  1.00  0.00     0.149 C 
HETATM   17  H   UNL     1      42.499  -4.950  16.105  1.00  0.00     0.161 HD
HETATM   18  O   UNL     1      40.122  -5.115  18.192  1.00  0.00    -0.274 OA
ENDBRANCH  13  14
ENDBRANCH  12  13
ENDBRANCH  11  12
ENDBRANCH   8  11
ENDBRANCH   1   5
BRANCH   2  19
HETATM   19  C   UNL     1      44.467  -9.489   9.139  1.00  0.00     0.033 A 
HETATM   20  C   UNL     1      43.846 -10.525   8.425  1.00  0.00     0.029 A 
HETATM   21  C   UNL     1      44.553 -11.254   7.459  1.00  0.00    -0.023 A 
HETATM   22  C   UNL     1      45.895 -10.931   7.221  1.00  0.00     0.012 A 
HETATM   23  C   UNL     1      46.514  -9.889   7.917  1.00  0.00     0.002 A 
HETATM   24  C   UNL     1      45.800  -9.162   8.869  1.00  0.00     0.017 A 
BRANCH  21  25
HETATM   25  C   UNL     1      43.917 -12.328   6.713  1.00  0.00    -0.002 A 
HETATM   26  C   UNL     1      43.555 -12.249   5.381  1.00  0.00     0.153 A 
HETATM   27  O   UNL     1      42.995 -13.413   4.961  1.00  0.00    -0.334 OA
HETATM   28  C   UNL     1      42.999 -14.257   6.023  1.00  0.00     0.142 A 
HETATM   29  C   UNL     1      43.558 -13.645   7.120  1.00  0.00     0.038 A 
ENDBRANCH  21  25
ENDBRANCH   2  19
TORSDOF 7
ENDMDL
MODEL 10
REMARK VINA RESULT:      -7.1      3.120      9.858
REMARK  7 active torsions:
REMARK  status: ('A' for Active; 'I' for Inactive)
REMARK       I    between atoms: N_2  and  C_3 
REMARK    1  A    between atoms: C_3  and  C_4 
REMARK    2  A    between atoms: C_4  and  C_5 
REMARK    3  A    between atoms: C_5  and  O_6 
REMARK    4  A    between atoms: O_6  and  C_7 
REMARK    5  A    between atoms: C_10  and  N_11 
REMARK       I    between atoms: N_11  and  C_12 
REMARK    6  A    between atoms: C_12  and  C_13 
REMARK    7  A    between atoms: C_15  and  C_16 
ROOT
HETATM    1  N   UNL     1      42.928 -12.344   7.030  1.00  0.00    -0.323 N 
HETATM    2  C   UNL     1      44.222 -11.874   7.168  1.00  0.00     0.256 C 
HETATM    3  O   UNL     1      45.180 -12.148   6.455  1.00  0.00    -0.267 OA
HETATM    4  H   UNL     1      42.271 -12.111   7.760  1.00  0.00     0.169 HD
ENDROOT
BRANCH   1   5
HETATM    5  C   UNL     1      42.430 -13.188   6.013  1.00  0.00     0.035 A 
HETATM    6  C   UNL     1      42.290 -12.806   4.679  1.00  0.00     0.032 A 
HETATM    7  C   UNL     1      41.791 -13.704   3.724  1.00  0.00     0.039 A 
HETATM    8  C   UNL     1      41.420 -14.993   4.095  1.00  0.00     0.068 A 
HETATM    9  C   UNL     1      41.550 -15.377   5.431  1.00  0.00     0.039 A 
HETATM   10  C   UNL     1      42.054 -14.484   6.382  1.00  0.00     0.032 A 
BRANCH   8  11
HETATM   11  O   UNL     1      40.914 -15.957   3.269  1.00  0.00    -0.351 OA
BRANCH  11  12
HETATM   12  C   UNL     1      39.816 -15.581   2.428  1.00  0.00     0.185 C 
BRANCH  12  13
HETATM   13  C   UNL     1      40.259 -15.711   0.978  1.00  0.00     0.129 C 
BRANCH  13  14
HETATM   14  C   UNL     1      39.815 -14.520   0.155  1.00  0.00     0.219 C 
HETATM   15  N   UNL     1      39.455 -13.418   0.896  1.00  0.00    -0.365 N 
HETATM   16  C   UNL     1      39.088 -12.181   0.258  1.00  0.00     0.149 C 
HETATM   17  H   UNL     1      39.715 -13.403   1.878  1.00  0.00     0.161 HD
HETATM   18  O   UNL     1      39.753 -14.564  -1.070  1.00  0.00    -0.274 OA
ENDBRANCH  13  14
ENDBRANCH  12  13
ENDBRANCH  11  12
ENDBRANCH   8  11
ENDBRANCH   1   5
BRANCH   2  19
HETATM   19  C   UNL     1      44.452 -10.970   8.333  1.00  0.00     0.033 A 
HETATM   20  C   UNL     1      43.411 -10.816   9.262  1.00  0.00     0.029 A 
HETATM   21  C   UNL     1      43.568  -9.990  10.383  1.00  0.00    -0.023 A 
HETATM   22  C   UNL     1      44.784  -9.317  10.559  1.00  0.00     0.012 A 
HETATM   23  C   UNL     1      45.830  -9.481   9.646  1.00  0.00     0.002 A 
HETATM   24  C   UNL     1      45.669 -10.312   8.538  1.00  0.00     0.017 A 
BRANCH  21  25
HETATM   25  C   UNL     1      42.497  -9.826  11.353  1.00  0.00    -0.002 A 
HETATM   26  C   UNL     1      41.202  -9.463  11.035  1.00  0.00     0.153 A 
HETATM   27  O   UNL     1      40.427  -9.404  12.149  1.00  0.00    -0.334 OA
HETATM   28  C   UNL     1      41.221  -9.737  13.197  1.00  0.00     0.142 A 
HETATM   29  C   UNL     1      42.497 -10.011  12.765  1.00  0.00     0.038 A 
ENDBRANCH  21  25
ENDBRANCH   2  19
TORSDOF 7
ENDMDL
