MODEL 1
REMARK VINA RESULT:      -8.8      0.000      0.000
REMARK  8 active torsions:
REMARK  status: ('A' for Active; 'I' for Inactive)
REMARK    1  A    between atoms: O_2  and  C_3 
REMARK    2  A    between atoms: C_4  and  O_5 
REMARK    3  A    between atoms: C_8  and  C_9 
REMARK       I    between atoms: C_9  and  N_10 
REMARK    4  A    between atoms: N_10  and  N_11 
REMARK       I    between atoms: N_11  and  C_12 
REMARK    5  A    between atoms: C_12  and  C_13 
REMARK    6  A    between atoms: C_13  and  S_14 
REMARK    7  A    between atoms: S_14  and  C_15 
REMARK    8  A    between atoms: C_18  and  C_19 
ROOT
HETATM    1  N   UNL     1      43.808 -11.123   8.681  1.00  0.00    -0.267 N 
HETATM    2  C   UNL     1      43.355 -10.647   7.466  1.00  0.00     0.245 C 
HETATM    3  O   UNL     1      42.365  -9.917   7.372  1.00  0.00    -0.271 OA
HETATM    4  H   UNL     1      44.801 -11.382   8.778  1.00  0.00     0.190 HD
ENDROOT
BRANCH   2   5
HETATM    5  C   UNL     1      44.147 -11.120   6.263  1.00  0.00     0.187 C 
BRANCH   5   6
HETATM    6  S   UNL     1      43.055 -11.425   4.847  1.00  0.00    -0.083 SA
BRANCH   6   7
HETATM    7  C   UNL     1      42.679 -13.086   5.089  1.00  0.00     0.167 A 
HETATM    8  N   UNL     1      41.925 -13.595   6.029  1.00  0.00    -0.235 NA
HETATM    9  C   UNL     1      41.978 -14.953   5.816  1.00  0.00     0.149 A 
HETATM   10  C   UNL     1      42.756 -15.267   4.713  1.00  0.00     0.062 A 
HETATM   11  N   UNL     1      43.198 -14.040   4.270  1.00  0.00    -0.333 N 
HETATM   12  H   UNL     1      43.825 -13.864   3.499  1.00  0.00     0.168 HD
BRANCH  10  13
HETATM   13  C   UNL     1      43.117 -16.542   4.102  1.00  0.00    -0.008 A 
HETATM   14  C   UNL     1      44.014 -17.420   4.733  1.00  0.00     0.017 A 
HETATM   15  C   UNL     1      44.352 -18.638   4.139  1.00  0.00     0.043 A 
HETATM   16  C   UNL     1      43.796 -18.983   2.915  1.00  0.00     0.116 A 
HETATM   17  F   UNL     1      44.121 -20.151   2.346  1.00  0.00    -0.206 F 
HETATM   18  C   UNL     1      42.909 -18.131   2.270  1.00  0.00     0.043 A 
HETATM   19  C   UNL     1      42.571 -16.911   2.862  1.00  0.00     0.017 A 
ENDBRANCH  10  13
ENDBRANCH   6   7
ENDBRANCH   5   6
ENDBRANCH   2   5
BRANCH   1  20
HETATM   20  N   UNL     1      43.189 -10.621   9.835  1.00  0.00    -0.263 N 
HETATM   21  C   UNL     1      43.922  -9.827  10.694  1.00  0.00     0.270 C 
HETATM   22  O   UNL     1      45.102  -9.546  10.495  1.00  0.00    -0.266 OA
HETATM   23  H   UNL     1      42.180 -10.742   9.875  1.00  0.00     0.190 HD
BRANCH  21  24
HETATM   24  C   UNL     1      43.215  -9.292  11.898  1.00  0.00     0.036 A 
HETATM   25  C   UNL     1      42.050  -9.954  12.322  1.00  0.00     0.056 A 
HETATM   26  C   UNL     1      41.310  -9.504  13.427  1.00  0.00     0.102 A 
HETATM   27  C   UNL     1      41.771  -8.382  14.138  1.00  0.00     0.101 A 
HETATM   28  C   UNL     1      42.918  -7.710  13.698  1.00  0.00     0.040 A 
HETATM   29  C   UNL     1      43.638  -8.153  12.586  1.00  0.00     0.020 A 
BRANCH  26  30
HETATM   30  O   UNL     1      40.148 -10.098  13.841  1.00  0.00    -0.353 OA
HETATM   31  C   UNL     1      39.384 -10.816  12.880  1.00  0.00     0.210 C 
ENDBRANCH  26  30
BRANCH  27  32
HETATM   32  O   UNL     1      41.202  -7.788  15.234  1.00  0.00    -0.353 OA
HETATM   33  C   UNL     1      42.032  -6.969  16.047  1.00  0.00     0.210 C 
ENDBRANCH  27  32
ENDBRANCH  21  24
ENDBRANCH   1  20
TORSDOF 8
ENDMDL
MODEL 2
REMARK VINA RESULT:      -8.5      4.733     11.474
REMARK  8 active torsions:
REMARK  status: ('A' for Active; 'I' for Inactive)
REMARK    1  A    between atoms: O_2  and  C_3 
REMARK    2  A    between atoms: C_4  and  O_5 
REMARK    3  A    between atoms: C_8  and  C_9 
REMARK       I    between atoms: C_9  and  N_10 
REMARK    4  A    between atoms: N_10  and  N_11 
REMARK       I    between atoms: N_11  and  C_12 
REMARK    5  A    between atoms: C_12  and  C_13 
REMARK    6  A    between atoms: C_13  and  S_14 
REMARK    7  A    between atoms: S_14  and  C_15 
REMARK    8  A    between atoms: C_18  and  C_19 
ROOT
HETATM    1  N   UNL     1      43.205 -12.784   7.097  1.00  0.00    -0.267 N 
HETATM    2  C   UNL     1      43.526 -11.554   6.554  1.00  0.00     0.245 C 
HETATM    3  O   UNL     1      44.098 -11.441   5.468  1.00  0.00    -0.271 OA
HETATM    4  H   UNL     1      42.423 -12.847   7.764  1.00  0.00     0.190 HD
ENDROOT
BRANCH   2   5
HETATM    5  C   UNL     1      43.149 -10.364   7.415  1.00  0.00     0.187 C 
BRANCH   5   6
HETATM    6  S   UNL     1      44.589  -9.739   8.324  1.00  0.00    -0.083 SA
BRANCH   6   7
HETATM    7  C   UNL     1      44.097 -10.045   9.945  1.00  0.00     0.167 A 
HETATM    8  N   UNL     1      44.059 -11.202  10.553  1.00  0.00    -0.235 NA
HETATM    9  C   UNL     1      43.557 -10.919  11.801  1.00  0.00     0.149 A 
HETATM   10  C   UNL     1      43.311  -9.564  11.959  1.00  0.00     0.062 A 
HETATM   11  N   UNL     1      43.664  -9.029  10.740  1.00  0.00    -0.333 N 
HETATM   12  H   UNL     1      43.589  -8.063  10.457  1.00  0.00     0.168 HD
BRANCH  10  13
HETATM   13  C   UNL     1      42.779  -8.791  13.076  1.00  0.00    -0.008 A 
HETATM   14  C   UNL     1      41.639  -9.219  13.775  1.00  0.00     0.017 A 
HETATM   15  C   UNL     1      41.137  -8.470  14.843  1.00  0.00     0.043 A 
HETATM   16  C   UNL     1      41.773  -7.293  15.214  1.00  0.00     0.116 A 
HETATM   17  F   UNL     1      41.292  -6.576  16.237  1.00  0.00    -0.206 F 
HETATM   18  C   UNL     1      42.900  -6.847  14.535  1.00  0.00     0.043 A 
HETATM   19  C   UNL     1      43.401  -7.594  13.466  1.00  0.00     0.017 A 
ENDBRANCH  10  13
ENDBRANCH   6   7
ENDBRANCH   5   6
ENDBRANCH   2   5
BRANCH   1  20
HETATM   20  N   UNL     1      43.420 -13.912   6.292  1.00  0.00    -0.263 N 
HETATM   21  C   UNL     1      43.212 -15.166   6.832  1.00  0.00     0.270 C 
HETATM   22  O   UNL     1      42.855 -15.338   7.995  1.00  0.00    -0.266 OA
HETATM   23  H   UNL     1      43.555 -13.721   5.302  1.00  0.00     0.190 HD
BRANCH  21  24
HETATM   24  C   UNL     1      43.428 -16.340   5.931  1.00  0.00     0.036 A 
HETATM   25  C   UNL     1      43.407 -16.113   4.543  1.00  0.00     0.056 A 
HETATM   26  C   UNL     1      43.575 -17.163   3.626  1.00  0.00     0.102 A 
HETATM   27  C   UNL     1      43.800 -18.461   4.116  1.00  0.00     0.101 A 
HETATM   28  C   UNL     1      43.795 -18.687   5.499  1.00  0.00     0.040 A 
HETATM   29  C   UNL     1      43.609 -17.640   6.405  1.00  0.00     0.020 A 
BRANCH  26  30
HETATM   30  O   UNL     1      43.517 -16.986   2.269  1.00  0.00    -0.353 OA
HETATM   31  C   UNL     1      43.236 -15.682   1.775  1.00  0.00     0.210 C 
ENDBRANCH  26  30
BRANCH  27  32
HETATM   32  O   UNL     1      43.986 -19.612   3.397  1.00  0.00    -0.353 OA
HETATM   33  C   UNL     1      43.958 -20.845   4.104  1.00  0.00     0.210 C 
ENDBRANCH  27  32
ENDBRANCH  21  24
ENDBRANCH   1  20
TORSDOF 8
ENDMDL
MODEL 3
REMARK VINA RESULT:      -8.4      1.643      1.871
REMARK  8 active torsions:
REMARK  status: ('A' for Active; 'I' for Inactive)
REMARK    1  A    between atoms: O_2  and  C_3 
REMARK    2  A    between atoms: C_4  and  O_5 
REMARK    3  A    between atoms: C_8  and  C_9 
REMARK       I    between atoms: C_9  and  N_10 
REMARK    4  A    between atoms: N_10  and  N_11 
REMARK       I    between atoms: N_11  and  C_12 
REMARK    5  A    between atoms: C_12  and  C_13 
REMARK    6  A    between atoms: C_13  and  S_14 
REMARK    7  A    between atoms: S_14  and  C_15 
REMARK    8  A    between atoms: C_18  and  C_19 
ROOT
HETATM    1  N   UNL     1      43.278 -10.755   8.323  1.00  0.00    -0.267 N 
HETATM    2  C   UNL     1      44.506 -11.259   7.939  1.00  0.00     0.245 C 
HETATM    3  O   UNL     1      45.532 -11.065   8.595  1.00  0.00    -0.271 OA
HETATM    4  H   UNL     1      42.421 -11.230   8.005  1.00  0.00     0.190 HD
ENDROOT
BRANCH   2   5
HETATM    5  C   UNL     1      44.494 -12.034   6.636  1.00  0.00     0.187 C 
BRANCH   5   6
HETATM    6  S   UNL     1      42.794 -12.370   6.098  1.00  0.00    -0.083 SA
BRANCH   6   7
HETATM    7  C   UNL     1      42.780 -14.090   6.153  1.00  0.00     0.167 A 
HETATM    8  N   UNL     1      42.552 -14.844   7.198  1.00  0.00    -0.235 NA
HETATM    9  C   UNL     1      42.698 -16.130   6.733  1.00  0.00     0.149 A 
HETATM   10  C   UNL     1      42.994 -16.154   5.378  1.00  0.00     0.062 A 
HETATM   11  N   UNL     1      43.045 -14.820   5.036  1.00  0.00    -0.333 N 
HETATM   12  H   UNL     1      43.272 -14.435   4.131  1.00  0.00     0.168 HD
BRANCH  10  13
HETATM   13  C   UNL     1      43.244 -17.253   4.452  1.00  0.00    -0.008 A 
HETATM   14  C   UNL     1      43.985 -18.378   4.847  1.00  0.00     0.017 A 
HETATM   15  C   UNL     1      44.219 -19.425   3.951  1.00  0.00     0.043 A 
HETATM   16  C   UNL     1      43.714 -19.349   2.660  1.00  0.00     0.116 A 
HETATM   17  F   UNL     1      43.939 -20.353   1.803  1.00  0.00    -0.206 F 
HETATM   18  C   UNL     1      42.981 -18.245   2.245  1.00  0.00     0.043 A 
HETATM   19  C   UNL     1      42.749 -17.197   3.140  1.00  0.00     0.017 A 
ENDBRANCH  10  13
ENDBRANCH   6   7
ENDBRANCH   5   6
ENDBRANCH   2   5
BRANCH   1  20
HETATM   20  N   UNL     1      43.207 -10.135   9.580  1.00  0.00    -0.263 N 
HETATM   21  C   UNL     1      42.450  -8.988   9.715  1.00  0.00     0.270 C 
HETATM   22  O   UNL     1      41.841  -8.479   8.778  1.00  0.00    -0.266 OA
HETATM   23  H   UNL     1      43.588 -10.675  10.353  1.00  0.00     0.190 HD
BRANCH  21  24
HETATM   24  C   UNL     1      42.381  -8.376  11.078  1.00  0.00     0.036 A 
HETATM   25  C   UNL     1      41.236  -7.627  11.403  1.00  0.00     0.056 A 
HETATM   26  C   UNL     1      41.101  -6.997  12.650  1.00  0.00     0.102 A 
HETATM   27  C   UNL     1      42.125  -7.150  13.600  1.00  0.00     0.101 A 
HETATM   28  C   UNL     1      43.275  -7.876  13.264  1.00  0.00     0.040 A 
HETATM   29  C   UNL     1      43.410  -8.485  12.014  1.00  0.00     0.020 A 
BRANCH  26  30
HETATM   30  O   UNL     1      40.021  -6.224  12.984  1.00  0.00    -0.353 OA
HETATM   31  C   UNL     1      38.866  -6.876  13.500  1.00  0.00     0.210 C 
ENDBRANCH  26  30
BRANCH  27  32
HETATM   32  O   UNL     1      42.188  -6.623  14.863  1.00  0.00    -0.353 OA
HETATM   33  C   UNL     1      41.770  -7.446  15.944  1.00  0.00     0.210 C 
ENDBRANCH  27  32
ENDBRANCH  21  24
ENDBRANCH   1  20
TORSDOF 8
ENDMDL
MODEL 4
REMARK VINA RESULT:      -8.3      5.615     10.156
REMARK  8 active torsions:
REMARK  status: ('A' for Active; 'I' for Inactive)
REMARK    1  A    between atoms: O_2  and  C_3 
REMARK    2  A    between atoms: C_4  and  O_5 
REMARK    3  A    between atoms: C_8  and  C_9 
REMARK       I    between atoms: C_9  and  N_10 
REMARK    4  A    between atoms: N_10  and  N_11 
REMARK       I    between atoms: N_11  and  C_12 
REMARK    5  A    between atoms: C_12  and  C_13 
REMARK    6  A    between atoms: C_13  and  S_14 
REMARK    7  A    between atoms: S_14  and  C_15 
REMARK    8  A    between atoms: C_18  and  C_19 
ROOT
HETATM    1  N   UNL     1      40.738 -11.255   3.710  1.00  0.00    -0.267 N 
HETATM    2  C   UNL     1      40.395 -12.039   4.795  1.00  0.00     0.245 C 
HETATM    3  O   UNL     1      39.682 -13.040   4.686  1.00  0.00    -0.271 OA
HETATM    4  H   UNL     1      41.602 -10.695   3.750  1.00  0.00     0.190 HD
ENDROOT
BRANCH   2   5
HETATM    5  C   UNL     1      40.937 -11.553   6.125  1.00  0.00     0.187 C 
BRANCH   5   6
HETATM    6  S   UNL     1      42.751 -11.575   6.133  1.00  0.00    -0.083 SA
BRANCH   6   7
HETATM    7  C   UNL     1      43.048 -13.269   6.163  1.00  0.00     0.167 A 
HETATM    8  N   UNL     1      43.409 -13.988   7.195  1.00  0.00    -0.235 NA
HETATM    9  C   UNL     1      43.558 -15.260   6.693  1.00  0.00     0.149 A 
HETATM   10  C   UNL     1      43.257 -15.315   5.341  1.00  0.00     0.062 A 
HETATM   11  N   UNL     1      42.937 -14.012   5.029  1.00  0.00    -0.333 N 
HETATM   12  H   UNL     1      42.696 -13.649   4.119  1.00  0.00     0.168 HD
BRANCH  10  13
HETATM   13  C   UNL     1      43.275 -16.412   4.380  1.00  0.00    -0.008 A 
HETATM   14  C   UNL     1      43.952 -17.610   4.660  1.00  0.00     0.017 A 
HETATM   15  C   UNL     1      43.963 -18.654   3.732  1.00  0.00     0.043 A 
HETATM   16  C   UNL     1      43.298 -18.505   2.523  1.00  0.00     0.116 A 
HETATM   17  F   UNL     1      43.308 -19.506   1.634  1.00  0.00    -0.206 F 
HETATM   18  C   UNL     1      42.623 -17.329   2.222  1.00  0.00     0.043 A 
HETATM   19  C   UNL     1      42.614 -16.283   3.148  1.00  0.00     0.017 A 
ENDBRANCH  10  13
ENDBRANCH   6   7
ENDBRANCH   5   6
ENDBRANCH   2   5
BRANCH   1  20
HETATM   20  N   UNL     1      40.367 -11.723   2.441  1.00  0.00    -0.263 N 
HETATM   21  C   UNL     1      41.253 -12.515   1.737  1.00  0.00     0.270 C 
HETATM   22  O   UNL     1      42.361 -12.821   2.172  1.00  0.00    -0.266 OA
HETATM   23  H   UNL     1      39.391 -11.583   2.194  1.00  0.00     0.190 HD
BRANCH  21  24
HETATM   24  C   UNL     1      40.806 -13.014   0.400  1.00  0.00     0.036 A 
HETATM   25  C   UNL     1      40.985 -12.168  -0.708  1.00  0.00     0.056 A 
HETATM   26  C   UNL     1      40.570 -12.547  -1.995  1.00  0.00     0.102 A 
HETATM   27  C   UNL     1      39.993 -13.816  -2.174  1.00  0.00     0.101 A 
HETATM   28  C   UNL     1      39.794 -14.646  -1.063  1.00  0.00     0.040 A 
HETATM   29  C   UNL     1      40.192 -14.254   0.217  1.00  0.00     0.020 A 
BRANCH  26  30
HETATM   30  O   UNL     1      40.689 -11.732  -3.089  1.00  0.00    -0.353 OA
HETATM   31  C   UNL     1      39.739 -10.687  -3.252  1.00  0.00     0.210 C 
ENDBRANCH  26  30
BRANCH  27  32
HETATM   32  O   UNL     1      39.526 -14.373  -3.336  1.00  0.00    -0.353 OA
HETATM   33  C   UNL     1      38.123 -14.562  -3.461  1.00  0.00     0.210 C 
ENDBRANCH  27  32
ENDBRANCH  21  24
ENDBRANCH   1  20
TORSDOF 8
ENDMDL
MODEL 5
REMARK VINA RESULT:      -8.2      5.817      9.836
REMARK  8 active torsions:
REMARK  status: ('A' for Active; 'I' for Inactive)
REMARK    1  A    between atoms: O_2  and  C_3 
REMARK    2  A    between atoms: C_4  and  O_5 
REMARK    3  A    between atoms: C_8  and  C_9 
REMARK       I    between atoms: C_9  and  N_10 
REMARK    4  A    between atoms: N_10  and  N_11 
REMARK       I    between atoms: N_11  and  C_12 
REMARK    5  A    between atoms: C_12  and  C_13 
REMARK    6  A    between atoms: C_13  and  S_14 
REMARK    7  A    between atoms: S_14  and  C_15 
REMARK    8  A    between atoms: C_18  and  C_19 
ROOT
HETATM    1  N   UNL     1      41.895 -13.709   0.866  1.00  0.00    -0.267 N 
HETATM    2  C   UNL     1      40.524 -13.529   0.857  1.00  0.00     0.245 C 
HETATM    3  O   UNL     1      39.740 -14.430   1.166  1.00  0.00    -0.271 OA
HETATM    4  H   UNL     1      42.505 -12.888   0.989  1.00  0.00     0.190 HD
ENDROOT
BRANCH   2   5
HETATM    5  C   UNL     1      40.067 -12.156   0.408  1.00  0.00     0.187 C 
BRANCH   5   6
HETATM    6  S   UNL     1      41.363 -10.917   0.690  1.00  0.00    -0.083 SA
BRANCH   6   7
HETATM    7  C   UNL     1      41.333 -10.813   2.407  1.00  0.00     0.167 A 
HETATM    8  N   UNL     1      40.289 -10.599   3.166  1.00  0.00    -0.235 NA
HETATM    9  C   UNL     1      40.794 -10.561   4.444  1.00  0.00     0.149 A 
HETATM   10  C   UNL     1      42.163 -10.780   4.460  1.00  0.00     0.062 A 
HETATM   11  N   UNL     1      42.480 -10.934   3.128  1.00  0.00    -0.333 N 
HETATM   12  H   UNL     1      43.399 -11.076   2.737  1.00  0.00     0.168 HD
BRANCH  10  13
HETATM   13  C   UNL     1      43.133 -10.825   5.549  1.00  0.00    -0.008 A 
HETATM   14  C   UNL     1      42.900 -10.144   6.754  1.00  0.00     0.017 A 
HETATM   15  C   UNL     1      43.836 -10.192   7.791  1.00  0.00     0.043 A 
HETATM   16  C   UNL     1      45.006 -10.920   7.624  1.00  0.00     0.116 A 
HETATM   17  F   UNL     1      45.903 -10.966   8.618  1.00  0.00    -0.206 F 
HETATM   18  C   UNL     1      45.261 -11.599   6.440  1.00  0.00     0.043 A 
HETATM   19  C   UNL     1      44.326 -11.549   5.402  1.00  0.00     0.017 A 
ENDBRANCH  10  13
ENDBRANCH   6   7
ENDBRANCH   5   6
ENDBRANCH   2   5
BRANCH   1  20
HETATM   20  N   UNL     1      42.377 -14.918   1.389  1.00  0.00    -0.263 N 
HETATM   21  C   UNL     1      42.716 -14.978   2.726  1.00  0.00     0.270 C 
HETATM   22  O   UNL     1      42.622 -14.012   3.480  1.00  0.00    -0.266 OA
HETATM   23  H   UNL     1      42.285 -15.724   0.776  1.00  0.00     0.190 HD
BRANCH  21  24
HETATM   24  C   UNL     1      43.201 -16.293   3.247  1.00  0.00     0.036 A 
HETATM   25  C   UNL     1      43.371 -16.426   4.636  1.00  0.00     0.056 A 
HETATM   26  C   UNL     1      43.846 -17.618   5.207  1.00  0.00     0.102 A 
HETATM   27  C   UNL     1      44.126 -18.707   4.364  1.00  0.00     0.101 A 
HETATM   28  C   UNL     1      43.979 -18.563   2.978  1.00  0.00     0.040 A 
HETATM   29  C   UNL     1      43.524 -17.368   2.417  1.00  0.00     0.020 A 
BRANCH  26  30
HETATM   30  O   UNL     1      44.065 -17.768   6.550  1.00  0.00    -0.353 OA
HETATM   31  C   UNL     1      43.749 -16.677   7.406  1.00  0.00     0.210 C 
ENDBRANCH  26  30
BRANCH  27  32
HETATM   32  O   UNL     1      44.594 -19.946   4.716  1.00  0.00    -0.353 OA
HETATM   33  C   UNL     1      43.662 -20.877   5.250  1.00  0.00     0.210 C 
ENDBRANCH  27  32
ENDBRANCH  21  24
ENDBRANCH   1  20
TORSDOF 8
ENDMDL
MODEL 6
REMARK VINA RESULT:      -8.0      1.915      2.369
REMARK  8 active torsions:
REMARK  status: ('A' for Active; 'I' for Inactive)
REMARK    1  A    between atoms: O_2  and  C_3 
REMARK    2  A    between atoms: C_4  and  O_5 
REMARK    3  A    between atoms: C_8  and  C_9 
REMARK       I    between atoms: C_9  and  N_10 
REMARK    4  A    between atoms: N_10  and  N_11 
REMARK       I    between atoms: N_11  and  C_12 
REMARK    5  A    between atoms: C_12  and  C_13 
REMARK    6  A    between atoms: C_13  and  S_14 
REMARK    7  A    between atoms: S_14  and  C_15 
REMARK    8  A    between atoms: C_18  and  C_19 
ROOT
HETATM    1  N   UNL     1      42.796 -11.003   7.512  1.00  0.00    -0.267 N 
HETATM    2  C   UNL     1      42.583 -10.614   6.203  1.00  0.00     0.245 C 
HETATM    3  O   UNL     1      42.077  -9.527   5.912  1.00  0.00    -0.271 OA
HETATM    4  H   UNL     1      43.536 -11.691   7.714  1.00  0.00     0.190 HD
ENDROOT
BRANCH   2   5
HETATM    5  C   UNL     1      42.986 -11.640   5.163  1.00  0.00     0.187 C 
BRANCH   5   6
HETATM    6  S   UNL     1      41.590 -12.721   4.744  1.00  0.00    -0.083 SA
BRANCH   6   7
HETATM    7  C   UNL     1      42.382 -13.895   3.765  1.00  0.00     0.167 A 
HETATM    8  N   UNL     1      42.939 -13.702   2.598  1.00  0.00    -0.235 NA
HETATM    9  C   UNL     1      43.384 -14.947   2.219  1.00  0.00     0.149 A 
HETATM   10  C   UNL     1      43.114 -15.903   3.186  1.00  0.00     0.062 A 
HETATM   11  N   UNL     1      42.460 -15.192   4.168  1.00  0.00    -0.333 N 
HETATM   12  H   UNL     1      42.071 -15.559   5.024  1.00  0.00     0.168 HD
BRANCH  10  13
HETATM   13  C   UNL     1      43.375 -17.337   3.241  1.00  0.00    -0.008 A 
HETATM   14  C   UNL     1      44.002 -17.917   4.356  1.00  0.00     0.017 A 
HETATM   15  C   UNL     1      44.249 -19.292   4.398  1.00  0.00     0.043 A 
HETATM   16  C   UNL     1      43.869 -20.090   3.327  1.00  0.00     0.116 A 
HETATM   17  F   UNL     1      44.105 -21.407   3.368  1.00  0.00    -0.206 F 
HETATM   18  C   UNL     1      43.250 -19.540   2.212  1.00  0.00     0.043 A 
HETATM   19  C   UNL     1      43.006 -18.165   2.169  1.00  0.00     0.017 A 
ENDBRANCH  10  13
ENDBRANCH   6   7
ENDBRANCH   5   6
ENDBRANCH   2   5
BRANCH   1  20
HETATM   20  N   UNL     1      42.555 -10.047   8.509  1.00  0.00    -0.263 N 
HETATM   21  C   UNL     1      43.323 -10.074   9.657  1.00  0.00     0.270 C 
HETATM   22  O   UNL     1      44.205 -10.908   9.849  1.00  0.00    -0.266 OA
HETATM   23  H   UNL     1      41.936  -9.287   8.243  1.00  0.00     0.190 HD
BRANCH  21  24
HETATM   24  C   UNL     1      43.049  -9.020  10.683  1.00  0.00     0.036 A 
HETATM   25  C   UNL     1      42.364  -7.865  10.269  1.00  0.00     0.056 A 
HETATM   26  C   UNL     1      42.089  -6.816  11.161  1.00  0.00     0.102 A 
HETATM   27  C   UNL     1      42.485  -6.947  12.503  1.00  0.00     0.101 A 
HETATM   28  C   UNL     1      43.190  -8.088  12.906  1.00  0.00     0.040 A 
HETATM   29  C   UNL     1      43.476  -9.120  12.009  1.00  0.00     0.020 A 
BRANCH  26  30
HETATM   30  O   UNL     1      41.462  -5.658  10.783  1.00  0.00    -0.353 OA
HETATM   31  C   UNL     1      40.080  -5.516  11.085  1.00  0.00     0.210 C 
ENDBRANCH  26  30
BRANCH  27  32
HETATM   32  O   UNL     1      42.314  -6.048  13.524  1.00  0.00    -0.353 OA
HETATM   33  C   UNL     1      42.306  -6.551  14.853  1.00  0.00     0.210 C 
ENDBRANCH  27  32
ENDBRANCH  21  24
ENDBRANCH   1  20
TORSDOF 8
ENDMDL
MODEL 7
REMARK VINA RESULT:      -7.9      1.890      2.328
REMARK  8 active torsions:
REMARK  status: ('A' for Active; 'I' for Inactive)
REMARK    1  A    between atoms: O_2  and  C_3 
REMARK    2  A    between atoms: C_4  and  O_5 
REMARK    3  A    between atoms: C_8  and  C_9 
REMARK       I    between atoms: C_9  and  N_10 
REMARK    4  A    between atoms: N_10  and  N_11 
REMARK       I    between atoms: N_11  and  C_12 
REMARK    5  A    between atoms: C_12  and  C_13 
REMARK    6  A    between atoms: C_13  and  S_14 
REMARK    7  A    between atoms: S_14  and  C_15 
REMARK    8  A    between atoms: C_18  and  C_19 
ROOT
HETATM    1  N   UNL     1      43.207  -9.754   7.602  1.00  0.00    -0.267 N 
HETATM    2  C   UNL     1      44.015 -10.863   7.763  1.00  0.00     0.245 C 
HETATM    3  O   UNL     1      44.503 -11.170   8.853  1.00  0.00    -0.271 OA
HETATM    4  H   UNL     1      42.528  -9.738   6.827  1.00  0.00     0.190 HD
ENDROOT
BRANCH   2   5
HETATM    5  C   UNL     1      44.279 -11.645   6.491  1.00  0.00     0.187 C 
BRANCH   5   6
HETATM    6  S   UNL     1      42.723 -12.139   5.700  1.00  0.00    -0.083 SA
BRANCH   6   7
HETATM    7  C   UNL     1      42.813 -13.849   5.864  1.00  0.00     0.167 A 
HETATM    8  N   UNL     1      42.718 -14.541   6.970  1.00  0.00    -0.235 NA
HETATM    9  C   UNL     1      42.899 -15.846   6.576  1.00  0.00     0.149 A 
HETATM   10  C   UNL     1      43.081 -15.946   5.206  1.00  0.00     0.062 A 
HETATM   11  N   UNL     1      43.026 -14.639   4.777  1.00  0.00    -0.333 N 
HETATM   12  H   UNL     1      43.154 -14.304   3.833  1.00  0.00     0.168 HD
BRANCH  10  13
HETATM   13  C   UNL     1      43.316 -17.091   4.332  1.00  0.00    -0.008 A 
HETATM   14  C   UNL     1      42.711 -17.175   3.068  1.00  0.00     0.017 A 
HETATM   15  C   UNL     1      42.943 -18.277   2.240  1.00  0.00     0.043 A 
HETATM   16  C   UNL     1      43.779 -19.296   2.674  1.00  0.00     0.116 A 
HETATM   17  F   UNL     1      44.001 -20.352   1.880  1.00  0.00    -0.206 F 
HETATM   18  C   UNL     1      44.386 -19.238   3.921  1.00  0.00     0.043 A 
HETATM   19  C   UNL     1      44.153 -18.138   4.750  1.00  0.00     0.017 A 
ENDBRANCH  10  13
ENDBRANCH   6   7
ENDBRANCH   5   6
ENDBRANCH   2   5
BRANCH   1  20
HETATM   20  N   UNL     1      42.831  -9.063   8.764  1.00  0.00    -0.263 N 
HETATM   21  C   UNL     1      43.474  -7.881   9.074  1.00  0.00     0.270 C 
HETATM   22  O   UNL     1      44.371  -7.410   8.380  1.00  0.00    -0.266 OA
HETATM   23  H   UNL     1      41.984  -9.400   9.214  1.00  0.00     0.190 HD
BRANCH  21  24
HETATM   24  C   UNL     1      43.023  -7.165  10.308  1.00  0.00     0.036 A 
HETATM   25  C   UNL     1      43.028  -7.879  11.519  1.00  0.00     0.056 A 
HETATM   26  C   UNL     1      42.596  -7.291  12.718  1.00  0.00     0.102 A 
HETATM   27  C   UNL     1      42.181  -5.949  12.703  1.00  0.00     0.101 A 
HETATM   28  C   UNL     1      42.154  -5.248  11.490  1.00  0.00     0.040 A 
HETATM   29  C   UNL     1      42.567  -5.846  10.298  1.00  0.00     0.020 A 
BRANCH  26  30
HETATM   30  O   UNL     1      42.546  -7.969  13.907  1.00  0.00    -0.353 OA
HETATM   31  C   UNL     1      41.590  -9.013  14.044  1.00  0.00     0.210 C 
ENDBRANCH  26  30
BRANCH  27  32
HETATM   32  O   UNL     1      41.727  -5.195  13.754  1.00  0.00    -0.353 OA
HETATM   33  C   UNL     1      41.708  -3.783  13.595  1.00  0.00     0.210 C 
ENDBRANCH  27  32
ENDBRANCH  21  24
ENDBRANCH   1  20
TORSDOF 8
ENDMDL
MODEL 8
REMARK VINA RESULT:      -7.9      5.671      9.543
REMARK  8 active torsions:
REMARK  status: ('A' for Active; 'I' for Inactive)
REMARK    1  A    between atoms: O_2  and  C_3 
REMARK    2  A    between atoms: C_4  and  O_5 
REMARK    3  A    between atoms: C_8  and  C_9 
REMARK       I    between atoms: C_9  and  N_10 
REMARK    4  A    between atoms: N_10  and  N_11 
REMARK       I    between atoms: N_11  and  C_12 
REMARK    5  A    between atoms: C_12  and  C_13 
REMARK    6  A    between atoms: C_13  and  S_14 
REMARK    7  A    between atoms: S_14  and  C_15 
REMARK    8  A    between atoms: C_18  and  C_19 
ROOT
HETATM    1  N   UNL     1      43.422 -11.894   3.420  1.00  0.00    -0.267 N 
HETATM    2  C   UNL     1      43.393 -11.186   4.607  1.00  0.00     0.245 C 
HETATM    3  O   UNL     1      42.590 -10.273   4.811  1.00  0.00    -0.271 OA
HETATM    4  H   UNL     1      43.802 -12.851   3.418  1.00  0.00     0.190 HD
ENDROOT
BRANCH   2   5
HETATM    5  C   UNL     1      44.446 -11.599   5.617  1.00  0.00     0.187 C 
BRANCH   5   6
HETATM    6  S   UNL     1      43.727 -12.650   6.909  1.00  0.00    -0.083 SA
BRANCH   6   7
HETATM    7  C   UNL     1      42.930 -13.834   5.947  1.00  0.00     0.167 A 
HETATM    8  N   UNL     1      41.661 -13.868   5.629  1.00  0.00    -0.235 NA
HETATM    9  C   UNL     1      41.522 -15.023   4.895  1.00  0.00     0.149 A 
HETATM   10  C   UNL     1      42.731 -15.684   4.746  1.00  0.00     0.062 A 
HETATM   11  N   UNL     1      43.618 -14.893   5.442  1.00  0.00    -0.333 N 
HETATM   12  H   UNL     1      44.601 -15.071   5.591  1.00  0.00     0.168 HD
BRANCH  10  13
HETATM   13  C   UNL     1      43.087 -16.928   4.073  1.00  0.00    -0.008 A 
HETATM   14  C   UNL     1      42.556 -17.250   2.814  1.00  0.00     0.017 A 
HETATM   15  C   UNL     1      42.903 -18.446   2.180  1.00  0.00     0.043 A 
HETATM   16  C   UNL     1      43.782 -19.322   2.802  1.00  0.00     0.116 A 
HETATM   17  F   UNL     1      44.115 -20.467   2.193  1.00  0.00    -0.206 F 
HETATM   18  C   UNL     1      44.319 -19.028   4.049  1.00  0.00     0.043 A 
HETATM   19  C   UNL     1      43.970 -17.833   4.685  1.00  0.00     0.017 A 
ENDBRANCH  10  13
ENDBRANCH   6   7
ENDBRANCH   5   6
ENDBRANCH   2   5
BRANCH   1  20
HETATM   20  N   UNL     1      42.395 -11.638   2.499  1.00  0.00    -0.263 N 
HETATM   21  C   UNL     1      41.949 -12.667   1.694  1.00  0.00     0.270 C 
HETATM   22  O   UNL     1      42.421 -13.801   1.743  1.00  0.00    -0.266 OA
HETATM   23  H   UNL     1      41.929 -10.740   2.606  1.00  0.00     0.190 HD
BRANCH  21  24
HETATM   24  C   UNL     1      40.836 -12.356   0.745  1.00  0.00     0.036 A 
HETATM   25  C   UNL     1      40.256 -13.426   0.041  1.00  0.00     0.056 A 
HETATM   26  C   UNL     1      39.224 -13.220  -0.887  1.00  0.00     0.102 A 
HETATM   27  C   UNL     1      38.744 -11.914  -1.088  1.00  0.00     0.101 A 
HETATM   28  C   UNL     1      39.341 -10.847  -0.403  1.00  0.00     0.040 A 
HETATM   29  C   UNL     1      40.380 -11.059   0.506  1.00  0.00     0.020 A 
BRANCH  26  30
HETATM   30  O   UNL     1      38.666 -14.232  -1.622  1.00  0.00    -0.353 OA
HETATM   31  C   UNL     1      39.249 -14.546  -2.881  1.00  0.00     0.210 C 
ENDBRANCH  26  30
BRANCH  27  32
HETATM   32  O   UNL     1      37.753 -11.502  -1.939  1.00  0.00    -0.353 OA
HETATM   33  C   UNL     1      38.118 -10.646  -3.013  1.00  0.00     0.210 C 
ENDBRANCH  27  32
ENDBRANCH  21  24
ENDBRANCH   1  20
TORSDOF 8
ENDMDL
MODEL 9
REMARK VINA RESULT:      -7.8      4.757     11.236
REMARK  8 active torsions:
REMARK  status: ('A' for Active; 'I' for Inactive)
REMARK    1  A    between atoms: O_2  and  C_3 
REMARK    2  A    between atoms: C_4  and  O_5 
REMARK    3  A    between atoms: C_8  and  C_9 
REMARK       I    between atoms: C_9  and  N_10 
REMARK    4  A    between atoms: N_10  and  N_11 
REMARK       I    between atoms: N_11  and  C_12 
REMARK    5  A    between atoms: C_12  and  C_13 
REMARK    6  A    between atoms: C_13  and  S_14 
REMARK    7  A    between atoms: S_14  and  C_15 
REMARK    8  A    between atoms: C_18  and  C_19 
ROOT
HETATM    1  N   UNL     1      39.462 -13.361   5.290  1.00  0.00    -0.267 N 
HETATM    2  C   UNL     1      40.027 -12.160   5.674  1.00  0.00     0.245 C 
HETATM    3  O   UNL     1      41.227 -12.050   5.936  1.00  0.00    -0.271 OA
HETATM    4  H   UNL     1      38.602 -13.351   4.723  1.00  0.00     0.190 HD
ENDROOT
BRANCH   2   5
HETATM    5  C   UNL     1      39.051 -11.005   5.777  1.00  0.00     0.187 C 
BRANCH   5   6
HETATM    6  S   UNL     1      39.902  -9.479   6.267  1.00  0.00    -0.083 SA
BRANCH   6   7
HETATM    7  C   UNL     1      39.779  -9.584   7.980  1.00  0.00     0.167 A 
HETATM    8  N   UNL     1      38.797 -10.106   8.669  1.00  0.00    -0.235 NA
HETATM    9  C   UNL     1      39.152  -9.902   9.982  1.00  0.00     0.149 A 
HETATM   10  C   UNL     1      40.381  -9.269  10.087  1.00  0.00     0.062 A 
HETATM   11  N   UNL     1      40.756  -9.072   8.777  1.00  0.00    -0.333 N 
HETATM   12  H   UNL     1      41.586  -8.603   8.448  1.00  0.00     0.168 HD
BRANCH  10  13
HETATM   13  C   UNL     1      41.162  -8.838  11.242  1.00  0.00    -0.008 A 
HETATM   14  C   UNL     1      42.362  -8.127  11.080  1.00  0.00     0.017 A 
HETATM   15  C   UNL     1      43.103  -7.720  12.193  1.00  0.00     0.043 A 
HETATM   16  C   UNL     1      42.646  -8.022  13.469  1.00  0.00     0.116 A 
HETATM   17  F   UNL     1      43.356  -7.631  14.535  1.00  0.00    -0.206 F 
HETATM   18  C   UNL     1      41.464  -8.727  13.655  1.00  0.00     0.043 A 
HETATM   19  C   UNL     1      40.724  -9.136  12.542  1.00  0.00     0.017 A 
ENDBRANCH  10  13
ENDBRANCH   6   7
ENDBRANCH   5   6
ENDBRANCH   2   5
BRANCH   1  20
HETATM   20  N   UNL     1      40.336 -14.434   5.060  1.00  0.00    -0.263 N 
HETATM   21  C   UNL     1      40.603 -14.810   3.758  1.00  0.00     0.270 C 
HETATM   22  O   UNL     1      40.098 -14.250   2.788  1.00  0.00    -0.266 OA
HETATM   23  H   UNL     1      40.851 -14.757   5.875  1.00  0.00     0.190 HD
BRANCH  21  24
HETATM   24  C   UNL     1      41.561 -15.941   3.559  1.00  0.00     0.036 A 
HETATM   25  C   UNL     1      42.191 -16.474   4.697  1.00  0.00     0.056 A 
HETATM   26  C   UNL     1      43.123 -17.519   4.597  1.00  0.00     0.102 A 
HETATM   27  C   UNL     1      43.403 -18.058   3.330  1.00  0.00     0.101 A 
HETATM   28  C   UNL     1      42.792 -17.508   2.196  1.00  0.00     0.040 A 
HETATM   29  C   UNL     1      41.880 -16.456   2.301  1.00  0.00     0.020 A 
BRANCH  26  30
HETATM   30  O   UNL     1      43.788 -18.034   5.679  1.00  0.00    -0.353 OA
HETATM   31  C   UNL     1      43.617 -17.392   6.936  1.00  0.00     0.210 C 
ENDBRANCH  26  30
BRANCH  27  32
HETATM   32  O   UNL     1      44.272 -19.071   3.018  1.00  0.00    -0.353 OA
HETATM   33  C   UNL     1      43.759 -20.182   2.293  1.00  0.00     0.210 C 
ENDBRANCH  27  32
ENDBRANCH  21  24
ENDBRANCH   1  20
TORSDOF 8
ENDMDL
MODEL 10
REMARK VINA RESULT:      -7.8      2.002      2.142
REMARK  8 active torsions:
REMARK  status: ('A' for Active; 'I' for Inactive)
REMARK    1  A    between atoms: O_2  and  C_3 
REMARK    2  A    between atoms: C_4  and  O_5 
REMARK    3  A    between atoms: C_8  and  C_9 
REMARK       I    between atoms: C_9  and  N_10 
REMARK    4  A    between atoms: N_10  and  N_11 
REMARK       I    between atoms: N_11  and  C_12 
REMARK    5  A    between atoms: C_12  and  C_13 
REMARK    6  A    between atoms: C_13  and  S_14 
REMARK    7  A    between atoms: S_14  and  C_15 
REMARK    8  A    between atoms: C_18  and  C_19 
ROOT
HETATM    1  N   UNL     1      41.241 -10.217   7.935  1.00  0.00    -0.267 N 
HETATM    2  C   UNL     1      40.078 -10.184   7.189  1.00  0.00     0.245 C 
HETATM    3  O   UNL     1      39.009  -9.780   7.653  1.00  0.00    -0.271 OA
HETATM    4  H   UNL     1      42.148 -10.179   7.448  1.00  0.00     0.190 HD
ENDROOT
BRANCH   2   5
HETATM    5  C   UNL     1      40.216 -10.714   5.775  1.00  0.00     0.187 C 
BRANCH   5   6
HETATM    6  S   UNL     1      39.571 -12.405   5.652  1.00  0.00    -0.083 SA
BRANCH   6   7
HETATM    7  C   UNL     1      41.039 -13.300   5.583  1.00  0.00     0.167 A 
HETATM    8  N   UNL     1      42.172 -13.002   6.165  1.00  0.00    -0.235 NA
HETATM    9  C   UNL     1      43.035 -13.995   5.767  1.00  0.00     0.149 A 
HETATM   10  C   UNL     1      42.407 -14.923   4.951  1.00  0.00     0.062 A 
HETATM   11  N   UNL     1      41.120 -14.441   4.847  1.00  0.00    -0.333 N 
HETATM   12  H   UNL     1      40.369 -14.833   4.299  1.00  0.00     0.168 HD
BRANCH  10  13
HETATM   13  C   UNL     1      42.893 -16.125   4.283  1.00  0.00    -0.008 A 
HETATM   14  C   UNL     1      43.754 -17.020   4.938  1.00  0.00     0.017 A 
HETATM   15  C   UNL     1      44.215 -18.168   4.289  1.00  0.00     0.043 A 
HETATM   16  C   UNL     1      43.817 -18.424   2.984  1.00  0.00     0.116 A 
HETATM   17  F   UNL     1      44.259 -19.525   2.362  1.00  0.00    -0.206 F 
HETATM   18  C   UNL     1      42.969 -17.553   2.313  1.00  0.00     0.043 A 
HETATM   19  C   UNL     1      42.509 -16.403   2.961  1.00  0.00     0.017 A 
ENDBRANCH  10  13
ENDBRANCH   6   7
ENDBRANCH   5   6
ENDBRANCH   2   5
BRANCH   1  20
HETATM   20  N   UNL     1      41.200  -9.627   9.207  1.00  0.00    -0.263 N 
HETATM   21  C   UNL     1      42.367  -9.119   9.743  1.00  0.00     0.270 C 
HETATM   22  O   UNL     1      43.446  -9.168   9.157  1.00  0.00    -0.266 OA
HETATM   23  H   UNL     1      40.269  -9.463   9.581  1.00  0.00     0.190 HD
BRANCH  21  24
HETATM   24  C   UNL     1      42.273  -8.476  11.090  1.00  0.00     0.036 A 
HETATM   25  C   UNL     1      41.112  -7.740  11.386  1.00  0.00     0.056 A 
HETATM   26  C   UNL     1      40.953  -7.083  12.616  1.00  0.00     0.102 A 
HETATM   27  C   UNL     1      41.970  -7.196  13.580  1.00  0.00     0.101 A 
HETATM   28  C   UNL     1      43.135  -7.910  13.273  1.00  0.00     0.040 A 
HETATM   29  C   UNL     1      43.294  -8.545  12.040  1.00  0.00     0.020 A 
BRANCH  26  30
HETATM   30  O   UNL     1      39.856  -6.322  12.921  1.00  0.00    -0.353 OA
HETATM   31  C   UNL     1      38.608  -6.983  13.089  1.00  0.00     0.210 C 
ENDBRANCH  26  30
BRANCH  27  32
HETATM   32  O   UNL     1      42.010  -6.638  14.832  1.00  0.00    -0.353 OA
HETATM   33  C   UNL     1      41.602  -7.446  15.928  1.00  0.00     0.210 C 
ENDBRANCH  27  32
ENDBRANCH  21  24
ENDBRANCH   1  20
TORSDOF 8
ENDMDL
