MODEL 1
REMARK VINA RESULT:      -7.7      0.000      0.000
REMARK  6 active torsions:
REMARK  status: ('A' for Active; 'I' for Inactive)
REMARK    1  A    between atoms: C_2  and  N_3 
REMARK    2  A    between atoms: C_2  and  C_18 
REMARK    3  A    between atoms: N_3  and  C_6 
REMARK    4  A    between atoms: C_6  and  C_7 
REMARK    5  A    between atoms: C_10  and  N_11 
REMARK       I    between atoms: N_11  and  C_12 
REMARK    6  A    between atoms: C_12  and  O_13 
ROOT
HETATM    1  N   UNL     1      42.530 -14.168   4.315  1.00  0.00    -0.061 N 
HETATM    2  H   UNL     1      43.062 -13.302   4.458  1.00  0.00     0.278 HD
HETATM    3  H   UNL     1      42.925 -14.632   3.484  1.00  0.00     0.278 HD
ENDROOT
BRANCH   1   4
HETATM    4  C   UNL     1      42.719 -15.129   5.465  1.00  0.00     0.241 C 
HETATM    5  C   UNL     1      43.826 -14.561   6.349  1.00  0.00     0.047 C 
BRANCH   4   6
HETATM    6  C   UNL     1      43.086 -16.499   4.956  1.00  0.00     0.106 A 
HETATM    7  S   UNL     1      43.684 -17.707   6.008  1.00  0.00    -0.070 SA
HETATM    8  C   UNL     1      43.739 -18.820   4.694  1.00  0.00     0.035 A 
HETATM    9  C   UNL     1      43.291 -18.180   3.535  1.00  0.00     0.075 A 
HETATM   10  C   UNL     1      44.145 -20.163   4.690  1.00  0.00     0.021 A 
HETATM   11  N   UNL     1      42.913 -16.852   3.699  1.00  0.00    -0.243 NA
HETATM   12  C   UNL     1      43.246 -18.909   2.330  1.00  0.00     0.033 A 
HETATM   13  C   UNL     1      43.647 -20.249   2.317  1.00  0.00     0.002 A 
HETATM   14  C   UNL     1      44.090 -20.865   3.483  1.00  0.00     0.002 A 
ENDBRANCH   4   6
ENDBRANCH   1   4
BRANCH   1  15
HETATM   15  C   UNL     1      41.114 -13.827   3.994  1.00  0.00     0.271 C 
BRANCH  15  16
HETATM   16  C   UNL     1      40.849 -13.944   2.519  1.00  0.00    -0.033 A 
HETATM   17  C   UNL     1      40.271 -15.104   1.984  1.00  0.00     0.011 A 
HETATM   18  C   UNL     1      40.049 -15.224   0.605  1.00  0.00     0.030 A 
HETATM   19  C   UNL     1      40.386 -14.187  -0.265  1.00  0.00     0.036 A 
HETATM   20  C   UNL     1      40.936 -13.019   0.276  1.00  0.00     0.030 A 
HETATM   21  C   UNL     1      41.173 -12.898   1.650  1.00  0.00     0.011 A 
BRANCH  19  22
HETATM   22  N   UNL     1      40.200 -14.210  -1.656  1.00  0.00    -0.303 N 
HETATM   23  C   UNL     1      39.158 -13.820  -2.455  1.00  0.00     0.364 C 
HETATM   24  O   UNL     1      39.254 -13.912  -3.675  1.00  0.00    -0.238 OA
HETATM   25  H   UNL     1      40.948 -14.597  -2.220  1.00  0.00     0.171 HD
BRANCH  23  26
HETATM   26  O   UNL     1      38.051 -13.385  -1.807  1.00  0.00    -0.309 OA
HETATM   27  C   UNL     1      37.892 -11.964  -1.817  1.00  0.00     0.215 C 
ENDBRANCH  23  26
ENDBRANCH  19  22
ENDBRANCH  15  16
ENDBRANCH   1  15
TORSDOF 6
ENDMDL
MODEL 2
REMARK VINA RESULT:      -7.5      4.923      7.083
REMARK  6 active torsions:
REMARK  status: ('A' for Active; 'I' for Inactive)
REMARK    1  A    between atoms: C_2  and  N_3 
REMARK    2  A    between atoms: C_2  and  C_18 
REMARK    3  A    between atoms: N_3  and  C_6 
REMARK    4  A    between atoms: C_6  and  C_7 
REMARK    5  A    between atoms: C_10  and  N_11 
REMARK       I    between atoms: N_11  and  C_12 
REMARK    6  A    between atoms: C_12  and  O_13 
ROOT
HETATM    1  N   UNL     1      41.457 -14.527   4.076  1.00  0.00    -0.061 N 
HETATM    2  H   UNL     1      41.013 -13.824   3.474  1.00  0.00     0.278 HD
HETATM    3  H   UNL     1      40.918 -15.399   3.970  1.00  0.00     0.278 HD
ENDROOT
BRANCH   1   4
HETATM    4  C   UNL     1      42.862 -14.840   3.617  1.00  0.00     0.241 C 
HETATM    5  C   UNL     1      43.023 -14.243   2.221  1.00  0.00     0.047 C 
BRANCH   4   6
HETATM    6  C   UNL     1      43.092 -16.329   3.595  1.00  0.00     0.106 A 
HETATM    7  S   UNL     1      42.964 -17.226   2.145  1.00  0.00    -0.070 SA
HETATM    8  C   UNL     1      43.423 -18.655   2.992  1.00  0.00     0.035 A 
HETATM    9  C   UNL     1      43.644 -18.337   4.336  1.00  0.00     0.075 A 
HETATM   10  C   UNL     1      43.580 -19.960   2.503  1.00  0.00     0.021 A 
HETATM   11  N   UNL     1      43.458 -17.000   4.668  1.00  0.00    -0.243 NA
HETATM   12  C   UNL     1      44.036 -19.362   5.220  1.00  0.00     0.033 A 
HETATM   13  C   UNL     1      44.198 -20.666   4.740  1.00  0.00     0.002 A 
HETATM   14  C   UNL     1      43.972 -20.959   3.399  1.00  0.00     0.002 A 
ENDBRANCH   4   6
ENDBRANCH   1   4
BRANCH   1  15
HETATM   15  C   UNL     1      41.330 -14.105   5.501  1.00  0.00     0.271 C 
BRANCH  15  16
HETATM   16  C   UNL     1      42.393 -13.108   5.867  1.00  0.00    -0.033 A 
HETATM   17  C   UNL     1      42.323 -11.784   5.410  1.00  0.00     0.011 A 
HETATM   18  C   UNL     1      43.329 -10.861   5.729  1.00  0.00     0.030 A 
HETATM   19  C   UNL     1      44.416 -11.235   6.519  1.00  0.00     0.036 A 
HETATM   20  C   UNL     1      44.468 -12.549   6.998  1.00  0.00     0.030 A 
HETATM   21  C   UNL     1      43.474 -13.479   6.672  1.00  0.00     0.011 A 
BRANCH  19  22
HETATM   22  N   UNL     1      45.468 -10.385   6.895  1.00  0.00    -0.303 N 
HETATM   23  C   UNL     1      45.681  -9.616   8.009  1.00  0.00     0.364 C 
HETATM   24  O   UNL     1      46.722  -8.974   8.120  1.00  0.00    -0.238 OA
HETATM   25  H   UNL     1      46.234 -10.274   6.241  1.00  0.00     0.171 HD
BRANCH  23  26
HETATM   26  O   UNL     1      44.672  -9.597   8.912  1.00  0.00    -0.309 OA
HETATM   27  C   UNL     1      45.074  -9.934  10.242  1.00  0.00     0.215 C 
ENDBRANCH  23  26
ENDBRANCH  19  22
ENDBRANCH  15  16
ENDBRANCH   1  15
TORSDOF 6
ENDMDL
MODEL 3
REMARK VINA RESULT:      -7.4      3.871      7.330
REMARK  6 active torsions:
REMARK  status: ('A' for Active; 'I' for Inactive)
REMARK    1  A    between atoms: C_2  and  N_3 
REMARK    2  A    between atoms: C_2  and  C_18 
REMARK    3  A    between atoms: N_3  and  C_6 
REMARK    4  A    between atoms: C_6  and  C_7 
REMARK    5  A    between atoms: C_10  and  N_11 
REMARK       I    between atoms: N_11  and  C_12 
REMARK    6  A    between atoms: C_12  and  O_13 
ROOT
HETATM    1  N   UNL     1      42.560 -12.052   2.660  1.00  0.00    -0.061 N 
HETATM    2  H   UNL     1      42.965 -12.479   1.819  1.00  0.00     0.278 HD
HETATM    3  H   UNL     1      43.131 -11.223   2.883  1.00  0.00     0.278 HD
ENDROOT
BRANCH   1   4
HETATM    4  C   UNL     1      41.161 -11.543   2.402  1.00  0.00     0.241 C 
HETATM    5  C   UNL     1      40.281 -12.048   3.543  1.00  0.00     0.047 C 
BRANCH   4   6
HETATM    6  C   UNL     1      40.654 -12.038   1.072  1.00  0.00     0.106 A 
HETATM    7  S   UNL     1      40.631 -11.024  -0.304  1.00  0.00    -0.070 SA
HETATM    8  C   UNL     1      40.035 -12.332  -1.255  1.00  0.00     0.035 A 
HETATM    9  C   UNL     1      39.896 -13.461  -0.441  1.00  0.00     0.075 A 
HETATM   10  C   UNL     1      39.718 -12.358  -2.621  1.00  0.00     0.021 A 
HETATM   11  N   UNL     1      40.260 -13.282   0.888  1.00  0.00    -0.243 NA
HETATM   12  C   UNL     1      39.424 -14.657  -1.016  1.00  0.00     0.033 A 
HETATM   13  C   UNL     1      39.108 -14.694  -2.378  1.00  0.00     0.002 A 
HETATM   14  C   UNL     1      39.254 -13.558  -3.168  1.00  0.00     0.002 A 
ENDBRANCH   4   6
ENDBRANCH   1   4
BRANCH   1  15
HETATM   15  C   UNL     1      42.694 -12.998   3.805  1.00  0.00     0.271 C 
BRANCH  15  16
HETATM   16  C   UNL     1      42.767 -14.421   3.327  1.00  0.00    -0.033 A 
HETATM   17  C   UNL     1      43.333 -14.732   2.083  1.00  0.00     0.011 A 
HETATM   18  C   UNL     1      43.376 -16.055   1.625  1.00  0.00     0.030 A 
HETATM   19  C   UNL     1      42.868 -17.096   2.403  1.00  0.00     0.036 A 
HETATM   20  C   UNL     1      42.330 -16.786   3.657  1.00  0.00     0.030 A 
HETATM   21  C   UNL     1      42.272 -15.465   4.114  1.00  0.00     0.011 A 
BRANCH  19  22
HETATM   22  N   UNL     1      42.869 -18.451   2.035  1.00  0.00    -0.303 N 
HETATM   23  C   UNL     1      43.527 -19.543   2.535  1.00  0.00     0.364 C 
HETATM   24  O   UNL     1      43.327 -20.653   2.050  1.00  0.00    -0.238 OA
HETATM   25  H   UNL     1      42.300 -18.718   1.241  1.00  0.00     0.171 HD
BRANCH  23  26
HETATM   26  O   UNL     1      44.406 -19.294   3.536  1.00  0.00    -0.309 OA
HETATM   27  C   UNL     1      44.185 -20.075   4.713  1.00  0.00     0.215 C 
ENDBRANCH  23  26
ENDBRANCH  19  22
ENDBRANCH  15  16
ENDBRANCH   1  15
TORSDOF 6
ENDMDL
MODEL 4
REMARK VINA RESULT:      -7.1      4.098      6.272
REMARK  6 active torsions:
REMARK  status: ('A' for Active; 'I' for Inactive)
REMARK    1  A    between atoms: C_2  and  N_3 
REMARK    2  A    between atoms: C_2  and  C_18 
REMARK    3  A    between atoms: N_3  and  C_6 
REMARK    4  A    between atoms: C_6  and  C_7 
REMARK    5  A    between atoms: C_10  and  N_11 
REMARK       I    between atoms: N_11  and  C_12 
REMARK    6  A    between atoms: C_12  and  O_13 
ROOT
HETATM    1  N   UNL     1      39.325 -14.263   2.593  1.00  0.00    -0.061 N 
HETATM    2  H   UNL     1      38.517 -14.778   2.224  1.00  0.00     0.278 HD
HETATM    3  H   UNL     1      39.560 -14.684   3.504  1.00  0.00     0.278 HD
ENDROOT
BRANCH   1   4
HETATM    4  C   UNL     1      40.543 -14.445   1.718  1.00  0.00     0.241 C 
HETATM    5  C   UNL     1      40.053 -14.950   0.363  1.00  0.00     0.047 C 
BRANCH   4   6
HETATM    6  C   UNL     1      41.503 -15.424   2.342  1.00  0.00     0.106 A 
HETATM    7  S   UNL     1      42.291 -15.076   3.819  1.00  0.00    -0.070 SA
HETATM    8  C   UNL     1      43.035 -16.631   3.784  1.00  0.00     0.035 A 
HETATM    9  C   UNL     1      42.621 -17.309   2.634  1.00  0.00     0.075 A 
HETATM   10  C   UNL     1      43.917 -17.208   4.709  1.00  0.00     0.021 A 
HETATM   11  N   UNL     1      41.737 -16.610   1.819  1.00  0.00    -0.243 NA
HETATM   12  C   UNL     1      43.105 -18.611   2.402  1.00  0.00     0.033 A 
HETATM   13  C   UNL     1      43.984 -19.196   3.321  1.00  0.00     0.002 A 
HETATM   14  C   UNL     1      44.382 -18.502   4.458  1.00  0.00     0.002 A 
ENDBRANCH   4   6
ENDBRANCH   1   4
BRANCH   1  15
HETATM   15  C   UNL     1      38.930 -12.849   2.852  1.00  0.00     0.271 C 
BRANCH  15  16
HETATM   16  C   UNL     1      39.761 -12.246   3.950  1.00  0.00    -0.033 A 
HETATM   17  C   UNL     1      40.711 -11.255   3.668  1.00  0.00     0.011 A 
HETATM   18  C   UNL     1      41.506 -10.712   4.687  1.00  0.00     0.030 A 
HETATM   19  C   UNL     1      41.361 -11.137   6.007  1.00  0.00     0.036 A 
HETATM   20  C   UNL     1      40.392 -12.107   6.290  1.00  0.00     0.030 A 
HETATM   21  C   UNL     1      39.604 -12.662   5.275  1.00  0.00     0.011 A 
BRANCH  19  22
HETATM   22  N   UNL     1      42.105 -10.654   7.096  1.00  0.00    -0.303 N 
HETATM   23  C   UNL     1      43.386 -10.894   7.519  1.00  0.00     0.364 C 
HETATM   24  O   UNL     1      43.825 -10.307   8.503  1.00  0.00    -0.238 OA
HETATM   25  H   UNL     1      41.642 -10.012   7.728  1.00  0.00     0.171 HD
BRANCH  23  26
HETATM   26  O   UNL     1      44.074 -11.823   6.813  1.00  0.00    -0.309 OA
HETATM   27  C   UNL     1      45.284 -11.332   6.230  1.00  0.00     0.215 C 
ENDBRANCH  23  26
ENDBRANCH  19  22
ENDBRANCH  15  16
ENDBRANCH   1  15
TORSDOF 6
ENDMDL
MODEL 5
REMARK VINA RESULT:      -7.1      1.903      2.472
REMARK  6 active torsions:
REMARK  status: ('A' for Active; 'I' for Inactive)
REMARK    1  A    between atoms: C_2  and  N_3 
REMARK    2  A    between atoms: C_2  and  C_18 
REMARK    3  A    between atoms: N_3  and  C_6 
REMARK    4  A    between atoms: C_6  and  C_7 
REMARK    5  A    between atoms: C_10  and  N_11 
REMARK       I    between atoms: N_11  and  C_12 
REMARK    6  A    between atoms: C_12  and  O_13 
ROOT
HETATM    1  N   UNL     1      41.659 -13.476   6.499  1.00  0.00    -0.061 N 
HETATM    2  H   UNL     1      41.078 -14.129   5.962  1.00  0.00     0.278 HD
HETATM    3  H   UNL     1      41.233 -13.389   7.433  1.00  0.00     0.278 HD
ENDROOT
BRANCH   1   4
HETATM    4  C   UNL     1      43.049 -14.025   6.719  1.00  0.00     0.241 C 
HETATM    5  C   UNL     1      44.032 -12.893   6.432  1.00  0.00     0.047 C 
BRANCH   4   6
HETATM    6  C   UNL     1      43.304 -15.201   5.812  1.00  0.00     0.106 A 
HETATM    7  S   UNL     1      44.317 -16.491   6.293  1.00  0.00    -0.070 SA
HETATM    8  C   UNL     1      43.977 -17.306   4.813  1.00  0.00     0.035 A 
HETATM    9  C   UNL     1      43.104 -16.524   4.052  1.00  0.00     0.075 A 
HETATM   10  C   UNL     1      44.446 -18.549   4.361  1.00  0.00     0.021 A 
HETATM   11  N   UNL     1      42.719 -15.323   4.638  1.00  0.00    -0.243 NA
HETATM   12  C   UNL     1      42.684 -17.002   2.795  1.00  0.00     0.033 A 
HETATM   13  C   UNL     1      43.144 -18.242   2.337  1.00  0.00     0.002 A 
HETATM   14  C   UNL     1      44.013 -19.003   3.112  1.00  0.00     0.002 A 
ENDBRANCH   4   6
ENDBRANCH   1   4
BRANCH   1  15
HETATM   15  C   UNL     1      41.599 -12.128   5.863  1.00  0.00     0.271 C 
BRANCH  15  16
HETATM   16  C   UNL     1      40.794 -12.162   4.594  1.00  0.00    -0.033 A 
HETATM   17  C   UNL     1      39.993 -13.270   4.282  1.00  0.00     0.011 A 
HETATM   18  C   UNL     1      39.264 -13.315   3.087  1.00  0.00     0.030 A 
HETATM   19  C   UNL     1      39.308 -12.251   2.185  1.00  0.00     0.036 A 
HETATM   20  C   UNL     1      40.085 -11.134   2.513  1.00  0.00     0.030 A 
HETATM   21  C   UNL     1      40.826 -11.090   3.698  1.00  0.00     0.011 A 
BRANCH  19  22
HETATM   22  N   UNL     1      38.612 -12.200   0.966  1.00  0.00    -0.303 N 
HETATM   23  C   UNL     1      38.976 -12.504  -0.319  1.00  0.00     0.364 C 
HETATM   24  O   UNL     1      38.157 -12.407  -1.227  1.00  0.00    -0.238 OA
HETATM   25  H   UNL     1      37.657 -11.862   0.989  1.00  0.00     0.171 HD
BRANCH  23  26
HETATM   26  O   UNL     1      40.270 -12.865  -0.494  1.00  0.00    -0.309 OA
HETATM   27  C   UNL     1      40.999 -12.010  -1.378  1.00  0.00     0.215 C 
ENDBRANCH  23  26
ENDBRANCH  19  22
ENDBRANCH  15  16
ENDBRANCH   1  15
TORSDOF 6
ENDMDL
MODEL 6
REMARK VINA RESULT:      -7.0      6.850      9.633
REMARK  6 active torsions:
REMARK  status: ('A' for Active; 'I' for Inactive)
REMARK    1  A    between atoms: C_2  and  N_3 
REMARK    2  A    between atoms: C_2  and  C_18 
REMARK    3  A    between atoms: N_3  and  C_6 
REMARK    4  A    between atoms: C_6  and  C_7 
REMARK    5  A    between atoms: C_10  and  N_11 
REMARK       I    between atoms: N_11  and  C_12 
REMARK    6  A    between atoms: C_12  and  O_13 
ROOT
HETATM    1  N   UNL     1      43.223 -12.139   6.888  1.00  0.00    -0.061 N 
HETATM    2  H   UNL     1      42.594 -12.118   7.699  1.00  0.00     0.278 HD
HETATM    3  H   UNL     1      43.646 -13.078   6.857  1.00  0.00     0.278 HD
ENDROOT
BRANCH   1   4
HETATM    4  C   UNL     1      42.462 -11.976   5.593  1.00  0.00     0.241 C 
HETATM    5  C   UNL     1      40.995 -11.765   5.957  1.00  0.00     0.047 C 
BRANCH   4   6
HETATM    6  C   UNL     1      42.631 -13.194   4.723  1.00  0.00     0.106 A 
HETATM    7  S   UNL     1      42.776 -13.060   3.025  1.00  0.00    -0.070 SA
HETATM    8  C   UNL     1      42.987 -14.767   2.911  1.00  0.00     0.035 A 
HETATM    9  C   UNL     1      42.931 -15.320   4.193  1.00  0.00     0.075 A 
HETATM   10  C   UNL     1      43.190 -15.557   1.770  1.00  0.00     0.021 A 
HETATM   11  N   UNL     1      42.734 -14.408   5.225  1.00  0.00    -0.243 NA
HETATM   12  C   UNL     1      43.085 -16.712   4.339  1.00  0.00     0.033 A 
HETATM   13  C   UNL     1      43.292 -17.509   3.207  1.00  0.00     0.002 A 
HETATM   14  C   UNL     1      43.343 -16.936   1.941  1.00  0.00     0.002 A 
ENDBRANCH   4   6
ENDBRANCH   1   4
BRANCH   1  15
HETATM   15  C   UNL     1      44.334 -11.166   7.102  1.00  0.00     0.271 C 
BRANCH  15  16
HETATM   16  C   UNL     1      44.147 -10.403   8.384  1.00  0.00    -0.033 A 
HETATM   17  C   UNL     1      45.157 -10.377   9.356  1.00  0.00     0.011 A 
HETATM   18  C   UNL     1      44.973  -9.689  10.563  1.00  0.00     0.030 A 
HETATM   19  C   UNL     1      43.785  -9.004  10.820  1.00  0.00     0.036 A 
HETATM   20  C   UNL     1      42.790  -9.008   9.834  1.00  0.00     0.030 A 
HETATM   21  C   UNL     1      42.963  -9.704   8.633  1.00  0.00     0.011 A 
BRANCH  19  22
HETATM   22  N   UNL     1      43.507  -8.284  11.993  1.00  0.00    -0.303 N 
HETATM   23  C   UNL     1      42.839  -8.614  13.142  1.00  0.00     0.364 C 
HETATM   24  O   UNL     1      42.761  -7.802  14.059  1.00  0.00    -0.238 OA
HETATM   25  H   UNL     1      43.830  -7.325  12.038  1.00  0.00     0.171 HD
BRANCH  23  26
HETATM   26  O   UNL     1      42.265  -9.841  13.157  1.00  0.00    -0.309 OA
HETATM   27  C   UNL     1      40.836  -9.816  13.088  1.00  0.00     0.215 C 
ENDBRANCH  23  26
ENDBRANCH  19  22
ENDBRANCH  15  16
ENDBRANCH   1  15
TORSDOF 6
ENDMDL
MODEL 7
REMARK VINA RESULT:      -7.0      5.039      9.168
REMARK  6 active torsions:
REMARK  status: ('A' for Active; 'I' for Inactive)
REMARK    1  A    between atoms: C_2  and  N_3 
REMARK    2  A    between atoms: C_2  and  C_18 
REMARK    3  A    between atoms: N_3  and  C_6 
REMARK    4  A    between atoms: C_6  and  C_7 
REMARK    5  A    between atoms: C_10  and  N_11 
REMARK       I    between atoms: N_11  and  C_12 
REMARK    6  A    between atoms: C_12  and  O_13 
ROOT
HETATM    1  N   UNL     1      41.190 -13.076  -0.104  1.00  0.00    -0.061 N 
HETATM    2  H   UNL     1      41.275 -13.121  -1.126  1.00  0.00     0.278 HD
HETATM    3  H   UNL     1      42.137 -13.200   0.283  1.00  0.00     0.278 HD
ENDROOT
BRANCH   1   4
HETATM    4  C   UNL     1      40.722 -11.713   0.351  1.00  0.00     0.241 C 
HETATM    5  C   UNL     1      39.199 -11.766   0.436  1.00  0.00     0.047 C 
BRANCH   4   6
HETATM    6  C   UNL     1      41.171 -10.649  -0.616  1.00  0.00     0.106 A 
HETATM    7  S   UNL     1      40.506 -10.539  -2.187  1.00  0.00    -0.070 SA
HETATM    8  C   UNL     1      41.461  -9.137  -2.490  1.00  0.00     0.035 A 
HETATM    9  C   UNL     1      42.226  -8.852  -1.355  1.00  0.00     0.075 A 
HETATM   10  C   UNL     1      41.526  -8.345  -3.647  1.00  0.00     0.021 A 
HETATM   11  N   UNL     1      42.046  -9.721  -0.285  1.00  0.00    -0.243 NA
HETATM   12  C   UNL     1      43.085  -7.736  -1.378  1.00  0.00     0.033 A 
HETATM   13  C   UNL     1      43.154  -6.939  -2.526  1.00  0.00     0.002 A 
HETATM   14  C   UNL     1      42.384  -7.242  -3.644  1.00  0.00     0.002 A 
ENDBRANCH   4   6
ENDBRANCH   1   4
BRANCH   1  15
HETATM   15  C   UNL     1      40.368 -14.225   0.372  1.00  0.00     0.271 C 
BRANCH  15  16
HETATM   16  C   UNL     1      41.143 -15.087   1.330  1.00  0.00    -0.033 A 
HETATM   17  C   UNL     1      42.518 -15.297   1.153  1.00  0.00     0.011 A 
HETATM   18  C   UNL     1      43.236 -16.122   2.029  1.00  0.00     0.030 A 
HETATM   19  C   UNL     1      42.601 -16.744   3.105  1.00  0.00     0.036 A 
HETATM   20  C   UNL     1      41.234 -16.509   3.295  1.00  0.00     0.030 A 
HETATM   21  C   UNL     1      40.509 -15.697   2.416  1.00  0.00     0.011 A 
BRANCH  19  22
HETATM   22  N   UNL     1      43.232 -17.583   4.037  1.00  0.00    -0.303 N 
HETATM   23  C   UNL     1      44.024 -18.691   3.894  1.00  0.00     0.364 C 
HETATM   24  O   UNL     1      44.494 -19.240   4.886  1.00  0.00    -0.238 OA
HETATM   25  H   UNL     1      43.089 -17.379   5.019  1.00  0.00     0.171 HD
BRANCH  23  26
HETATM   26  O   UNL     1      44.200 -19.129   2.624  1.00  0.00    -0.309 OA
HETATM   27  C   UNL     1      43.450 -20.303   2.304  1.00  0.00     0.215 C 
ENDBRANCH  23  26
ENDBRANCH  19  22
ENDBRANCH  15  16
ENDBRANCH   1  15
TORSDOF 6
ENDMDL
MODEL 8
REMARK VINA RESULT:      -6.9     14.355     16.178
REMARK  6 active torsions:
REMARK  status: ('A' for Active; 'I' for Inactive)
REMARK    1  A    between atoms: C_2  and  N_3 
REMARK    2  A    between atoms: C_2  and  C_18 
REMARK    3  A    between atoms: N_3  and  C_6 
REMARK    4  A    between atoms: C_6  and  C_7 
REMARK    5  A    between atoms: C_10  and  N_11 
REMARK       I    between atoms: N_11  and  C_12 
REMARK    6  A    between atoms: C_12  and  O_13 
ROOT
HETATM    1  N   UNL     1      48.135 -28.387   1.431  1.00  0.00    -0.061 N 
HETATM    2  H   UNL     1      48.553 -27.572   1.894  1.00  0.00     0.278 HD
HETATM    3  H   UNL     1      48.431 -28.358   0.444  1.00  0.00     0.278 HD
ENDROOT
BRANCH   1   4
HETATM    4  C   UNL     1      48.674 -29.680   1.996  1.00  0.00     0.241 C 
HETATM    5  C   UNL     1      49.274 -29.359   3.363  1.00  0.00     0.047 C 
BRANCH   4   6
HETATM    6  C   UNL     1      49.714 -30.267   1.077  1.00  0.00     0.106 A 
HETATM    7  S   UNL     1      50.706 -31.568   1.573  1.00  0.00    -0.070 SA
HETATM    8  C   UNL     1      51.438 -31.601   0.013  1.00  0.00     0.035 A 
HETATM    9  C   UNL     1      50.863 -30.605  -0.782  1.00  0.00     0.075 A 
HETATM   10  C   UNL     1      52.444 -32.450  -0.473  1.00  0.00     0.021 A 
HETATM   11  N   UNL     1      49.872 -29.851  -0.164  1.00  0.00    -0.243 NA
HETATM   12  C   UNL     1      51.310 -30.453  -2.109  1.00  0.00     0.033 A 
HETATM   13  C   UNL     1      52.311 -31.297  -2.603  1.00  0.00     0.002 A 
HETATM   14  C   UNL     1      52.869 -32.281  -1.793  1.00  0.00     0.002 A 
ENDBRANCH   4   6
ENDBRANCH   1   4
BRANCH   1  15
HETATM   15  C   UNL     1      46.650 -28.253   1.447  1.00  0.00     0.271 C 
BRANCH  15  16
HETATM   16  C   UNL     1      46.071 -28.470   0.077  1.00  0.00    -0.033 A 
HETATM   17  C   UNL     1      44.789 -29.015  -0.082  1.00  0.00     0.011 A 
HETATM   18  C   UNL     1      44.260 -29.242  -1.360  1.00  0.00     0.030 A 
HETATM   19  C   UNL     1      44.992 -28.920  -2.503  1.00  0.00     0.036 A 
HETATM   20  C   UNL     1      46.260 -28.349  -2.340  1.00  0.00     0.030 A 
HETATM   21  C   UNL     1      46.799 -28.132  -1.068  1.00  0.00     0.011 A 
BRANCH  19  22
HETATM   22  N   UNL     1      44.549 -29.106  -3.823  1.00  0.00    -0.303 N 
HETATM   23  C   UNL     1      44.537 -30.200  -4.647  1.00  0.00     0.364 C 
HETATM   24  O   UNL     1      44.052 -30.113  -5.771  1.00  0.00    -0.238 OA
HETATM   25  H   UNL     1      44.172 -28.299  -4.305  1.00  0.00     0.171 HD
BRANCH  23  26
HETATM   26  O   UNL     1      45.118 -31.318  -4.150  1.00  0.00    -0.309 OA
HETATM   27  C   UNL     1      44.193 -32.359  -3.825  1.00  0.00     0.215 C 
ENDBRANCH  23  26
ENDBRANCH  19  22
ENDBRANCH  15  16
ENDBRANCH   1  15
TORSDOF 6
ENDMDL
MODEL 9
REMARK VINA RESULT:      -6.9      3.854      6.679
REMARK  6 active torsions:
REMARK  status: ('A' for Active; 'I' for Inactive)
REMARK    1  A    between atoms: C_2  and  N_3 
REMARK    2  A    between atoms: C_2  and  C_18 
REMARK    3  A    between atoms: N_3  and  C_6 
REMARK    4  A    between atoms: C_6  and  C_7 
REMARK    5  A    between atoms: C_10  and  N_11 
REMARK       I    between atoms: N_11  and  C_12 
REMARK    6  A    between atoms: C_12  and  O_13 
ROOT
HETATM    1  N   UNL     1      39.165 -12.967   2.094  1.00  0.00    -0.061 N 
HETATM    2  H   UNL     1      39.051 -13.650   2.850  1.00  0.00     0.278 HD
HETATM    3  H   UNL     1      38.223 -12.756   1.732  1.00  0.00     0.278 HD
ENDROOT
BRANCH   1   4
HETATM    4  C   UNL     1      39.721 -11.659   2.609  1.00  0.00     0.241 C 
HETATM    5  C   UNL     1      40.190 -10.860   1.395  1.00  0.00     0.047 C 
BRANCH   4   6
HETATM    6  C   UNL     1      40.861 -11.908   3.562  1.00  0.00     0.106 A 
HETATM    7  S   UNL     1      42.181 -10.826   3.670  1.00  0.00    -0.070 SA
HETATM    8  C   UNL     1      42.860 -11.785   4.931  1.00  0.00     0.035 A 
HETATM    9  C   UNL     1      42.019 -12.873   5.179  1.00  0.00     0.075 A 
HETATM   10  C   UNL     1      44.048 -11.586   5.649  1.00  0.00     0.021 A 
HETATM   11  N   UNL     1      40.873 -12.930   4.394  1.00  0.00    -0.243 NA
HETATM   12  C   UNL     1      42.379 -13.794   6.183  1.00  0.00     0.033 A 
HETATM   13  C   UNL     1      43.561 -13.602   6.907  1.00  0.00     0.002 A 
HETATM   14  C   UNL     1      44.383 -12.512   6.641  1.00  0.00     0.002 A 
ENDBRANCH   4   6
ENDBRANCH   1   4
BRANCH   1  15
HETATM   15  C   UNL     1      39.933 -13.591   0.978  1.00  0.00     0.271 C 
BRANCH  15  16
HETATM   16  C   UNL     1      40.840 -14.677   1.485  1.00  0.00    -0.033 A 
HETATM   17  C   UNL     1      40.318 -15.798   2.145  1.00  0.00     0.011 A 
HETATM   18  C   UNL     1      41.166 -16.797   2.642  1.00  0.00     0.030 A 
HETATM   19  C   UNL     1      42.548 -16.705   2.481  1.00  0.00     0.036 A 
HETATM   20  C   UNL     1      43.064 -15.599   1.796  1.00  0.00     0.030 A 
HETATM   21  C   UNL     1      42.225 -14.591   1.309  1.00  0.00     0.011 A 
BRANCH  19  22
HETATM   22  N   UNL     1      43.478 -17.653   2.939  1.00  0.00    -0.303 N 
HETATM   23  C   UNL     1      44.015 -17.896   4.175  1.00  0.00     0.364 C 
HETATM   24  O   UNL     1      44.800 -18.828   4.328  1.00  0.00    -0.238 OA
HETATM   25  H   UNL     1      43.866 -18.292   2.256  1.00  0.00     0.171 HD
BRANCH  23  26
HETATM   26  O   UNL     1      43.654 -17.033   5.154  1.00  0.00    -0.309 OA
HETATM   27  C   UNL     1      43.259 -17.668   6.373  1.00  0.00     0.215 C 
ENDBRANCH  23  26
ENDBRANCH  19  22
ENDBRANCH  15  16
ENDBRANCH   1  15
TORSDOF 6
ENDMDL
MODEL 10
REMARK VINA RESULT:      -6.9     14.897     17.527
REMARK  6 active torsions:
REMARK  status: ('A' for Active; 'I' for Inactive)
REMARK    1  A    between atoms: C_2  and  N_3 
REMARK    2  A    between atoms: C_2  and  C_18 
REMARK    3  A    between atoms: N_3  and  C_6 
REMARK    4  A    between atoms: C_6  and  C_7 
REMARK    5  A    between atoms: C_10  and  N_11 
REMARK       I    between atoms: N_11  and  C_12 
REMARK    6  A    between atoms: C_12  and  O_13 
ROOT
HETATM    1  N   UNL     1      48.484 -28.785   1.461  1.00  0.00    -0.061 N 
HETATM    2  H   UNL     1      48.957 -28.247   0.726  1.00  0.00     0.278 HD
HETATM    3  H   UNL     1      48.906 -28.507   2.359  1.00  0.00     0.278 HD
ENDROOT
BRANCH   1   4
HETATM    4  C   UNL     1      47.019 -28.425   1.555  1.00  0.00     0.241 C 
HETATM    5  C   UNL     1      46.425 -29.249   2.694  1.00  0.00     0.047 C 
BRANCH   4   6
HETATM    6  C   UNL     1      46.318 -28.720   0.254  1.00  0.00     0.106 A 
HETATM    7  S   UNL     1      45.187 -29.996   0.124  1.00  0.00    -0.070 SA
HETATM    8  C   UNL     1      44.888 -29.561  -1.516  1.00  0.00     0.035 A 
HETATM    9  C   UNL     1      45.683 -28.460  -1.848  1.00  0.00     0.075 A 
HETATM   10  C   UNL     1      44.012 -30.149  -2.440  1.00  0.00     0.021 A 
HETATM   11  N   UNL     1      46.493 -27.982  -0.823  1.00  0.00    -0.243 NA
HETATM   12  C   UNL     1      45.597 -27.928  -3.149  1.00  0.00     0.033 A 
HETATM   13  C   UNL     1      44.724 -28.506  -4.077  1.00  0.00     0.002 A 
HETATM   14  C   UNL     1      43.943 -29.602  -3.725  1.00  0.00     0.002 A 
ENDBRANCH   4   6
ENDBRANCH   1   4
BRANCH   1  15
HETATM   15  C   UNL     1      48.773 -30.236   1.271  1.00  0.00     0.271 C 
BRANCH  15  16
HETATM   16  C   UNL     1      49.759 -30.451   0.158  1.00  0.00    -0.033 A 
HETATM   17  C   UNL     1      49.534 -29.909  -1.115  1.00  0.00     0.011 A 
HETATM   18  C   UNL     1      50.439 -30.133  -2.161  1.00  0.00     0.030 A 
HETATM   19  C   UNL     1      51.593 -30.890  -1.956  1.00  0.00     0.036 A 
HETATM   20  C   UNL     1      51.830 -31.406  -0.676  1.00  0.00     0.030 A 
HETATM   21  C   UNL     1      50.923 -31.197   0.368  1.00  0.00     0.011 A 
BRANCH  19  22
HETATM   22  N   UNL     1      52.560 -31.167  -2.936  1.00  0.00    -0.303 N 
HETATM   23  C   UNL     1      52.666 -32.159  -3.874  1.00  0.00     0.364 C 
HETATM   24  O   UNL     1      53.611 -32.162  -4.658  1.00  0.00    -0.238 OA
HETATM   25  H   UNL     1      53.361 -30.549  -2.987  1.00  0.00     0.171 HD
BRANCH  23  26
HETATM   26  O   UNL     1      51.705 -33.113  -3.833  1.00  0.00    -0.309 OA
HETATM   27  C   UNL     1      50.716 -32.988  -4.858  1.00  0.00     0.215 C 
ENDBRANCH  23  26
ENDBRANCH  19  22
ENDBRANCH  15  16
ENDBRANCH   1  15
TORSDOF 6
ENDMDL
