MODEL 1
REMARK VINA RESULT:      -9.8      0.000      0.000
REMARK  6 active torsions:
REMARK  status: ('A' for Active; 'I' for Inactive)
REMARK    1  A    between atoms: C_2  and  O_3 
REMARK    2  A    between atoms: C_2  and  C_4 
REMARK    3  A    between atoms: C_6  and  N_7 
REMARK       I    between atoms: N_7  and  C_8 
REMARK    4  A    between atoms: C_8  and  C_9 
REMARK    5  A    between atoms: C_12  and  C_13 
REMARK    6  A    between atoms: C_18  and  C_19 
ROOT
HETATM    1  C   UNL     1      42.138 -14.089   2.767  1.00  0.00     0.096 A 
HETATM    2  C   UNL     1      42.790 -15.018   3.557  1.00  0.00     0.138 A 
HETATM    3  N   UNL     1      43.004 -14.398   4.769  1.00  0.00    -0.240 N 
HETATM    4  C   UNL     1      43.607 -15.042   5.924  1.00  0.00     0.221 C 
HETATM    5  C   UNL     1      43.527 -16.574   5.774  1.00  0.00     0.066 C 
HETATM    6  C   UNL     1      43.984 -16.986   4.372  1.00  0.00     0.118 C 
HETATM    7  N   UNL     1      43.165 -16.311   3.362  1.00  0.00    -0.365 N 
HETATM    8  N   UNL     1      42.628 -13.113   4.788  1.00  0.00    -0.181 NA
HETATM    9  C   UNL     1      42.059 -12.939   3.592  1.00  0.00     0.160 A 
HETATM   10  H   UNL     1      42.594 -16.933   2.787  1.00  0.00     0.161 HD
ENDROOT
BRANCH   1  11
HETATM   11  C   UNL     1      41.643 -14.200   1.404  1.00  0.00     0.261 C 
HETATM   12  N   UNL     1      41.087 -13.030   0.921  1.00  0.00    -0.323 N 
HETATM   13  H   UNL     1      40.979 -12.289   1.604  1.00  0.00     0.169 HD
HETATM   14  O   UNL     1      41.715 -15.267   0.805  1.00  0.00    -0.267 OA
BRANCH  12  15
HETATM   15  C   UNL     1      40.606 -12.771  -0.376  1.00  0.00     0.035 A 
HETATM   16  C   UNL     1      39.555 -13.474  -0.972  1.00  0.00     0.039 A 
HETATM   17  C   UNL     1      39.131 -13.181  -2.282  1.00  0.00    -0.028 A 
HETATM   18  C   UNL     1      39.777 -12.157  -2.985  1.00  0.00     0.010 A 
HETATM   19  C   UNL     1      40.829 -11.452  -2.403  1.00  0.00     0.003 A 
HETATM   20  C   UNL     1      41.242 -11.760  -1.104  1.00  0.00     0.029 A 
BRANCH  17  21
HETATM   21  C   UNL     1      37.973 -13.951  -2.879  1.00  0.00     0.147 C 
HETATM   22  C   UNL     1      36.722 -13.084  -2.981  1.00  0.00     0.044 C 
BRANCH  21  23
HETATM   23  O   UNL     1      38.313 -14.431  -4.178  1.00  0.00    -0.391 OA
HETATM   24  H   UNL     1      38.883 -13.760  -4.586  1.00  0.00     0.210 HD
ENDBRANCH  21  23
ENDBRANCH  17  21
ENDBRANCH  12  15
ENDBRANCH   1  11
BRANCH   4  25
HETATM   25  C   UNL     1      42.948 -14.630   7.226  1.00  0.00     0.409 C 
HETATM   26  F   UNL     1      41.604 -14.529   7.117  1.00  0.00    -0.169 F 
HETATM   27  F   UNL     1      43.186 -15.582   8.170  1.00  0.00    -0.169 F 
HETATM   28  F   UNL     1      43.427 -13.476   7.734  1.00  0.00    -0.169 F 
ENDBRANCH   4  25
BRANCH   6  29
HETATM   29  C   UNL     1      43.939 -18.486   4.157  1.00  0.00    -0.035 A 
HETATM   30  C   UNL     1      44.087 -19.390   5.222  1.00  0.00     0.009 A 
HETATM   31  C   UNL     1      44.042 -20.767   5.000  1.00  0.00     0.001 A 
HETATM   32  C   UNL     1      43.849 -21.261   3.712  1.00  0.00     0.000 A 
HETATM   33  C   UNL     1      43.697 -20.379   2.645  1.00  0.00     0.001 A 
HETATM   34  C   UNL     1      43.740 -19.000   2.865  1.00  0.00     0.009 A 
ENDBRANCH   6  29
TORSDOF 6
ENDMDL
MODEL 2
REMARK VINA RESULT:      -9.7      4.487      8.255
REMARK  6 active torsions:
REMARK  status: ('A' for Active; 'I' for Inactive)
REMARK    1  A    between atoms: C_2  and  O_3 
REMARK    2  A    between atoms: C_2  and  C_4 
REMARK    3  A    between atoms: C_6  and  N_7 
REMARK       I    between atoms: N_7  and  C_8 
REMARK    4  A    between atoms: C_8  and  C_9 
REMARK    5  A    between atoms: C_12  and  C_13 
REMARK    6  A    between atoms: C_18  and  C_19 
ROOT
HETATM    1  C   UNL     1      42.490 -12.508   5.014  1.00  0.00     0.096 A 
HETATM    2  C   UNL     1      42.152 -13.644   4.300  1.00  0.00     0.138 A 
HETATM    3  N   UNL     1      41.268 -13.228   3.329  1.00  0.00    -0.240 N 
HETATM    4  C   UNL     1      40.706 -14.095   2.306  1.00  0.00     0.221 C 
HETATM    5  C   UNL     1      41.569 -15.365   2.161  1.00  0.00     0.066 C 
HETATM    6  C   UNL     1      41.877 -15.949   3.543  1.00  0.00     0.118 C 
HETATM    7  N   UNL     1      42.548 -14.943   4.371  1.00  0.00    -0.365 N 
HETATM    8  N   UNL     1      40.936 -11.934   3.423  1.00  0.00    -0.181 NA
HETATM    9  C   UNL     1      41.714 -11.487   4.413  1.00  0.00     0.160 A 
HETATM   10  H   UNL     1      43.505 -15.178   4.638  1.00  0.00     0.161 HD
ENDROOT
BRANCH   1  11
HETATM   11  C   UNL     1      43.404 -12.342   6.134  1.00  0.00     0.261 C 
HETATM   12  N   UNL     1      43.361 -11.082   6.700  1.00  0.00    -0.323 N 
HETATM   13  H   UNL     1      42.803 -10.401   6.196  1.00  0.00     0.169 HD
HETATM   14  O   UNL     1      44.136 -13.263   6.476  1.00  0.00    -0.267 OA
BRANCH  12  15
HETATM   15  C   UNL     1      44.040 -10.622   7.844  1.00  0.00     0.035 A 
HETATM   16  C   UNL     1      43.569 -10.793   9.149  1.00  0.00     0.039 A 
HETATM   17  C   UNL     1      44.283 -10.292  10.254  1.00  0.00    -0.028 A 
HETATM   18  C   UNL     1      45.491  -9.621  10.026  1.00  0.00     0.010 A 
HETATM   19  C   UNL     1      45.967  -9.441   8.729  1.00  0.00     0.003 A 
HETATM   20  C   UNL     1      45.243  -9.938   7.643  1.00  0.00     0.029 A 
BRANCH  17  21
HETATM   21  C   UNL     1      43.749 -10.523  11.651  1.00  0.00     0.147 C 
HETATM   22  C   UNL     1      42.349  -9.943  11.815  1.00  0.00     0.044 C 
BRANCH  21  23
HETATM   23  O   UNL     1      43.711 -11.919  11.943  1.00  0.00    -0.391 OA
HETATM   24  H   UNL     1      44.462 -12.324  11.480  1.00  0.00     0.210 HD
ENDBRANCH  21  23
ENDBRANCH  17  21
ENDBRANCH  12  15
ENDBRANCH   1  11
BRANCH   4  25
HETATM   25  C   UNL     1      40.596 -13.407   0.961  1.00  0.00     0.409 C 
HETATM   26  F   UNL     1      41.634 -12.576   0.717  1.00  0.00    -0.169 F 
HETATM   27  F   UNL     1      40.615 -14.345  -0.026  1.00  0.00    -0.169 F 
HETATM   28  F   UNL     1      39.447 -12.720   0.797  1.00  0.00    -0.169 F 
ENDBRANCH   4  25
BRANCH   6  29
HETATM   29  C   UNL     1      42.719 -17.208   3.474  1.00  0.00    -0.035 A 
HETATM   30  C   UNL     1      43.617 -17.553   4.498  1.00  0.00     0.009 A 
HETATM   31  C   UNL     1      44.382 -18.717   4.412  1.00  0.00     0.001 A 
HETATM   32  C   UNL     1      44.261 -19.552   3.303  1.00  0.00     0.000 A 
HETATM   33  C   UNL     1      43.373 -19.228   2.282  1.00  0.00     0.001 A 
HETATM   34  C   UNL     1      42.604 -18.064   2.367  1.00  0.00     0.009 A 
ENDBRANCH   6  29
TORSDOF 6
ENDMDL
MODEL 3
REMARK VINA RESULT:      -9.5      1.317      1.911
REMARK  6 active torsions:
REMARK  status: ('A' for Active; 'I' for Inactive)
REMARK    1  A    between atoms: C_2  and  O_3 
REMARK    2  A    between atoms: C_2  and  C_4 
REMARK    3  A    between atoms: C_6  and  N_7 
REMARK       I    between atoms: N_7  and  C_8 
REMARK    4  A    between atoms: C_8  and  C_9 
REMARK    5  A    between atoms: C_12  and  C_13 
REMARK    6  A    between atoms: C_18  and  C_19 
ROOT
HETATM    1  C   UNL     1      41.016 -14.358   2.895  1.00  0.00     0.096 A 
HETATM    2  C   UNL     1      41.974 -15.147   3.506  1.00  0.00     0.138 A 
HETATM    3  N   UNL     1      42.387 -14.443   4.616  1.00  0.00    -0.240 N 
HETATM    4  C   UNL     1      43.347 -14.938   5.589  1.00  0.00     0.221 C 
HETATM    5  C   UNL     1      43.461 -16.472   5.484  1.00  0.00     0.066 C 
HETATM    6  C   UNL     1      43.611 -16.885   4.016  1.00  0.00     0.118 C 
HETATM    7  N   UNL     1      42.476 -16.382   3.238  1.00  0.00    -0.365 N 
HETATM    8  N   UNL     1      41.841 -13.224   4.714  1.00  0.00    -0.181 NA
HETATM    9  C   UNL     1      40.974 -13.192   3.698  1.00  0.00     0.160 A 
HETATM   10  H   UNL     1      41.878 -17.106   2.834  1.00  0.00     0.161 HD
ENDROOT
BRANCH   1  11
HETATM   11  C   UNL     1      40.219 -14.605   1.703  1.00  0.00     0.261 C 
HETATM   12  N   UNL     1      40.124 -13.510   0.865  1.00  0.00    -0.323 N 
HETATM   13  H   UNL     1      40.506 -12.648   1.237  1.00  0.00     0.169 HD
HETATM   14  O   UNL     1      39.686 -15.695   1.530  1.00  0.00    -0.267 OA
BRANCH  12  15
HETATM   15  C   UNL     1      39.514 -13.438  -0.402  1.00  0.00     0.035 A 
HETATM   16  C   UNL     1      38.576 -12.467  -0.760  1.00  0.00     0.039 A 
HETATM   17  C   UNL     1      37.985 -12.459  -2.039  1.00  0.00    -0.028 A 
HETATM   18  C   UNL     1      38.363 -13.443  -2.960  1.00  0.00     0.010 A 
HETATM   19  C   UNL     1      39.295 -14.419  -2.612  1.00  0.00     0.003 A 
HETATM   20  C   UNL     1      39.866 -14.417  -1.337  1.00  0.00     0.029 A 
BRANCH  17  21
HETATM   21  C   UNL     1      36.992 -11.373  -2.392  1.00  0.00     0.147 C 
HETATM   22  C   UNL     1      37.027 -10.235  -1.378  1.00  0.00     0.044 C 
BRANCH  21  23
HETATM   23  O   UNL     1      37.272 -10.849  -3.690  1.00  0.00    -0.391 OA
HETATM   24  H   UNL     1      37.825 -11.504  -4.145  1.00  0.00     0.210 HD
ENDBRANCH  21  23
ENDBRANCH  17  21
ENDBRANCH  12  15
ENDBRANCH   1  11
BRANCH   4  25
HETATM   25  C   UNL     1      42.978 -14.559   7.010  1.00  0.00     0.409 C 
HETATM   26  F   UNL     1      43.448 -13.340   7.359  1.00  0.00    -0.169 F 
HETATM   27  F   UNL     1      41.622 -14.494   7.119  1.00  0.00    -0.169 F 
HETATM   28  F   UNL     1      43.381 -15.457   7.931  1.00  0.00    -0.169 F 
ENDBRANCH   4  25
BRANCH   6  29
HETATM   29  C   UNL     1      43.737 -18.385   3.838  1.00  0.00    -0.035 A 
HETATM   30  C   UNL     1      43.520 -19.002   2.595  1.00  0.00     0.009 A 
HETATM   31  C   UNL     1      43.641 -20.386   2.456  1.00  0.00     0.001 A 
HETATM   32  C   UNL     1      43.979 -21.172   3.555  1.00  0.00     0.000 A 
HETATM   33  C   UNL     1      44.202 -20.576   4.793  1.00  0.00     0.001 A 
HETATM   34  C   UNL     1      44.083 -19.191   4.934  1.00  0.00     0.009 A 
ENDBRANCH   6  29
TORSDOF 6
ENDMDL
MODEL 4
REMARK VINA RESULT:      -9.3      4.332      7.812
REMARK  6 active torsions:
REMARK  status: ('A' for Active; 'I' for Inactive)
REMARK    1  A    between atoms: C_2  and  O_3 
REMARK    2  A    between atoms: C_2  and  C_4 
REMARK    3  A    between atoms: C_6  and  N_7 
REMARK       I    between atoms: N_7  and  C_8 
REMARK    4  A    between atoms: C_8  and  C_9 
REMARK    5  A    between atoms: C_12  and  C_13 
REMARK    6  A    between atoms: C_18  and  C_19 
ROOT
HETATM    1  C   UNL     1      42.368 -12.107   3.164  1.00  0.00     0.096 A 
HETATM    2  C   UNL     1      41.961 -13.406   2.922  1.00  0.00     0.138 A 
HETATM    3  N   UNL     1      40.924 -13.313   2.020  1.00  0.00    -0.240 N 
HETATM    4  C   UNL     1      40.239 -14.456   1.438  1.00  0.00     0.221 C 
HETATM    5  C   UNL     1      41.110 -15.720   1.580  1.00  0.00     0.066 C 
HETATM    6  C   UNL     1      41.647 -15.826   3.011  1.00  0.00     0.118 C 
HETATM    7  N   UNL     1      42.405 -14.619   3.350  1.00  0.00    -0.365 N 
HETATM    8  N   UNL     1      40.569 -12.053   1.737  1.00  0.00    -0.181 NA
HETATM    9  C   UNL     1      41.475 -11.323   2.393  1.00  0.00     0.160 A 
HETATM   10  H   UNL     1      43.399 -14.772   3.525  1.00  0.00     0.161 HD
ENDROOT
BRANCH   1  11
HETATM   11  C   UNL     1      43.438 -11.602   4.010  1.00  0.00     0.261 C 
HETATM   12  N   UNL     1      43.067 -11.435   5.332  1.00  0.00    -0.323 N 
HETATM   13  H   UNL     1      42.078 -11.562   5.521  1.00  0.00     0.169 HD
HETATM   14  O   UNL     1      44.535 -11.341   3.531  1.00  0.00    -0.267 OA
BRANCH  12  15
HETATM   15  C   UNL     1      43.877 -11.059   6.419  1.00  0.00     0.035 A 
HETATM   16  C   UNL     1      43.390 -10.447   7.578  1.00  0.00     0.039 A 
HETATM   17  C   UNL     1      44.255 -10.075   8.625  1.00  0.00    -0.028 A 
HETATM   18  C   UNL     1      45.623 -10.338   8.493  1.00  0.00     0.010 A 
HETATM   19  C   UNL     1      46.120 -10.944   7.340  1.00  0.00     0.003 A 
HETATM   20  C   UNL     1      45.250 -11.301   6.308  1.00  0.00     0.029 A 
BRANCH  17  21
HETATM   21  C   UNL     1      43.681  -9.438   9.872  1.00  0.00     0.147 C 
HETATM   22  C   UNL     1      43.490  -7.936   9.693  1.00  0.00     0.044 C 
BRANCH  21  23
HETATM   23  O   UNL     1      42.424 -10.031  10.198  1.00  0.00    -0.391 OA
HETATM   24  H   UNL     1      41.947 -10.155   9.363  1.00  0.00     0.210 HD
ENDBRANCH  21  23
ENDBRANCH  17  21
ENDBRANCH  12  15
ENDBRANCH   1  11
BRANCH   4  25
HETATM   25  C   UNL     1      39.899 -14.243  -0.024  1.00  0.00     0.409 C 
HETATM   26  F   UNL     1      40.978 -13.901  -0.762  1.00  0.00    -0.169 F 
HETATM   27  F   UNL     1      39.428 -15.408  -0.549  1.00  0.00    -0.169 F 
HETATM   28  F   UNL     1      38.931 -13.327  -0.226  1.00  0.00    -0.169 F 
ENDBRANCH   4  25
BRANCH   6  29
HETATM   29  C   UNL     1      42.508 -17.055   3.226  1.00  0.00    -0.035 A 
HETATM   30  C   UNL     1      42.652 -18.038   2.232  1.00  0.00     0.009 A 
HETATM   31  C   UNL     1      43.450 -19.162   2.453  1.00  0.00     0.001 A 
HETATM   32  C   UNL     1      44.115 -19.320   3.667  1.00  0.00     0.000 A 
HETATM   33  C   UNL     1      43.987 -18.352   4.660  1.00  0.00     0.001 A 
HETATM   34  C   UNL     1      43.190 -17.226   4.441  1.00  0.00     0.009 A 
ENDBRANCH   6  29
TORSDOF 6
ENDMDL
MODEL 5
REMARK VINA RESULT:      -9.0      4.474      7.919
REMARK  6 active torsions:
REMARK  status: ('A' for Active; 'I' for Inactive)
REMARK    1  A    between atoms: C_2  and  O_3 
REMARK    2  A    between atoms: C_2  and  C_4 
REMARK    3  A    between atoms: C_6  and  N_7 
REMARK       I    between atoms: N_7  and  C_8 
REMARK    4  A    between atoms: C_8  and  C_9 
REMARK    5  A    between atoms: C_12  and  C_13 
REMARK    6  A    between atoms: C_18  and  C_19 
ROOT
HETATM    1  C   UNL     1      39.934 -12.526   4.215  1.00  0.00     0.096 A 
HETATM    2  C   UNL     1      40.256 -13.675   3.515  1.00  0.00     0.138 A 
HETATM    3  N   UNL     1      39.711 -13.516   2.260  1.00  0.00    -0.240 N 
HETATM    4  C   UNL     1      39.867 -14.466   1.171  1.00  0.00     0.221 C 
HETATM    5  C   UNL     1      41.072 -15.388   1.447  1.00  0.00     0.066 C 
HETATM    6  C   UNL     1      41.012 -15.910   2.886  1.00  0.00     0.118 C 
HETATM    7  N   UNL     1      40.981 -14.784   3.823  1.00  0.00    -0.365 N 
HETATM    8  N   UNL     1      38.983 -12.399   2.127  1.00  0.00    -0.181 NA
HETATM    9  C   UNL     1      39.159 -11.776   3.296  1.00  0.00     0.160 A 
HETATM   10  H   UNL     1      41.793 -14.715   4.438  1.00  0.00     0.161 HD
ENDROOT
BRANCH   1  11
HETATM   11  C   UNL     1      40.269 -12.132   5.574  1.00  0.00     0.261 C 
HETATM   12  N   UNL     1      41.182 -11.097   5.641  1.00  0.00    -0.323 N 
HETATM   13  H   UNL     1      41.595 -10.828   4.755  1.00  0.00     0.169 HD
HETATM   14  O   UNL     1      39.775 -12.722   6.529  1.00  0.00    -0.267 OA
BRANCH  12  15
HETATM   15  C   UNL     1      41.643 -10.420   6.786  1.00  0.00     0.035 A 
HETATM   16  C   UNL     1      42.958 -10.490   7.255  1.00  0.00     0.039 A 
HETATM   17  C   UNL     1      43.354  -9.805   8.419  1.00  0.00    -0.028 A 
HETATM   18  C   UNL     1      42.406  -9.036   9.103  1.00  0.00     0.010 A 
HETATM   19  C   UNL     1      41.091  -8.962   8.647  1.00  0.00     0.003 A 
HETATM   20  C   UNL     1      40.712  -9.653   7.494  1.00  0.00     0.029 A 
BRANCH  17  21
HETATM   21  C   UNL     1      44.795  -9.888   8.877  1.00  0.00     0.147 C 
HETATM   22  C   UNL     1      44.911  -9.709  10.386  1.00  0.00     0.044 C 
BRANCH  21  23
HETATM   23  O   UNL     1      45.358 -11.148   8.513  1.00  0.00    -0.391 OA
HETATM   24  H   UNL     1      44.802 -11.832   8.917  1.00  0.00     0.210 HD
ENDBRANCH  21  23
ENDBRANCH  17  21
ENDBRANCH  12  15
ENDBRANCH   1  11
BRANCH   4  25
HETATM   25  C   UNL     1      40.053 -13.785  -0.170  1.00  0.00     0.409 C 
HETATM   26  F   UNL     1      40.997 -12.818  -0.134  1.00  0.00    -0.169 F 
HETATM   27  F   UNL     1      40.478 -14.702  -1.084  1.00  0.00    -0.169 F 
HETATM   28  F   UNL     1      38.917 -13.261  -0.673  1.00  0.00    -0.169 F 
ENDBRANCH   4  25
BRANCH   6  29
HETATM   29  C   UNL     1      42.167 -16.832   3.224  1.00  0.00    -0.035 A 
HETATM   30  C   UNL     1      42.580 -17.850   2.348  1.00  0.00     0.009 A 
HETATM   31  C   UNL     1      43.646 -18.688   2.681  1.00  0.00     0.001 A 
HETATM   32  C   UNL     1      44.312 -18.522   3.893  1.00  0.00     0.000 A 
HETATM   33  C   UNL     1      43.918 -17.516   4.771  1.00  0.00     0.001 A 
HETATM   34  C   UNL     1      42.853 -16.675   4.439  1.00  0.00     0.009 A 
ENDBRANCH   6  29
TORSDOF 6
ENDMDL
MODEL 6
REMARK VINA RESULT:      -8.5      4.655      8.298
REMARK  6 active torsions:
REMARK  status: ('A' for Active; 'I' for Inactive)
REMARK    1  A    between atoms: C_2  and  O_3 
REMARK    2  A    between atoms: C_2  and  C_4 
REMARK    3  A    between atoms: C_6  and  N_7 
REMARK       I    between atoms: N_7  and  C_8 
REMARK    4  A    between atoms: C_8  and  C_9 
REMARK    5  A    between atoms: C_12  and  C_13 
REMARK    6  A    between atoms: C_18  and  C_19 
ROOT
HETATM    1  C   UNL     1      41.574 -13.394   4.990  1.00  0.00     0.096 A 
HETATM    2  C   UNL     1      41.753 -12.194   5.652  1.00  0.00     0.138 A 
HETATM    3  N   UNL     1      40.630 -11.443   5.381  1.00  0.00    -0.240 N 
HETATM    4  C   UNL     1      40.370 -10.125   5.937  1.00  0.00     0.221 C 
HETATM    5  C   UNL     1      41.238  -9.903   7.191  1.00  0.00     0.066 C 
HETATM    6  C   UNL     1      42.686 -10.316   6.904  1.00  0.00     0.118 C 
HETATM    7  N   UNL     1      42.727 -11.715   6.471  1.00  0.00    -0.365 N 
HETATM    8  N   UNL     1      39.788 -12.028   4.518  1.00  0.00    -0.181 NA
HETATM    9  C   UNL     1      40.336 -13.230   4.320  1.00  0.00     0.160 A 
HETATM   10  H   UNL     1      43.227 -12.345   7.103  1.00  0.00     0.161 HD
ENDROOT
BRANCH   1  11
HETATM   11  C   UNL     1      42.424 -14.574   4.941  1.00  0.00     0.261 C 
HETATM   12  N   UNL     1      41.966 -15.550   4.076  1.00  0.00    -0.323 N 
HETATM   13  H   UNL     1      41.046 -15.382   3.684  1.00  0.00     0.169 HD
HETATM   14  O   UNL     1      43.423 -14.646   5.647  1.00  0.00    -0.267 OA
BRANCH  12  15
HETATM   15  C   UNL     1      42.593 -16.760   3.724  1.00  0.00     0.035 A 
HETATM   16  C   UNL     1      43.102 -17.671   4.654  1.00  0.00     0.039 A 
HETATM   17  C   UNL     1      43.738 -18.857   4.240  1.00  0.00    -0.028 A 
HETATM   18  C   UNL     1      43.845 -19.120   2.869  1.00  0.00     0.010 A 
HETATM   19  C   UNL     1      43.344 -18.217   1.933  1.00  0.00     0.003 A 
HETATM   20  C   UNL     1      42.723 -17.041   2.360  1.00  0.00     0.029 A 
BRANCH  17  21
HETATM   21  C   UNL     1      44.252 -19.828   5.281  1.00  0.00     0.147 C 
HETATM   22  C   UNL     1      43.420 -19.768   6.557  1.00  0.00     0.044 C 
BRANCH  21  23
HETATM   23  O   UNL     1      44.228 -21.161   4.772  1.00  0.00    -0.391 OA
HETATM   24  H   UNL     1      44.465 -21.747   5.508  1.00  0.00     0.210 HD
ENDBRANCH  21  23
ENDBRANCH  17  21
ENDBRANCH  12  15
ENDBRANCH   1  11
BRANCH   4  25
HETATM   25  C   UNL     1      38.911  -9.926   6.295  1.00  0.00     0.409 C 
HETATM   26  F   UNL     1      38.392 -10.981   6.963  1.00  0.00    -0.169 F 
HETATM   27  F   UNL     1      38.795  -8.851   7.124  1.00  0.00    -0.169 F 
HETATM   28  F   UNL     1      38.124  -9.660   5.233  1.00  0.00    -0.169 F 
ENDBRANCH   4  25
BRANCH   6  29
HETATM   29  C   UNL     1      43.600 -10.115   8.097  1.00  0.00    -0.035 A 
HETATM   30  C   UNL     1      44.981 -10.362   8.018  1.00  0.00     0.009 A 
HETATM   31  C   UNL     1      45.804 -10.170   9.129  1.00  0.00     0.001 A 
HETATM   32  C   UNL     1      45.259  -9.731  10.334  1.00  0.00     0.000 A 
HETATM   33  C   UNL     1      43.893  -9.478  10.428  1.00  0.00     0.001 A 
HETATM   34  C   UNL     1      43.068  -9.667   9.316  1.00  0.00     0.009 A 
ENDBRANCH   6  29
TORSDOF 6
ENDMDL
MODEL 7
REMARK VINA RESULT:      -8.5      4.104      8.371
REMARK  6 active torsions:
REMARK  status: ('A' for Active; 'I' for Inactive)
REMARK    1  A    between atoms: C_2  and  O_3 
REMARK    2  A    between atoms: C_2  and  C_4 
REMARK    3  A    between atoms: C_6  and  N_7 
REMARK       I    between atoms: N_7  and  C_8 
REMARK    4  A    between atoms: C_8  and  C_9 
REMARK    5  A    between atoms: C_12  and  C_13 
REMARK    6  A    between atoms: C_18  and  C_19 
ROOT
HETATM    1  C   UNL     1      43.692 -15.599   5.799  1.00  0.00     0.096 A 
HETATM    2  C   UNL     1      43.419 -15.697   4.447  1.00  0.00     0.138 A 
HETATM    3  N   UNL     1      43.884 -16.933   4.057  1.00  0.00    -0.240 N 
HETATM    4  C   UNL     1      43.741 -17.479   2.718  1.00  0.00     0.221 C 
HETATM    5  C   UNL     1      42.622 -16.734   1.963  1.00  0.00     0.066 C 
HETATM    6  C   UNL     1      42.794 -15.221   2.135  1.00  0.00     0.118 C 
HETATM    7  N   UNL     1      42.793 -14.878   3.559  1.00  0.00    -0.365 N 
HETATM    8  N   UNL     1      44.522 -17.598   5.030  1.00  0.00    -0.181 NA
HETATM    9  C   UNL     1      44.363 -16.811   6.097  1.00  0.00     0.160 A 
HETATM   10  H   UNL     1      42.010 -14.293   3.859  1.00  0.00     0.161 HD
ENDROOT
BRANCH   1  11
HETATM   11  C   UNL     1      43.401 -14.527   6.739  1.00  0.00     0.261 C 
HETATM   12  N   UNL     1      43.768 -13.276   6.281  1.00  0.00    -0.323 N 
HETATM   13  H   UNL     1      44.300 -13.271   5.418  1.00  0.00     0.169 HD
HETATM   14  O   UNL     1      42.903 -14.780   7.830  1.00  0.00    -0.267 OA
BRANCH  12  15
HETATM   15  C   UNL     1      43.543 -12.028   6.894  1.00  0.00     0.035 A 
HETATM   16  C   UNL     1      44.290 -11.546   7.973  1.00  0.00     0.039 A 
HETATM   17  C   UNL     1      44.004 -10.297   8.557  1.00  0.00    -0.028 A 
HETATM   18  C   UNL     1      42.957  -9.532   8.031  1.00  0.00     0.010 A 
HETATM   19  C   UNL     1      42.203 -10.006   6.959  1.00  0.00     0.003 A 
HETATM   20  C   UNL     1      42.495 -11.249   6.395  1.00  0.00     0.029 A 
BRANCH  17  21
HETATM   21  C   UNL     1      44.855  -9.802   9.707  1.00  0.00     0.147 C 
HETATM   22  C   UNL     1      44.033  -8.982  10.695  1.00  0.00     0.044 C 
BRANCH  21  23
HETATM   23  O   UNL     1      45.446 -10.903  10.396  1.00  0.00    -0.391 OA
HETATM   24  H   UNL     1      44.977 -10.992  11.241  1.00  0.00     0.210 HD
ENDBRANCH  21  23
ENDBRANCH  17  21
ENDBRANCH  12  15
ENDBRANCH   1  11
BRANCH   4  25
HETATM   25  C   UNL     1      43.437 -18.964   2.727  1.00  0.00     0.409 C 
HETATM   26  F   UNL     1      43.240 -19.444   3.975  1.00  0.00    -0.169 F 
HETATM   27  F   UNL     1      42.281 -19.190   2.042  1.00  0.00    -0.169 F 
HETATM   28  F   UNL     1      44.379 -19.713   2.121  1.00  0.00    -0.169 F 
ENDBRANCH   4  25
BRANCH   6  29
HETATM   29  C   UNL     1      41.728 -14.423   1.409  1.00  0.00    -0.035 A 
HETATM   30  C   UNL     1      41.643 -13.026   1.527  1.00  0.00     0.009 A 
HETATM   31  C   UNL     1      40.653 -12.313   0.850  1.00  0.00     0.001 A 
HETATM   32  C   UNL     1      39.734 -12.984   0.046  1.00  0.00     0.000 A 
HETATM   33  C   UNL     1      39.807 -14.369  -0.086  1.00  0.00     0.001 A 
HETATM   34  C   UNL     1      40.799 -15.084   0.590  1.00  0.00     0.009 A 
ENDBRANCH   6  29
TORSDOF 6
ENDMDL
MODEL 8
REMARK VINA RESULT:      -8.4      4.953      7.820
REMARK  6 active torsions:
REMARK  status: ('A' for Active; 'I' for Inactive)
REMARK    1  A    between atoms: C_2  and  O_3 
REMARK    2  A    between atoms: C_2  and  C_4 
REMARK    3  A    between atoms: C_6  and  N_7 
REMARK       I    between atoms: N_7  and  C_8 
REMARK    4  A    between atoms: C_8  and  C_9 
REMARK    5  A    between atoms: C_12  and  C_13 
REMARK    6  A    between atoms: C_18  and  C_19 
ROOT
HETATM    1  C   UNL     1      40.333 -12.390   4.065  1.00  0.00     0.096 A 
HETATM    2  C   UNL     1      40.535 -13.595   3.416  1.00  0.00     0.138 A 
HETATM    3  N   UNL     1      39.910 -13.473   2.194  1.00  0.00    -0.240 N 
HETATM    4  C   UNL     1      39.930 -14.491   1.157  1.00  0.00     0.221 C 
HETATM    5  C   UNL     1      41.095 -15.470   1.404  1.00  0.00     0.066 C 
HETATM    6  C   UNL     1      41.111 -15.905   2.873  1.00  0.00     0.118 C 
HETATM    7  N   UNL     1      41.214 -14.728   3.739  1.00  0.00    -0.365 N 
HETATM    8  N   UNL     1      39.241 -12.322   2.045  1.00  0.00    -0.181 NA
HETATM    9  C   UNL     1      39.538 -11.646   3.159  1.00  0.00     0.160 A 
HETATM   10  H   UNL     1      42.072 -14.676   4.291  1.00  0.00     0.161 HD
ENDROOT
BRANCH   1  11
HETATM   11  C   UNL     1      40.789 -11.942   5.372  1.00  0.00     0.261 C 
HETATM   12  N   UNL     1      40.533 -10.606   5.618  1.00  0.00    -0.323 N 
HETATM   13  H   UNL     1      40.181 -10.081   4.825  1.00  0.00     0.169 HD
HETATM   14  O   UNL     1      41.364 -12.718   6.126  1.00  0.00    -0.267 OA
BRANCH  12  15
HETATM   15  C   UNL     1      40.756  -9.885   6.806  1.00  0.00     0.035 A 
HETATM   16  C   UNL     1      39.896  -9.916   7.908  1.00  0.00     0.039 A 
HETATM   17  C   UNL     1      40.164  -9.156   9.063  1.00  0.00    -0.028 A 
HETATM   18  C   UNL     1      41.320  -8.368   9.097  1.00  0.00     0.010 A 
HETATM   19  C   UNL     1      42.182  -8.327   8.003  1.00  0.00     0.003 A 
HETATM   20  C   UNL     1      41.899  -9.081   6.862  1.00  0.00     0.029 A 
BRANCH  17  21
HETATM   21  C   UNL     1      39.219  -9.239  10.242  1.00  0.00     0.147 C 
HETATM   22  C   UNL     1      39.910  -8.834  11.539  1.00  0.00     0.044 C 
BRANCH  21  23
HETATM   23  O   UNL     1      38.089  -8.392  10.033  1.00  0.00    -0.391 OA
HETATM   24  H   UNL     1      37.302  -8.912  10.263  1.00  0.00     0.210 HD
ENDBRANCH  21  23
ENDBRANCH  17  21
ENDBRANCH  12  15
ENDBRANCH   1  11
BRANCH   4  25
HETATM   25  C   UNL     1      40.057 -13.900  -0.233  1.00  0.00     0.409 C 
HETATM   26  F   UNL     1      41.076 -13.017  -0.329  1.00  0.00    -0.169 F 
HETATM   27  F   UNL     1      40.327 -14.897  -1.121  1.00  0.00    -0.169 F 
HETATM   28  F   UNL     1      38.929 -13.307  -0.673  1.00  0.00    -0.169 F 
ENDBRANCH   4  25
BRANCH   6  29
HETATM   29  C   UNL     1      42.231 -16.877   3.185  1.00  0.00    -0.035 A 
HETATM   30  C   UNL     1      42.977 -16.788   4.372  1.00  0.00     0.009 A 
HETATM   31  C   UNL     1      44.004 -17.695   4.638  1.00  0.00     0.001 A 
HETATM   32  C   UNL     1      44.302 -18.702   3.723  1.00  0.00     0.000 A 
HETATM   33  C   UNL     1      43.569 -18.807   2.543  1.00  0.00     0.001 A 
HETATM   34  C   UNL     1      42.539 -17.902   2.276  1.00  0.00     0.009 A 
ENDBRANCH   6  29
TORSDOF 6
ENDMDL
MODEL 9
REMARK VINA RESULT:      -8.3      2.612      5.138
REMARK  6 active torsions:
REMARK  status: ('A' for Active; 'I' for Inactive)
REMARK    1  A    between atoms: C_2  and  O_3 
REMARK    2  A    between atoms: C_2  and  C_4 
REMARK    3  A    between atoms: C_6  and  N_7 
REMARK       I    between atoms: N_7  and  C_8 
REMARK    4  A    between atoms: C_8  and  C_9 
REMARK    5  A    between atoms: C_12  and  C_13 
REMARK    6  A    between atoms: C_18  and  C_19 
ROOT
HETATM    1  C   UNL     1      41.801 -14.137   3.345  1.00  0.00     0.096 A 
HETATM    2  C   UNL     1      42.352 -13.981   4.604  1.00  0.00     0.138 A 
HETATM    3  N   UNL     1      42.435 -15.248   5.138  1.00  0.00    -0.240 N 
HETATM    4  C   UNL     1      43.021 -15.556   6.432  1.00  0.00     0.221 C 
HETATM    5  C   UNL     1      43.932 -14.398   6.886  1.00  0.00     0.066 C 
HETATM    6  C   UNL     1      43.211 -13.060   6.696  1.00  0.00     0.118 C 
HETATM    7  N   UNL     1      42.812 -12.904   5.295  1.00  0.00    -0.365 N 
HETATM    8  N   UNL     1      41.894 -16.195   4.361  1.00  0.00    -0.181 NA
HETATM    9  C   UNL     1      41.554 -15.529   3.254  1.00  0.00     0.160 A 
HETATM   10  H   UNL     1      43.265 -12.130   4.804  1.00  0.00     0.161 HD
ENDROOT
BRANCH   1  11
HETATM   11  C   UNL     1      41.508 -13.146   2.321  1.00  0.00     0.261 C 
HETATM   12  N   UNL     1      40.543 -13.553   1.419  1.00  0.00    -0.323 N 
HETATM   13  H   UNL     1      40.254 -14.521   1.503  1.00  0.00     0.169 HD
HETATM   14  O   UNL     1      42.115 -12.082   2.298  1.00  0.00    -0.267 OA
BRANCH  12  15
HETATM   15  C   UNL     1      39.964 -12.808   0.374  1.00  0.00     0.035 A 
HETATM   16  C   UNL     1      40.493 -12.738  -0.918  1.00  0.00     0.039 A 
HETATM   17  C   UNL     1      39.879 -11.958  -1.916  1.00  0.00    -0.028 A 
HETATM   18  C   UNL     1      38.711 -11.255  -1.598  1.00  0.00     0.010 A 
HETATM   19  C   UNL     1      38.177 -11.314  -0.312  1.00  0.00     0.003 A 
HETATM   20  C   UNL     1      38.803 -12.087   0.670  1.00  0.00     0.029 A 
BRANCH  17  21
HETATM   21  C   UNL     1      40.472 -11.931  -3.308  1.00  0.00     0.147 C 
HETATM   22  C   UNL     1      40.965 -10.536  -3.676  1.00  0.00     0.044 C 
BRANCH  21  23
HETATM   23  O   UNL     1      41.561 -12.849  -3.401  1.00  0.00    -0.391 OA
HETATM   24  H   UNL     1      41.424 -13.519  -2.712  1.00  0.00     0.210 HD
ENDBRANCH  21  23
ENDBRANCH  17  21
ENDBRANCH  12  15
ENDBRANCH   1  11
BRANCH   4  25
HETATM   25  C   UNL     1      43.818 -16.845   6.415  1.00  0.00     0.409 C 
HETATM   26  F   UNL     1      44.446 -17.050   5.235  1.00  0.00    -0.169 F 
HETATM   27  F   UNL     1      44.794 -16.781   7.363  1.00  0.00    -0.169 F 
HETATM   28  F   UNL     1      43.086 -17.938   6.709  1.00  0.00    -0.169 F 
ENDBRANCH   4  25
BRANCH   6  29
HETATM   29  C   UNL     1      44.049 -11.874   7.132  1.00  0.00    -0.035 A 
HETATM   30  C   UNL     1      43.515 -10.843   7.923  1.00  0.00     0.009 A 
HETATM   31  C   UNL     1      44.307  -9.761   8.311  1.00  0.00     0.001 A 
HETATM   32  C   UNL     1      45.641  -9.693   7.915  1.00  0.00     0.000 A 
HETATM   33  C   UNL     1      46.187 -10.709   7.135  1.00  0.00     0.001 A 
HETATM   34  C   UNL     1      45.397 -11.794   6.747  1.00  0.00     0.009 A 
ENDBRANCH   6  29
TORSDOF 6
ENDMDL
MODEL 10
REMARK VINA RESULT:      -8.3      4.342      9.427
REMARK  6 active torsions:
REMARK  status: ('A' for Active; 'I' for Inactive)
REMARK    1  A    between atoms: C_2  and  O_3 
REMARK    2  A    between atoms: C_2  and  C_4 
REMARK    3  A    between atoms: C_6  and  N_7 
REMARK       I    between atoms: N_7  and  C_8 
REMARK    4  A    between atoms: C_8  and  C_9 
REMARK    5  A    between atoms: C_12  and  C_13 
REMARK    6  A    between atoms: C_18  and  C_19 
ROOT
HETATM    1  C   UNL     1      42.970 -13.002   4.648  1.00  0.00     0.096 A 
HETATM    2  C   UNL     1      42.418 -13.087   3.383  1.00  0.00     0.138 A 
HETATM    3  N   UNL     1      42.285 -14.433   3.120  1.00  0.00    -0.240 N 
HETATM    4  C   UNL     1      41.680 -14.978   1.916  1.00  0.00     0.221 C 
HETATM    5  C   UNL     1      40.809 -13.906   1.233  1.00  0.00     0.066 C 
HETATM    6  C   UNL     1      41.579 -12.584   1.145  1.00  0.00     0.118 C 
HETATM    7  N   UNL     1      41.992 -12.159   2.485  1.00  0.00    -0.365 N 
HETATM    8  N   UNL     1      42.797 -15.220   4.075  1.00  0.00    -0.181 NA
HETATM    9  C   UNL     1      43.168 -14.354   5.023  1.00  0.00     0.160 A 
HETATM   10  H   UNL     1      41.571 -11.285   2.806  1.00  0.00     0.161 HD
ENDROOT
BRANCH   1  11
HETATM   11  C   UNL     1      43.306 -11.834   5.447  1.00  0.00     0.261 C 
HETATM   12  N   UNL     1      43.986 -12.138   6.611  1.00  0.00    -0.323 N 
HETATM   13  H   UNL     1      44.056 -13.127   6.825  1.00  0.00     0.169 HD
HETATM   14  O   UNL     1      42.964 -10.715   5.082  1.00  0.00    -0.267 OA
BRANCH  12  15
HETATM   15  C   UNL     1      44.536 -11.246   7.552  1.00  0.00     0.035 A 
HETATM   16  C   UNL     1      44.004 -11.035   8.827  1.00  0.00     0.039 A 
HETATM   17  C   UNL     1      44.588 -10.114   9.717  1.00  0.00    -0.028 A 
HETATM   18  C   UNL     1      45.727  -9.412   9.308  1.00  0.00     0.010 A 
HETATM   19  C   UNL     1      46.263  -9.611   8.037  1.00  0.00     0.003 A 
HETATM   20  C   UNL     1      45.668 -10.524   7.163  1.00  0.00     0.029 A 
BRANCH  17  21
HETATM   21  C   UNL     1      43.994  -9.935  11.098  1.00  0.00     0.147 C 
HETATM   22  C   UNL     1      43.591  -8.486  11.348  1.00  0.00     0.044 C 
BRANCH  21  23
HETATM   23  O   UNL     1      42.847 -10.770  11.256  1.00  0.00    -0.391 OA
HETATM   24  H   UNL     1      42.697 -10.864  12.210  1.00  0.00     0.210 HD
ENDBRANCH  21  23
ENDBRANCH  17  21
ENDBRANCH  12  15
ENDBRANCH   1  11
BRANCH   4  25
HETATM   25  C   UNL     1      40.837 -16.206   2.196  1.00  0.00     0.409 C 
HETATM   26  F   UNL     1      40.141 -16.104   3.350  1.00  0.00    -0.169 F 
HETATM   27  F   UNL     1      39.917 -16.355   1.203  1.00  0.00    -0.169 F 
HETATM   28  F   UNL     1      41.544 -17.354   2.220  1.00  0.00    -0.169 F 
ENDBRANCH   4  25
BRANCH   6  29
HETATM   29  C   UNL     1      40.781 -11.483   0.475  1.00  0.00    -0.035 A 
HETATM   30  C   UNL     1      41.328 -10.209   0.246  1.00  0.00     0.009 A 
HETATM   31  C   UNL     1      40.574  -9.211  -0.373  1.00  0.00     0.001 A 
HETATM   32  C   UNL     1      39.264  -9.470  -0.771  1.00  0.00     0.000 A 
HETATM   33  C   UNL     1      38.708 -10.729  -0.555  1.00  0.00     0.001 A 
HETATM   34  C   UNL     1      39.462 -11.730   0.062  1.00  0.00     0.009 A 
ENDBRANCH   6  29
TORSDOF 6
ENDMDL
