MODEL 1
REMARK VINA RESULT:      -8.5      0.000      0.000
REMARK  8 active torsions:
REMARK  status: ('A' for Active; 'I' for Inactive)
REMARK    1  A    between atoms: O_2  and  C_3 
REMARK    2  A    between atoms: C_3  and  C_4 
REMARK    3  A    between atoms: C_5  and  C_6 
REMARK    4  A    between atoms: C_6  and  C_7 
REMARK    5  A    between atoms: C_7  and  N_8 
REMARK    6  A    between atoms: N_13  and  C_14 
REMARK    7  A    between atoms: C_14  and  C_15 
REMARK    8  A    between atoms: C_15  and  N_16 
ROOT
HETATM    1  N   UNL     1      41.080 -14.980   2.988  1.00  0.00    -0.174 N 
HETATM    2  C   UNL     1      41.032 -13.911   3.849  1.00  0.00     0.681 C 
HETATM    3  N   UNL     1      41.224 -14.011   5.172  1.00  0.00    -0.234 N 
HETATM    4  H   UNL     1      41.084 -13.240   5.808  1.00  0.00     0.174 HD
HETATM    5  H   UNL     1      41.196 -14.928   5.617  1.00  0.00     0.174 HD
HETATM    6  N   UNL     1      40.763 -12.698   3.200  1.00  0.00    -0.180 N 
HETATM    7  C   UNL     1      40.383 -13.097   1.878  1.00  0.00     0.079 A 
HETATM    8  C   UNL     1      40.599 -14.480   1.746  1.00  0.00     0.079 A 
HETATM    9  C   UNL     1      39.828 -12.356   0.857  1.00  0.00     0.032 A 
HETATM   10  C   UNL     1      39.493 -13.036  -0.319  1.00  0.00     0.002 A 
HETATM   11  C   UNL     1      39.718 -14.420  -0.451  1.00  0.00     0.002 A 
HETATM   12  C   UNL     1      40.280 -15.161   0.592  1.00  0.00     0.032 A 
ENDROOT
BRANCH   1  13
HETATM   13  C   UNL     1      41.328 -16.389   3.308  1.00  0.00     0.231 C 
BRANCH  13  14
HETATM   14  C   UNL     1      42.773 -16.705   2.997  1.00  0.00     0.179 C 
HETATM   15  O   UNL     1      43.548 -15.861   2.553  1.00  0.00    -0.290 OA
BRANCH  14  16
HETATM   16  C   UNL     1      43.232 -18.095   3.208  1.00  0.00     0.028 A 
HETATM   17  C   UNL     1      43.716 -18.491   4.462  1.00  0.00     0.053 A 
HETATM   18  C   UNL     1      44.085 -19.824   4.678  1.00  0.00     0.018 A 
HETATM   19  C   UNL     1      43.979 -20.750   3.639  1.00  0.00     0.001 A 
HETATM   20  C   UNL     1      43.511 -20.350   2.386  1.00  0.00     0.001 A 
HETATM   21  C   UNL     1      43.133 -19.025   2.166  1.00  0.00     0.016 A 
BRANCH  17  22
HETATM   22  C   UNL     1      43.934 -17.484   5.521  1.00  0.00     0.293 C 
HETATM   23  O   UNL     1      44.955 -16.808   5.586  1.00  0.00    -0.259 OA
BRANCH  22  24
HETATM   24  O   UNL     1      42.844 -17.453   6.313  1.00  0.00    -0.322 OA
HETATM   25  C   UNL     1      42.789 -16.415   7.292  1.00  0.00     0.213 C 
ENDBRANCH  22  24
ENDBRANCH  17  22
ENDBRANCH  14  16
ENDBRANCH  13  14
ENDBRANCH   1  13
BRANCH   6  26
HETATM   26  C   UNL     1      40.587 -11.370   3.803  1.00  0.00     0.175 C 
BRANCH  26  27
HETATM   27  C   UNL     1      41.808 -10.435   3.637  1.00  0.00     0.255 C 
BRANCH  27  28
HETATM   28  N   UNL     1      42.763 -10.446   4.825  1.00  0.00    -0.070 N 
HETATM   29  H   UNL     1      43.248  -9.539   4.862  1.00  0.00     0.279 HD
HETATM   30  C   UNL     1      42.061 -10.657   6.157  1.00  0.00     0.235 C 
HETATM   31  C   UNL     1      43.073 -10.557   7.290  1.00  0.00     0.028 C 
HETATM   32  C   UNL     1      44.193 -11.576   7.129  1.00  0.00     0.003 C 
HETATM   33  C   UNL     1      44.855 -11.444   5.762  1.00  0.00     0.028 C 
HETATM   34  C   UNL     1      43.840 -11.513   4.631  1.00  0.00     0.235 C 
ENDBRANCH  27  28
ENDBRANCH  26  27
ENDBRANCH   6  26
TORSDOF 8
ENDMDL
MODEL 2
REMARK VINA RESULT:      -8.5      2.176      6.920
REMARK  8 active torsions:
REMARK  status: ('A' for Active; 'I' for Inactive)
REMARK    1  A    between atoms: O_2  and  C_3 
REMARK    2  A    between atoms: C_3  and  C_4 
REMARK    3  A    between atoms: C_5  and  C_6 
REMARK    4  A    between atoms: C_6  and  C_7 
REMARK    5  A    between atoms: C_7  and  N_8 
REMARK    6  A    between atoms: N_13  and  C_14 
REMARK    7  A    between atoms: C_14  and  C_15 
REMARK    8  A    between atoms: C_15  and  N_16 
ROOT
HETATM    1  N   UNL     1      41.366 -14.677   4.527  1.00  0.00    -0.174 N 
HETATM    2  C   UNL     1      40.465 -14.594   3.493  1.00  0.00     0.681 C 
HETATM    3  N   UNL     1      39.377 -13.811   3.515  1.00  0.00    -0.234 N 
HETATM    4  H   UNL     1      38.667 -13.836   2.797  1.00  0.00     0.174 HD
HETATM    5  H   UNL     1      39.062 -13.411   4.398  1.00  0.00     0.174 HD
HETATM    6  N   UNL     1      40.803 -15.414   2.407  1.00  0.00    -0.180 N 
HETATM    7  C   UNL     1      41.860 -16.235   2.917  1.00  0.00     0.079 A 
HETATM    8  C   UNL     1      42.215 -15.770   4.194  1.00  0.00     0.079 A 
HETATM    9  C   UNL     1      42.453 -17.352   2.369  1.00  0.00     0.032 A 
HETATM   10  C   UNL     1      43.428 -18.001   3.135  1.00  0.00     0.002 A 
HETATM   11  C   UNL     1      43.788 -17.526   4.411  1.00  0.00     0.002 A 
HETATM   12  C   UNL     1      43.177 -16.394   4.957  1.00  0.00     0.032 A 
ENDROOT
BRANCH   1  13
HETATM   13  C   UNL     1      41.334 -13.975   5.813  1.00  0.00     0.231 C 
BRANCH  13  14
HETATM   14  C   UNL     1      41.717 -12.531   5.582  1.00  0.00     0.179 C 
HETATM   15  O   UNL     1      40.910 -11.695   5.183  1.00  0.00    -0.290 OA
BRANCH  14  16
HETATM   16  C   UNL     1      43.126 -12.149   5.815  1.00  0.00     0.028 A 
HETATM   17  C   UNL     1      43.954 -11.826   4.731  1.00  0.00     0.053 A 
HETATM   18  C   UNL     1      45.268 -11.398   4.960  1.00  0.00     0.018 A 
HETATM   19  C   UNL     1      45.750 -11.306   6.266  1.00  0.00     0.001 A 
HETATM   20  C   UNL     1      44.929 -11.644   7.343  1.00  0.00     0.001 A 
HETATM   21  C   UNL     1      43.615 -12.063   7.124  1.00  0.00     0.016 A 
BRANCH  17  22
HETATM   22  C   UNL     1      43.475 -12.034   3.349  1.00  0.00     0.293 C 
HETATM   23  O   UNL     1      43.584 -13.110   2.771  1.00  0.00    -0.259 OA
BRANCH  22  24
HETATM   24  O   UNL     1      42.914 -10.889   2.913  1.00  0.00    -0.322 OA
HETATM   25  C   UNL     1      41.904 -11.009   1.911  1.00  0.00     0.213 C 
ENDBRANCH  22  24
ENDBRANCH  17  22
ENDBRANCH  14  16
ENDBRANCH  13  14
ENDBRANCH   1  13
BRANCH   6  26
HETATM   26  C   UNL     1      40.049 -15.621   1.163  1.00  0.00     0.175 C 
BRANCH  26  27
HETATM   27  C   UNL     1      40.386 -14.606   0.045  1.00  0.00     0.255 C 
BRANCH  27  28
HETATM   28  N   UNL     1      39.161 -13.978  -0.610  1.00  0.00    -0.070 N 
HETATM   29  H   UNL     1      38.318 -14.405  -0.203  1.00  0.00     0.279 HD
HETATM   30  C   UNL     1      39.073 -12.474  -0.403  1.00  0.00     0.235 C 
HETATM   31  C   UNL     1      37.777 -11.949  -1.004  1.00  0.00     0.028 C 
HETATM   32  C   UNL     1      37.680 -12.273  -2.489  1.00  0.00     0.003 C 
HETATM   33  C   UNL     1      37.856 -13.767  -2.732  1.00  0.00     0.028 C 
HETATM   34  C   UNL     1      39.136 -14.298  -2.105  1.00  0.00     0.235 C 
ENDBRANCH  27  28
ENDBRANCH  26  27
ENDBRANCH   6  26
TORSDOF 8
ENDMDL
MODEL 3
REMARK VINA RESULT:      -8.5      1.479      4.986
REMARK  8 active torsions:
REMARK  status: ('A' for Active; 'I' for Inactive)
REMARK    1  A    between atoms: O_2  and  C_3 
REMARK    2  A    between atoms: C_3  and  C_4 
REMARK    3  A    between atoms: C_5  and  C_6 
REMARK    4  A    between atoms: C_6  and  C_7 
REMARK    5  A    between atoms: C_7  and  N_8 
REMARK    6  A    between atoms: N_13  and  C_14 
REMARK    7  A    between atoms: C_14  and  C_15 
REMARK    8  A    between atoms: C_15  and  N_16 
ROOT
HETATM    1  N   UNL     1      41.116 -14.727   3.770  1.00  0.00    -0.174 N 
HETATM    2  C   UNL     1      40.124 -14.419   2.872  1.00  0.00     0.681 C 
HETATM    3  N   UNL     1      39.404 -15.339   2.214  1.00  0.00    -0.234 N 
HETATM    4  H   UNL     1      38.751 -15.104   1.481  1.00  0.00     0.174 HD
HETATM    5  H   UNL     1      39.721 -16.307   2.196  1.00  0.00     0.174 HD
HETATM    6  N   UNL     1      39.938 -13.038   2.715  1.00  0.00    -0.180 N 
HETATM    7  C   UNL     1      41.064 -12.465   3.390  1.00  0.00     0.079 A 
HETATM    8  C   UNL     1      41.764 -13.490   4.049  1.00  0.00     0.079 A 
HETATM    9  C   UNL     1      41.517 -11.163   3.403  1.00  0.00     0.032 A 
HETATM   10  C   UNL     1      42.700 -10.903   4.103  1.00  0.00     0.002 A 
HETATM   11  C   UNL     1      43.394 -11.932   4.770  1.00  0.00     0.002 A 
HETATM   12  C   UNL     1      42.925 -13.248   4.748  1.00  0.00     0.032 A 
ENDROOT
BRANCH   1  13
HETATM   13  C   UNL     1      41.588 -16.053   4.178  1.00  0.00     0.231 C 
BRANCH  13  14
HETATM   14  C   UNL     1      42.747 -16.445   3.289  1.00  0.00     0.179 C 
HETATM   15  O   UNL     1      43.292 -15.645   2.533  1.00  0.00    -0.290 OA
BRANCH  14  16
HETATM   16  C   UNL     1      43.191 -17.854   3.324  1.00  0.00     0.028 A 
HETATM   17  C   UNL     1      43.796 -18.371   4.477  1.00  0.00     0.053 A 
HETATM   18  C   UNL     1      44.153 -19.724   4.532  1.00  0.00     0.018 A 
HETATM   19  C   UNL     1      43.915 -20.549   3.432  1.00  0.00     0.001 A 
HETATM   20  C   UNL     1      43.327 -20.029   2.278  1.00  0.00     0.001 A 
HETATM   21  C   UNL     1      42.960 -18.683   2.219  1.00  0.00     0.016 A 
BRANCH  17  22
HETATM   22  C   UNL     1      44.149 -17.469   5.593  1.00  0.00     0.293 C 
HETATM   23  O   UNL     1      45.101 -16.698   5.539  1.00  0.00    -0.259 OA
BRANCH  22  24
HETATM   24  O   UNL     1      43.254 -17.644   6.584  1.00  0.00    -0.322 OA
HETATM   25  C   UNL     1      43.057 -16.544   7.474  1.00  0.00     0.213 C 
ENDBRANCH  22  24
ENDBRANCH  17  22
ENDBRANCH  14  16
ENDBRANCH  13  14
ENDBRANCH   1  13
BRANCH   6  26
HETATM   26  C   UNL     1      39.012 -12.349   1.807  1.00  0.00     0.175 C 
BRANCH  26  27
HETATM   27  C   UNL     1      39.527 -12.229   0.353  1.00  0.00     0.255 C 
BRANCH  27  28
HETATM   28  N   UNL     1      38.783 -13.112  -0.643  1.00  0.00    -0.070 N 
HETATM   29  H   UNL     1      38.064 -13.643  -0.134  1.00  0.00     0.279 HD
HETATM   30  C   UNL     1      38.093 -12.324  -1.745  1.00  0.00     0.235 C 
HETATM   31  C   UNL     1      37.299 -13.273  -2.632  1.00  0.00     0.028 C 
HETATM   32  C   UNL     1      38.192 -14.344  -3.243  1.00  0.00     0.003 C 
HETATM   33  C   UNL     1      38.965 -15.090  -2.162  1.00  0.00     0.028 C 
HETATM   34  C   UNL     1      39.734 -14.139  -1.256  1.00  0.00     0.235 C 
ENDBRANCH  27  28
ENDBRANCH  26  27
ENDBRANCH   6  26
TORSDOF 8
ENDMDL
MODEL 4
REMARK VINA RESULT:      -7.9      3.048      6.148
REMARK  8 active torsions:
REMARK  status: ('A' for Active; 'I' for Inactive)
REMARK    1  A    between atoms: O_2  and  C_3 
REMARK    2  A    between atoms: C_3  and  C_4 
REMARK    3  A    between atoms: C_5  and  C_6 
REMARK    4  A    between atoms: C_6  and  C_7 
REMARK    5  A    between atoms: C_7  and  N_8 
REMARK    6  A    between atoms: N_13  and  C_14 
REMARK    7  A    between atoms: C_14  and  C_15 
REMARK    8  A    between atoms: C_15  and  N_16 
ROOT
HETATM    1  N   UNL     1      42.735 -11.533   5.947  1.00  0.00    -0.174 N 
HETATM    2  C   UNL     1      41.779 -10.648   6.385  1.00  0.00     0.681 C 
HETATM    3  N   UNL     1      40.553 -10.552   5.851  1.00  0.00    -0.234 N 
HETATM    4  H   UNL     1      39.896  -9.831   6.109  1.00  0.00     0.174 HD
HETATM    5  H   UNL     1      40.362 -10.987   4.949  1.00  0.00     0.174 HD
HETATM    6  N   UNL     1      42.218  -9.856   7.455  1.00  0.00    -0.180 N 
HETATM    7  C   UNL     1      43.626 -10.113   7.514  1.00  0.00     0.079 A 
HETATM    8  C   UNL     1      43.932 -11.148   6.614  1.00  0.00     0.079 A 
HETATM    9  C   UNL     1      44.611  -9.474   8.236  1.00  0.00     0.032 A 
HETATM   10  C   UNL     1      45.928  -9.902   8.041  1.00  0.00     0.002 A 
HETATM   11  C   UNL     1      46.231 -10.946   7.144  1.00  0.00     0.002 A 
HETATM   12  C   UNL     1      45.223 -11.584   6.416  1.00  0.00     0.032 A 
ENDROOT
BRANCH   1  13
HETATM   13  C   UNL     1      42.636 -12.504   4.855  1.00  0.00     0.231 C 
BRANCH  13  14
HETATM   14  C   UNL     1      42.024 -13.776   5.397  1.00  0.00     0.179 C 
HETATM   15  O   UNL     1      40.887 -13.810   5.860  1.00  0.00    -0.290 OA
BRANCH  14  16
HETATM   16  C   UNL     1      42.860 -14.996   5.392  1.00  0.00     0.028 A 
HETATM   17  C   UNL     1      42.780 -15.897   4.322  1.00  0.00     0.053 A 
HETATM   18  C   UNL     1      43.622 -17.015   4.286  1.00  0.00     0.018 A 
HETATM   19  C   UNL     1      44.530 -17.232   5.323  1.00  0.00     0.001 A 
HETATM   20  C   UNL     1      44.597 -16.342   6.396  1.00  0.00     0.001 A 
HETATM   21  C   UNL     1      43.767 -15.220   6.434  1.00  0.00     0.016 A 
BRANCH  17  22
HETATM   22  C   UNL     1      41.739 -15.723   3.286  1.00  0.00     0.293 C 
HETATM   23  O   UNL     1      40.597 -16.145   3.426  1.00  0.00    -0.259 OA
BRANCH  22  24
HETATM   24  O   UNL     1      42.270 -15.033   2.258  1.00  0.00    -0.322 OA
HETATM   25  C   UNL     1      41.378 -14.203   1.512  1.00  0.00     0.213 C 
ENDBRANCH  22  24
ENDBRANCH  17  22
ENDBRANCH  14  16
ENDBRANCH  13  14
ENDBRANCH   1  13
BRANCH   6  26
HETATM   26  C   UNL     1      41.491  -8.776   8.136  1.00  0.00     0.175 C 
BRANCH  26  27
HETATM   27  C   UNL     1      40.644  -9.248   9.341  1.00  0.00     0.255 C 
BRANCH  27  28
HETATM   28  N   UNL     1      41.454  -9.500  10.608  1.00  0.00    -0.070 N 
HETATM   29  H   UNL     1      41.987 -10.371  10.485  1.00  0.00     0.279 HD
HETATM   30  C   UNL     1      42.439  -8.385  10.921  1.00  0.00     0.235 C 
HETATM   31  C   UNL     1      43.268  -8.763  12.140  1.00  0.00     0.028 C 
HETATM   32  C   UNL     1      42.387  -9.031  13.353  1.00  0.00     0.003 C 
HETATM   33  C   UNL     1      41.331 -10.083  13.035  1.00  0.00     0.028 C 
HETATM   34  C   UNL     1      40.522  -9.719  11.799  1.00  0.00     0.235 C 
ENDBRANCH  27  28
ENDBRANCH  26  27
ENDBRANCH   6  26
TORSDOF 8
ENDMDL
MODEL 5
REMARK VINA RESULT:      -7.9      2.152      5.919
REMARK  8 active torsions:
REMARK  status: ('A' for Active; 'I' for Inactive)
REMARK    1  A    between atoms: O_2  and  C_3 
REMARK    2  A    between atoms: C_3  and  C_4 
REMARK    3  A    between atoms: C_5  and  C_6 
REMARK    4  A    between atoms: C_6  and  C_7 
REMARK    5  A    between atoms: C_7  and  N_8 
REMARK    6  A    between atoms: N_13  and  C_14 
REMARK    7  A    between atoms: C_14  and  C_15 
REMARK    8  A    between atoms: C_15  and  N_16 
ROOT
HETATM    1  N   UNL     1      42.635 -16.074   2.611  1.00  0.00    -0.174 N 
HETATM    2  C   UNL     1      42.993 -15.268   3.664  1.00  0.00     0.681 C 
HETATM    3  N   UNL     1      42.955 -13.929   3.624  1.00  0.00    -0.234 N 
HETATM    4  H   UNL     1      43.318 -13.346   4.363  1.00  0.00     0.174 HD
HETATM    5  H   UNL     1      42.866 -13.455   2.725  1.00  0.00     0.174 HD
HETATM    6  N   UNL     1      43.400 -15.994   4.792  1.00  0.00    -0.180 N 
HETATM    7  C   UNL     1      43.527 -17.335   4.307  1.00  0.00     0.079 A 
HETATM    8  C   UNL     1      43.039 -17.385   2.990  1.00  0.00     0.079 A 
HETATM    9  C   UNL     1      44.077 -18.445   4.911  1.00  0.00     0.032 A 
HETATM   10  C   UNL     1      44.126 -19.625   4.161  1.00  0.00     0.002 A 
HETATM   11  C   UNL     1      43.628 -19.674   2.844  1.00  0.00     0.002 A 
HETATM   12  C   UNL     1      43.074 -18.541   2.242  1.00  0.00     0.032 A 
ENDROOT
BRANCH   1  13
HETATM   13  C   UNL     1      42.169 -15.671   1.281  1.00  0.00     0.231 C 
BRANCH  13  14
HETATM   14  C   UNL     1      40.684 -15.396   1.355  1.00  0.00     0.179 C 
HETATM   15  O   UNL     1      39.957 -15.941   2.182  1.00  0.00    -0.290 OA
BRANCH  14  16
HETATM   16  C   UNL     1      40.109 -14.464   0.362  1.00  0.00     0.028 A 
HETATM   17  C   UNL     1      40.142 -13.082   0.595  1.00  0.00     0.053 A 
HETATM   18  C   UNL     1      39.660 -12.199  -0.378  1.00  0.00     0.018 A 
HETATM   19  C   UNL     1      39.136 -12.699  -1.571  1.00  0.00     0.001 A 
HETATM   20  C   UNL     1      39.089 -14.076  -1.794  1.00  0.00     0.001 A 
HETATM   21  C   UNL     1      39.577 -14.963  -0.833  1.00  0.00     0.016 A 
BRANCH  17  22
HETATM   22  C   UNL     1      40.591 -12.565   1.904  1.00  0.00     0.293 C 
HETATM   23  O   UNL     1      39.926 -12.696   2.926  1.00  0.00    -0.259 OA
BRANCH  22  24
HETATM   24  O   UNL     1      41.801 -11.994   1.747  1.00  0.00    -0.322 OA
HETATM   25  C   UNL     1      41.960 -10.671   2.262  1.00  0.00     0.213 C 
ENDBRANCH  22  24
ENDBRANCH  17  22
ENDBRANCH  14  16
ENDBRANCH  13  14
ENDBRANCH   1  13
BRANCH   6  26
HETATM   26  C   UNL     1      43.899 -15.470   6.071  1.00  0.00     0.175 C 
BRANCH  26  27
HETATM   27  C   UNL     1      42.795 -14.898   6.992  1.00  0.00     0.255 C 
BRANCH  27  28
HETATM   28  N   UNL     1      42.777 -13.375   7.065  1.00  0.00    -0.070 N 
HETATM   29  H   UNL     1      42.525 -13.098   8.023  1.00  0.00     0.279 HD
HETATM   30  C   UNL     1      44.118 -12.742   6.729  1.00  0.00     0.235 C 
HETATM   31  C   UNL     1      44.034 -11.235   6.921  1.00  0.00     0.028 C 
HETATM   32  C   UNL     1      42.942 -10.622   6.054  1.00  0.00     0.003 C 
HETATM   33  C   UNL     1      41.602 -11.303   6.307  1.00  0.00     0.028 C 
HETATM   34  C   UNL     1      41.693 -12.813   6.146  1.00  0.00     0.235 C 
ENDBRANCH  27  28
ENDBRANCH  26  27
ENDBRANCH   6  26
TORSDOF 8
ENDMDL
MODEL 6
REMARK VINA RESULT:      -7.8      2.921      7.271
REMARK  8 active torsions:
REMARK  status: ('A' for Active; 'I' for Inactive)
REMARK    1  A    between atoms: O_2  and  C_3 
REMARK    2  A    between atoms: C_3  and  C_4 
REMARK    3  A    between atoms: C_5  and  C_6 
REMARK    4  A    between atoms: C_6  and  C_7 
REMARK    5  A    between atoms: C_7  and  N_8 
REMARK    6  A    between atoms: N_13  and  C_14 
REMARK    7  A    between atoms: C_14  and  C_15 
REMARK    8  A    between atoms: C_15  and  N_16 
ROOT
HETATM    1  N   UNL     1      41.038 -13.356   5.641  1.00  0.00    -0.174 N 
HETATM    2  C   UNL     1      41.837 -14.327   6.196  1.00  0.00     0.681 C 
HETATM    3  N   UNL     1      42.624 -14.124   7.262  1.00  0.00    -0.234 N 
HETATM    4  H   UNL     1      43.283 -14.811   7.597  1.00  0.00     0.174 HD
HETATM    5  H   UNL     1      42.823 -13.172   7.566  1.00  0.00     0.174 HD
HETATM    6  N   UNL     1      41.741 -15.558   5.532  1.00  0.00    -0.180 N 
HETATM    7  C   UNL     1      41.011 -15.245   4.340  1.00  0.00     0.079 A 
HETATM    8  C   UNL     1      40.566 -13.915   4.421  1.00  0.00     0.079 A 
HETATM    9  C   UNL     1      40.781 -16.013   3.218  1.00  0.00     0.032 A 
HETATM   10  C   UNL     1      40.083 -15.414   2.164  1.00  0.00     0.002 A 
HETATM   11  C   UNL     1      39.631 -14.082   2.252  1.00  0.00     0.002 A 
HETATM   12  C   UNL     1      39.872 -13.314   3.394  1.00  0.00     0.032 A 
ENDROOT
BRANCH   1  13
HETATM   13  C   UNL     1      40.887 -11.960   6.062  1.00  0.00     0.231 C 
BRANCH  13  14
HETATM   14  C   UNL     1      41.956 -11.135   5.382  1.00  0.00     0.179 C 
HETATM   15  O   UNL     1      41.813 -10.682   4.250  1.00  0.00    -0.290 OA
BRANCH  14  16
HETATM   16  C   UNL     1      43.222 -10.917   6.114  1.00  0.00     0.028 A 
HETATM   17  C   UNL     1      43.256 -10.046   7.211  1.00  0.00     0.053 A 
HETATM   18  C   UNL     1      44.439  -9.894   7.945  1.00  0.00     0.018 A 
HETATM   19  C   UNL     1      45.583 -10.602   7.572  1.00  0.00     0.001 A 
HETATM   20  C   UNL     1      45.551 -11.456   6.468  1.00  0.00     0.001 A 
HETATM   21  C   UNL     1      44.373 -11.620   5.738  1.00  0.00     0.016 A 
BRANCH  17  22
HETATM   22  C   UNL     1      42.077  -9.215   7.532  1.00  0.00     0.293 C 
HETATM   23  O   UNL     1      41.280  -9.518   8.412  1.00  0.00    -0.259 OA
BRANCH  22  24
HETATM   24  O   UNL     1      42.088  -8.130   6.733  1.00  0.00    -0.322 OA
HETATM   25  C   UNL     1      42.074  -6.856   7.378  1.00  0.00     0.213 C 
ENDBRANCH  22  24
ENDBRANCH  17  22
ENDBRANCH  14  16
ENDBRANCH  13  14
ENDBRANCH   1  13
BRANCH   6  26
HETATM   26  C   UNL     1      42.483 -16.794   5.811  1.00  0.00     0.175 C 
BRANCH  26  27
HETATM   27  C   UNL     1      43.879 -16.855   5.147  1.00  0.00     0.255 C 
BRANCH  27  28
HETATM   28  N   UNL     1      44.231 -18.221   4.568  1.00  0.00    -0.070 N 
HETATM   29  H   UNL     1      45.249 -18.262   4.426  1.00  0.00     0.279 HD
HETATM   30  C   UNL     1      43.835 -19.376   5.474  1.00  0.00     0.235 C 
HETATM   31  C   UNL     1      44.308 -20.689   4.865  1.00  0.00     0.028 C 
HETATM   32  C   UNL     1      43.727 -20.900   3.473  1.00  0.00     0.003 C 
HETATM   33  C   UNL     1      44.034 -19.711   2.570  1.00  0.00     0.028 C 
HETATM   34  C   UNL     1      43.588 -18.396   3.192  1.00  0.00     0.235 C 
ENDBRANCH  27  28
ENDBRANCH  26  27
ENDBRANCH   6  26
TORSDOF 8
ENDMDL
MODEL 7
REMARK VINA RESULT:      -7.8      1.313      1.911
REMARK  8 active torsions:
REMARK  status: ('A' for Active; 'I' for Inactive)
REMARK    1  A    between atoms: O_2  and  C_3 
REMARK    2  A    between atoms: C_3  and  C_4 
REMARK    3  A    between atoms: C_5  and  C_6 
REMARK    4  A    between atoms: C_6  and  C_7 
REMARK    5  A    between atoms: C_7  and  N_8 
REMARK    6  A    between atoms: N_13  and  C_14 
REMARK    7  A    between atoms: C_14  and  C_15 
REMARK    8  A    between atoms: C_15  and  N_16 
ROOT
HETATM    1  N   UNL     1      40.429 -14.673   2.552  1.00  0.00    -0.174 N 
HETATM    2  C   UNL     1      40.027 -13.694   3.428  1.00  0.00     0.681 C 
HETATM    3  N   UNL     1      40.020 -13.844   4.761  1.00  0.00    -0.234 N 
HETATM    4  H   UNL     1      39.626 -13.159   5.389  1.00  0.00     0.174 HD
HETATM    5  H   UNL     1      40.107 -14.777   5.162  1.00  0.00     0.174 HD
HETATM    6  N   UNL     1      39.627 -12.515   2.784  1.00  0.00    -0.180 N 
HETATM    7  C   UNL     1      39.554 -12.890   1.403  1.00  0.00     0.079 A 
HETATM    8  C   UNL     1      40.063 -14.192   1.264  1.00  0.00     0.079 A 
HETATM    9  C   UNL     1      39.032 -12.203   0.328  1.00  0.00     0.032 A 
HETATM   10  C   UNL     1      39.035 -12.854  -0.910  1.00  0.00     0.002 A 
HETATM   11  C   UNL     1      39.555 -14.156  -1.049  1.00  0.00     0.002 A 
HETATM   12  C   UNL     1      40.079 -14.843   0.050  1.00  0.00     0.032 A 
ENDROOT
BRANCH   1  13
HETATM   13  C   UNL     1      40.901 -16.025   2.861  1.00  0.00     0.231 C 
BRANCH  13  14
HETATM   14  C   UNL     1      42.401 -15.980   3.045  1.00  0.00     0.179 C 
HETATM   15  O   UNL     1      43.074 -15.009   2.706  1.00  0.00    -0.290 OA
BRANCH  14  16
HETATM   16  C   UNL     1      43.058 -17.173   3.620  1.00  0.00     0.028 A 
HETATM   17  C   UNL     1      43.153 -17.321   5.010  1.00  0.00     0.053 A 
HETATM   18  C   UNL     1      43.713 -18.485   5.551  1.00  0.00     0.018 A 
HETATM   19  C   UNL     1      44.186 -19.487   4.703  1.00  0.00     0.001 A 
HETATM   20  C   UNL     1      44.105 -19.331   3.318  1.00  0.00     0.001 A 
HETATM   21  C   UNL     1      43.539 -18.177   2.771  1.00  0.00     0.016 A 
BRANCH  17  22
HETATM   22  C   UNL     1      42.756 -16.210   5.899  1.00  0.00     0.293 C 
HETATM   23  O   UNL     1      41.617 -16.093   6.337  1.00  0.00    -0.259 OA
BRANCH  22  24
HETATM   24  O   UNL     1      43.836 -15.438   6.128  1.00  0.00    -0.322 OA
HETATM   25  C   UNL     1      43.590 -14.071   6.462  1.00  0.00     0.213 C 
ENDBRANCH  22  24
ENDBRANCH  17  22
ENDBRANCH  14  16
ENDBRANCH  13  14
ENDBRANCH   1  13
BRANCH   6  26
HETATM   26  C   UNL     1      39.091 -11.290   3.393  1.00  0.00     0.175 C 
BRANCH  26  27
HETATM   27  C   UNL     1      40.162 -10.215   3.696  1.00  0.00     0.255 C 
BRANCH  27  28
HETATM   28  N   UNL     1      40.798 -10.347   5.076  1.00  0.00    -0.070 N 
HETATM   29  H   UNL     1      40.559 -11.271   5.458  1.00  0.00     0.279 HD
HETATM   30  C   UNL     1      42.314 -10.226   5.051  1.00  0.00     0.235 C 
HETATM   31  C   UNL     1      42.868 -10.465   6.448  1.00  0.00     0.028 C 
HETATM   32  C   UNL     1      42.287  -9.481   7.455  1.00  0.00     0.003 C 
HETATM   33  C   UNL     1      40.763  -9.519   7.434  1.00  0.00     0.028 C 
HETATM   34  C   UNL     1      40.210  -9.310   6.032  1.00  0.00     0.235 C 
ENDBRANCH  27  28
ENDBRANCH  26  27
ENDBRANCH   6  26
TORSDOF 8
ENDMDL
MODEL 8
REMARK VINA RESULT:      -7.7      2.858      7.444
REMARK  8 active torsions:
REMARK  status: ('A' for Active; 'I' for Inactive)
REMARK    1  A    between atoms: O_2  and  C_3 
REMARK    2  A    between atoms: C_3  and  C_4 
REMARK    3  A    between atoms: C_5  and  C_6 
REMARK    4  A    between atoms: C_6  and  C_7 
REMARK    5  A    between atoms: C_7  and  N_8 
REMARK    6  A    between atoms: N_13  and  C_14 
REMARK    7  A    between atoms: C_14  and  C_15 
REMARK    8  A    between atoms: C_15  and  N_16 
ROOT
HETATM    1  N   UNL     1      41.421 -13.784   4.790  1.00  0.00    -0.174 N 
HETATM    2  C   UNL     1      40.472 -13.935   3.808  1.00  0.00     0.681 C 
HETATM    3  N   UNL     1      39.377 -13.168   3.705  1.00  0.00    -0.234 N 
HETATM    4  H   UNL     1      38.636 -13.353   3.046  1.00  0.00     0.174 HD
HETATM    5  H   UNL     1      39.100 -12.581   4.491  1.00  0.00     0.174 HD
HETATM    6  N   UNL     1      40.769 -14.977   2.918  1.00  0.00    -0.180 N 
HETATM    7  C   UNL     1      41.858 -15.662   3.548  1.00  0.00     0.079 A 
HETATM    8  C   UNL     1      42.266 -14.923   4.670  1.00  0.00     0.079 A 
HETATM    9  C   UNL     1      42.438 -16.873   3.235  1.00  0.00     0.032 A 
HETATM   10  C   UNL     1      43.454 -17.333   4.080  1.00  0.00     0.002 A 
HETATM   11  C   UNL     1      43.867 -16.585   5.200  1.00  0.00     0.002 A 
HETATM   12  C   UNL     1      43.269 -15.360   5.507  1.00  0.00     0.032 A 
ENDROOT
BRANCH   1  13
HETATM   13  C   UNL     1      41.440 -12.812   5.886  1.00  0.00     0.231 C 
BRANCH  13  14
HETATM   14  C   UNL     1      42.163 -11.570   5.415  1.00  0.00     0.179 C 
HETATM   15  O   UNL     1      41.829 -10.963   4.401  1.00  0.00    -0.290 OA
BRANCH  14  16
HETATM   16  C   UNL     1      43.331 -11.117   6.201  1.00  0.00     0.028 A 
HETATM   17  C   UNL     1      43.182 -10.105   7.159  1.00  0.00     0.053 A 
HETATM   18  C   UNL     1      44.274  -9.727   7.949  1.00  0.00     0.018 A 
HETATM   19  C   UNL     1      45.509 -10.350   7.770  1.00  0.00     0.001 A 
HETATM   20  C   UNL     1      45.660 -11.346   6.804  1.00  0.00     0.001 A 
HETATM   21  C   UNL     1      44.573 -11.736   6.018  1.00  0.00     0.016 A 
BRANCH  17  22
HETATM   22  C   UNL     1      41.904  -9.371   7.265  1.00  0.00     0.293 C 
HETATM   23  O   UNL     1      41.009  -9.718   8.028  1.00  0.00    -0.259 OA
BRANCH  22  24
HETATM   24  O   UNL     1      41.948  -8.312   6.434  1.00  0.00    -0.322 OA
HETATM   25  C   UNL     1      41.854  -7.019   7.034  1.00  0.00     0.213 C 
ENDBRANCH  22  24
ENDBRANCH  17  22
ENDBRANCH  14  16
ENDBRANCH  13  14
ENDBRANCH   1  13
BRANCH   6  26
HETATM   26  C   UNL     1      39.962 -15.457   1.789  1.00  0.00     0.175 C 
BRANCH  26  27
HETATM   27  C   UNL     1      40.365 -14.854   0.422  1.00  0.00     0.255 C 
BRANCH  27  28
HETATM   28  N   UNL     1      39.256 -14.057  -0.255  1.00  0.00    -0.070 N 
HETATM   29  H   UNL     1      38.351 -14.379   0.115  1.00  0.00     0.279 HD
HETATM   30  C   UNL     1      39.357 -12.560  -0.011  1.00  0.00     0.235 C 
HETATM   31  C   UNL     1      38.162 -11.857  -0.639  1.00  0.00     0.028 C 
HETATM   32  C   UNL     1      38.075 -12.133  -2.134  1.00  0.00     0.003 C 
HETATM   33  C   UNL     1      38.063 -13.631  -2.410  1.00  0.00     0.028 C 
HETATM   34  C   UNL     1      39.241 -14.339  -1.757  1.00  0.00     0.235 C 
ENDBRANCH  27  28
ENDBRANCH  26  27
ENDBRANCH   6  26
TORSDOF 8
ENDMDL
MODEL 9
REMARK VINA RESULT:      -7.7      2.311      6.091
REMARK  8 active torsions:
REMARK  status: ('A' for Active; 'I' for Inactive)
REMARK    1  A    between atoms: O_2  and  C_3 
REMARK    2  A    between atoms: C_3  and  C_4 
REMARK    3  A    between atoms: C_5  and  C_6 
REMARK    4  A    between atoms: C_6  and  C_7 
REMARK    5  A    between atoms: C_7  and  N_8 
REMARK    6  A    between atoms: N_13  and  C_14 
REMARK    7  A    between atoms: C_14  and  C_15 
REMARK    8  A    between atoms: C_15  and  N_16 
ROOT
HETATM    1  N   UNL     1      42.273 -14.507   2.955  1.00  0.00    -0.174 N 
HETATM    2  C   UNL     1      42.370 -13.572   3.956  1.00  0.00     0.681 C 
HETATM    3  N   UNL     1      42.126 -12.265   3.781  1.00  0.00    -0.234 N 
HETATM    4  H   UNL     1      42.300 -11.573   4.494  1.00  0.00     0.174 HD
HETATM    5  H   UNL     1      42.072 -11.886   2.836  1.00  0.00     0.174 HD
HETATM    6  N   UNL     1      42.748 -14.127   5.187  1.00  0.00    -0.180 N 
HETATM    7  C   UNL     1      43.143 -15.462   4.851  1.00  0.00     0.079 A 
HETATM    8  C   UNL     1      42.831 -15.697   3.501  1.00  0.00     0.079 A 
HETATM    9  C   UNL     1      43.785 -16.412   5.616  1.00  0.00     0.032 A 
HETATM   10  C   UNL     1      44.110 -17.622   4.994  1.00  0.00     0.002 A 
HETATM   11  C   UNL     1      43.789 -17.858   3.643  1.00  0.00     0.002 A 
HETATM   12  C   UNL     1      43.139 -16.886   2.877  1.00  0.00     0.032 A 
ENDROOT
BRANCH   1  13
HETATM   13  C   UNL     1      41.913 -14.295   1.550  1.00  0.00     0.231 C 
BRANCH  13  14
HETATM   14  C   UNL     1      40.423 -14.506   1.399  1.00  0.00     0.179 C 
HETATM   15  O   UNL     1      39.770 -15.165   2.204  1.00  0.00    -0.290 OA
BRANCH  14  16
HETATM   16  C   UNL     1      39.765 -13.920   0.212  1.00  0.00     0.028 A 
HETATM   17  C   UNL     1      39.327 -12.589   0.238  1.00  0.00     0.053 A 
HETATM   18  C   UNL     1      38.766 -12.017  -0.911  1.00  0.00     0.018 A 
HETATM   19  C   UNL     1      38.635 -12.779  -2.072  1.00  0.00     0.001 A 
HETATM   20  C   UNL     1      39.057 -14.109  -2.091  1.00  0.00     0.001 A 
HETATM   21  C   UNL     1      39.626 -14.684  -0.953  1.00  0.00     0.016 A 
BRANCH  17  22
HETATM   22  C   UNL     1      39.363 -11.824   1.502  1.00  0.00     0.293 C 
HETATM   23  O   UNL     1      38.494 -11.932   2.360  1.00  0.00    -0.259 OA
BRANCH  22  24
HETATM   24  O   UNL     1      40.480 -11.071   1.514  1.00  0.00    -0.322 OA
HETATM   25  C   UNL     1      40.309  -9.671   1.741  1.00  0.00     0.213 C 
ENDBRANCH  22  24
ENDBRANCH  17  22
ENDBRANCH  14  16
ENDBRANCH  13  14
ENDBRANCH   1  13
BRANCH   6  26
HETATM   26  C   UNL     1      43.000 -13.427   6.453  1.00  0.00     0.175 C 
BRANCH  26  27
HETATM   27  C   UNL     1      44.389 -12.749   6.534  1.00  0.00     0.255 C 
BRANCH  27  28
HETATM   28  N   UNL     1      44.458 -11.596   7.530  1.00  0.00    -0.070 N 
HETATM   29  H   UNL     1      44.332 -11.976   8.477  1.00  0.00     0.279 HD
HETATM   30  C   UNL     1      45.784 -10.852   7.494  1.00  0.00     0.235 C 
HETATM   31  C   UNL     1      45.801  -9.786   8.580  1.00  0.00     0.028 C 
HETATM   32  C   UNL     1      44.651  -8.802   8.414  1.00  0.00     0.003 C 
HETATM   33  C   UNL     1      43.315  -9.533   8.356  1.00  0.00     0.028 C 
HETATM   34  C   UNL     1      43.308 -10.619   7.291  1.00  0.00     0.235 C 
ENDBRANCH  27  28
ENDBRANCH  26  27
ENDBRANCH   6  26
TORSDOF 8
ENDMDL
MODEL 10
REMARK VINA RESULT:      -7.5      2.208      4.047
REMARK  8 active torsions:
REMARK  status: ('A' for Active; 'I' for Inactive)
REMARK    1  A    between atoms: O_2  and  C_3 
REMARK    2  A    between atoms: C_3  and  C_4 
REMARK    3  A    between atoms: C_5  and  C_6 
REMARK    4  A    between atoms: C_6  and  C_7 
REMARK    5  A    between atoms: C_7  and  N_8 
REMARK    6  A    between atoms: N_13  and  C_14 
REMARK    7  A    between atoms: C_14  and  C_15 
REMARK    8  A    between atoms: C_15  and  N_16 
ROOT
HETATM    1  N   UNL     1      42.203 -12.451   4.715  1.00  0.00    -0.174 N 
HETATM    2  C   UNL     1      42.330 -11.917   5.975  1.00  0.00     0.681 C 
HETATM    3  N   UNL     1      43.158 -12.405   6.910  1.00  0.00    -0.234 N 
HETATM    4  H   UNL     1      43.168 -12.072   7.862  1.00  0.00     0.174 HD
HETATM    5  H   UNL     1      43.565 -13.331   6.787  1.00  0.00     0.174 HD
HETATM    6  N   UNL     1      41.504 -10.804   6.182  1.00  0.00    -0.180 N 
HETATM    7  C   UNL     1      40.636 -10.807   5.043  1.00  0.00     0.079 A 
HETATM    8  C   UNL     1      41.077 -11.793   4.144  1.00  0.00     0.079 A 
HETATM    9  C   UNL     1      39.498 -10.068   4.797  1.00  0.00     0.032 A 
HETATM   10  C   UNL     1      38.804 -10.336   3.612  1.00  0.00     0.002 A 
HETATM   11  C   UNL     1      39.254 -11.319   2.709  1.00  0.00     0.002 A 
HETATM   12  C   UNL     1      40.408 -12.063   2.971  1.00  0.00     0.032 A 
ENDROOT
BRANCH   1  13
HETATM   13  C   UNL     1      42.896 -13.611   4.150  1.00  0.00     0.231 C 
BRANCH  13  14
HETATM   14  C   UNL     1      42.231 -14.867   4.666  1.00  0.00     0.179 C 
HETATM   15  O   UNL     1      41.369 -14.839   5.541  1.00  0.00    -0.290 OA
BRANCH  14  16
HETATM   16  C   UNL     1      42.682 -16.160   4.110  1.00  0.00     0.028 A 
HETATM   17  C   UNL     1      42.163 -16.618   2.891  1.00  0.00     0.053 A 
HETATM   18  C   UNL     1      42.643 -17.810   2.332  1.00  0.00     0.018 A 
HETATM   19  C   UNL     1      43.627 -18.541   2.998  1.00  0.00     0.001 A 
HETATM   20  C   UNL     1      44.131 -18.091   4.219  1.00  0.00     0.001 A 
HETATM   21  C   UNL     1      43.665 -16.900   4.778  1.00  0.00     0.016 A 
BRANCH  17  22
HETATM   22  C   UNL     1      41.042 -15.901   2.249  1.00  0.00     0.293 C 
HETATM   23  O   UNL     1      39.909 -15.901   2.717  1.00  0.00    -0.259 OA
BRANCH  22  24
HETATM   24  O   UNL     1      41.507 -15.276   1.150  1.00  0.00    -0.322 OA
HETATM   25  C   UNL     1      40.536 -14.667   0.298  1.00  0.00     0.213 C 
ENDBRANCH  22  24
ENDBRANCH  17  22
ENDBRANCH  14  16
ENDBRANCH  13  14
ENDBRANCH   1  13
BRANCH   6  26
HETATM   26  C   UNL     1      41.337 -10.020   7.413  1.00  0.00     0.175 C 
BRANCH  26  27
HETATM   27  C   UNL     1      42.157  -8.708   7.441  1.00  0.00     0.255 C 
BRANCH  27  28
HETATM   28  N   UNL     1      43.252  -8.684   8.502  1.00  0.00    -0.070 N 
HETATM   29  H   UNL     1      43.497  -7.704   8.696  1.00  0.00     0.279 HD
HETATM   30  C   UNL     1      42.832  -9.332   9.812  1.00  0.00     0.235 C 
HETATM   31  C   UNL     1      43.945  -9.178  10.839  1.00  0.00     0.028 C 
HETATM   32  C   UNL     1      45.246  -9.799  10.348  1.00  0.00     0.003 C 
HETATM   33  C   UNL     1      45.642  -9.230   8.991  1.00  0.00     0.028 C 
HETATM   34  C   UNL     1      44.518  -9.356   7.973  1.00  0.00     0.235 C 
ENDBRANCH  27  28
ENDBRANCH  26  27
ENDBRANCH   6  26
TORSDOF 8
ENDMDL
