MODEL 1
REMARK VINA RESULT:      -8.5      0.000      0.000
REMARK  8 active torsions:
REMARK  status: ('A' for Active; 'I' for Inactive)
REMARK    1  A    between atoms: C_1  and  C_15 
REMARK    2  A    between atoms: C_2  and  C_11 
REMARK    3  A    between atoms: C_2  and  N_12 
REMARK    4  A    between atoms: C_5  and  C_6 
REMARK    5  A    between atoms: C_6  and  O_7 
REMARK       I    between atoms: N_10  and  C_11 
REMARK    6  A    between atoms: C_16  and  O_17 
REMARK    7  A    between atoms: C_20  and  O_22 
REMARK    8  A    between atoms: C_25  and  O_26 
ROOT
HETATM    1  C           1      41.070 -12.884   4.109  0.00  0.00     0.231 C 
HETATM    2  N           1      41.686 -12.658   2.739  0.00  0.00    -0.054 N 
HETATM    3  C           1      39.746 -12.092   4.250  0.00  0.00     0.055 C 
HETATM    4  C           1      39.702 -10.660   3.698  0.00  0.00     0.065 C 
HETATM    5  C           1      40.419 -10.590   2.344  0.00  0.00     0.066 C 
HETATM    6  C           1      41.816 -11.212   2.310  0.00  0.00     0.239 C 
HETATM    7  C           1      39.102 -12.233   5.649  0.00  0.00     0.010 C 
HETATM    8  C           1      38.815 -10.904   6.365  0.00  0.00     0.001 C 
HETATM    9  C           1      39.974  -9.927   6.159  0.00  0.00     0.003 C 
HETATM   10  C           1      40.175  -9.578   4.676  0.00  0.00     0.038 C 
HETATM   11  H           1      41.009 -13.086   2.065  0.00  0.00     0.281 HD
ENDROOT
BRANCH   2  12
HETATM   12  C           1      42.985 -13.419   2.563  0.00  0.00     0.338 C 
BRANCH  12  13
HETATM   13  C           1      42.721 -14.891   2.285  0.00  0.00     0.248 C 
HETATM   14  N           1      43.375 -15.731   3.137  0.00  0.00    -0.319 N 
HETATM   15  C           1      43.444 -17.073   3.235  0.00  0.00     0.094 A 
HETATM   16  H           1      43.883 -15.291   3.885  0.00  0.00     0.169 HD
HETATM   17  C           1      43.854 -17.760   4.323  0.00  0.00     0.080 A 
HETATM   18  S           1      43.305 -17.945   2.071  0.00  0.00    -0.076 SA
HETATM   19  C           1      43.921 -19.067   4.013  0.00  0.00    -0.030 A 
HETATM   20  C           1      44.301 -20.206   4.924  0.00  0.00     0.050 C 
HETATM   21  C           1      43.594 -19.227   2.720  0.00  0.00    -0.012 A 
HETATM   22  C           1      43.549 -20.540   1.980  0.00  0.00     0.057 C 
HETATM   23  O           1      41.979 -15.239   1.402  0.00  0.00    -0.271 OA
BRANCH  17  24
HETATM   24  C           1      44.143 -17.231   5.553  0.00  0.00     0.296 C 
HETATM   25  O           1      45.070 -16.451   5.647  0.00  0.00    -0.259 OA
BRANCH  24  26
HETATM   26  O           1      43.418 -17.550   6.670  0.00  0.00    -0.322 OA
HETATM   27  C           1      43.890 -17.135   7.929  0.00  0.00     0.213 C 
ENDBRANCH  24  26
ENDBRANCH  17  24
ENDBRANCH  12  13
ENDBRANCH   2  12
BRANCH   1  28
HETATM   28  C           1      42.086 -12.873   5.261  0.00  0.00     0.009 A 
HETATM   29  C           1      42.292 -13.987   6.007  0.00  0.00     0.076 A 
HETATM   30  C           1      43.161 -13.889   7.031  0.00  0.00     0.040 A 
HETATM   31  C           1      43.848 -12.768   7.286  0.00  0.00     0.039 A 
HETATM   32  C           1      43.700 -11.663   6.536  0.00  0.00     0.069 A 
HETATM   33  C           1      42.791 -11.764   5.549  0.00  0.00     0.048 A 
BRANCH  29  34
HETATM   34  O           1      41.568 -15.127   5.750  0.00  0.00    -0.355 OA
HETATM   35  C           1      40.555 -15.522   6.646  0.00  0.00     0.210 C 
ENDBRANCH  29  34
BRANCH  32  36
HETATM   36  O           1      44.420 -10.538   6.859  0.00  0.00    -0.356 OA
HETATM   37  C           1      45.598 -10.678   7.619  0.00  0.00     0.210 C 
ENDBRANCH  32  36
ENDBRANCH   1  28
BRANCH   4  38
HETATM   38  O           1      38.351 -10.376   3.391  0.00  0.00    -0.389 OA
HETATM   39  H           1      38.226 -10.184   2.462  0.00  0.00     0.210 HD
ENDBRANCH   4  38
TORSDOF 8
ENDMDL
MODEL 2
REMARK VINA RESULT:      -7.5      3.547      6.082
REMARK  8 active torsions:
REMARK  status: ('A' for Active; 'I' for Inactive)
REMARK    1  A    between atoms: C_1  and  C_15 
REMARK    2  A    between atoms: C_2  and  C_11 
REMARK    3  A    between atoms: C_2  and  N_12 
REMARK    4  A    between atoms: C_5  and  C_6 
REMARK    5  A    between atoms: C_6  and  O_7 
REMARK       I    between atoms: N_10  and  C_11 
REMARK    6  A    between atoms: C_16  and  O_17 
REMARK    7  A    between atoms: C_20  and  O_22 
REMARK    8  A    between atoms: C_25  and  O_26 
ROOT
HETATM    1  C           1      38.613 -12.181  -0.201  0.00  0.00     0.231 C 
HETATM    2  N           1      39.270 -13.446   0.322  0.00  0.00    -0.054 N 
HETATM    3  C           1      38.275 -12.323  -1.706  0.00  0.00     0.055 C 
HETATM    4  C           1      39.315 -12.992  -2.617  0.00  0.00     0.065 C 
HETATM    5  C           1      39.927 -14.213  -1.919  0.00  0.00     0.066 C 
HETATM    6  C           1      40.432 -13.967  -0.497  0.00  0.00     0.239 C 
HETATM    7  C           1      37.659 -11.041  -2.313  0.00  0.00     0.010 C 
HETATM    8  C           1      38.392 -10.494  -3.549  0.00  0.00     0.001 C 
HETATM    9  C           1      39.906 -10.589  -3.355  0.00  0.00     0.003 C 
HETATM   10  C           1      40.374 -12.044  -3.190  0.00  0.00     0.038 C 
HETATM   11  H           1      38.530 -14.184   0.250  0.00  0.00     0.281 HD
ENDROOT
BRANCH   2  12
HETATM   12  C           1      39.615 -13.346   1.795  0.00  0.00     0.338 C 
BRANCH  12  13
HETATM   13  C           1      40.187 -14.657   2.311  0.00  0.00     0.248 C 
HETATM   14  N           1      41.218 -14.492   3.188  0.00  0.00    -0.319 N 
HETATM   15  C           1      42.010 -15.356   3.852  0.00  0.00     0.094 A 
HETATM   16  H           1      41.427 -13.543   3.449  0.00  0.00     0.169 HD
HETATM   17  C           1      42.760 -15.060   4.935  0.00  0.00     0.080 A 
HETATM   18  S           1      42.333 -16.678   3.320  0.00  0.00    -0.076 SA
HETATM   19  C           1      43.519 -16.127   5.244  0.00  0.00    -0.030 A 
HETATM   20  C           1      44.485 -16.262   6.393  0.00  0.00     0.050 C 
HETATM   21  C           1      43.293 -17.099   4.345  0.00  0.00    -0.012 A 
HETATM   22  C           1      43.949 -18.457   4.336  0.00  0.00     0.057 C 
HETATM   23  O           1      39.728 -15.718   1.972  0.00  0.00    -0.271 OA
BRANCH  17  24
HETATM   24  C           1      42.751 -13.878   5.628  0.00  0.00     0.296 C 
HETATM   25  O           1      41.758 -13.587   6.266  0.00  0.00    -0.259 OA
BRANCH  24  26
HETATM   26  O           1      43.822 -13.026   5.626  0.00  0.00    -0.322 OA
HETATM   27  C           1      44.248 -12.466   6.845  0.00  0.00     0.213 C 
ENDBRANCH  24  26
ENDBRANCH  17  24
ENDBRANCH  12  13
ENDBRANCH   2  12
BRANCH   1  28
HETATM   28  C           1      39.257 -10.884   0.312  0.00  0.00     0.009 A 
HETATM   29  C           1      38.565 -10.049   1.127  0.00  0.00     0.076 A 
HETATM   30  C           1      39.176  -8.907   1.497  0.00  0.00     0.040 A 
HETATM   31  C           1      40.432  -8.614   1.135  0.00  0.00     0.039 A 
HETATM   32  C           1      41.158  -9.443   0.367  0.00  0.00     0.069 A 
HETATM   33  C           1      40.515 -10.555  -0.035  0.00  0.00     0.048 A 
BRANCH  29  34
HETATM   34  O           1      37.270 -10.349   1.476  0.00  0.00    -0.355 OA
HETATM   35  C           1      36.208  -9.664   0.855  0.00  0.00     0.210 C 
ENDBRANCH  29  34
BRANCH  32  36
HETATM   36  O           1      42.435  -9.077   0.015  0.00  0.00    -0.356 OA
HETATM   37  C           1      42.624  -8.290  -1.139  0.00  0.00     0.210 C 
ENDBRANCH  32  36
ENDBRANCH   1  28
BRANCH   4  38
HETATM   38  O           1      38.612 -13.538  -3.717  0.00  0.00    -0.389 OA
HETATM   39  H           1      39.137 -14.175  -4.198  0.00  0.00     0.210 HD
ENDBRANCH   4  38
TORSDOF 8
ENDMDL
MODEL 3
REMARK VINA RESULT:      -7.4      3.638      7.969
REMARK  8 active torsions:
REMARK  status: ('A' for Active; 'I' for Inactive)
REMARK    1  A    between atoms: C_1  and  C_15 
REMARK    2  A    between atoms: C_2  and  C_11 
REMARK    3  A    between atoms: C_2  and  N_12 
REMARK    4  A    between atoms: C_5  and  C_6 
REMARK    5  A    between atoms: C_6  and  O_7 
REMARK       I    between atoms: N_10  and  C_11 
REMARK    6  A    between atoms: C_16  and  O_17 
REMARK    7  A    between atoms: C_20  and  O_22 
REMARK    8  A    between atoms: C_25  and  O_26 
ROOT
HETATM    1  C           1      41.192 -12.752   6.026  0.00  0.00     0.231 C 
HETATM    2  N           1      42.438 -11.933   6.317  0.00  0.00    -0.054 N 
HETATM    3  C           1      41.329 -14.180   6.610  0.00  0.00     0.055 C 
HETATM    4  C           1      42.680 -14.894   6.455  0.00  0.00     0.065 C 
HETATM    5  C           1      43.832 -13.916   6.720  0.00  0.00     0.066 C 
HETATM    6  C           1      43.753 -12.592   5.960  0.00  0.00     0.239 C 
HETATM    7  C           1      40.116 -15.085   6.291  0.00  0.00     0.010 C 
HETATM    8  C           1      40.462 -16.410   5.594  0.00  0.00     0.001 C 
HETATM    9  C           1      41.541 -16.187   4.533  0.00  0.00     0.003 C 
HETATM   10  C           1      42.852 -15.671   5.145  0.00  0.00     0.038 C 
HETATM   11  H           1      42.455 -11.829   7.359  0.00  0.00     0.281 HD
ENDROOT
BRANCH   2  12
HETATM   12  C           1      42.340 -10.526   5.762  0.00  0.00     0.338 C 
BRANCH  12  13
HETATM   13  C           1      41.889  -9.546   6.834  0.00  0.00     0.248 C 
HETATM   14  N           1      42.321  -9.873   8.085  0.00  0.00    -0.319 N 
HETATM   15  C           1      42.140  -9.313   9.298  0.00  0.00     0.094 A 
HETATM   16  H           1      42.941 -10.663   8.145  0.00  0.00     0.169 HD
HETATM   17  C           1      42.896  -9.549  10.391  0.00  0.00     0.080 A 
HETATM   18  S           1      40.936  -8.555   9.630  0.00  0.00    -0.076 SA
HETATM   19  C           1      42.342  -8.925  11.447  0.00  0.00    -0.030 A 
HETATM   20  C           1      42.858  -8.886  12.862  0.00  0.00     0.050 C 
HETATM   21  C           1      41.210  -8.319  11.051  0.00  0.00    -0.012 A 
HETATM   22  C           1      40.290  -7.513  11.933  0.00  0.00     0.057 C 
HETATM   23  O           1      41.234  -8.574   6.558  0.00  0.00    -0.271 OA
BRANCH  17  24
HETATM   24  C           1      44.050 -10.286  10.434  0.00  0.00     0.296 C 
HETATM   25  O           1      44.043 -11.342  11.034  0.00  0.00    -0.259 OA
BRANCH  24  26
HETATM   26  O           1      45.201  -9.870   9.820  0.00  0.00    -0.322 OA
HETATM   27  C           1      45.624 -10.528   8.650  0.00  0.00     0.213 C 
ENDBRANCH  24  26
ENDBRANCH  17  24
ENDBRANCH  12  13
ENDBRANCH   2  12
BRANCH   1  28
HETATM   28  C           1      40.637 -12.564   4.606  0.00  0.00     0.009 A 
HETATM   29  C           1      39.492 -11.865   4.403  0.00  0.00     0.076 A 
HETATM   30  C           1      39.040 -11.783   3.137  0.00  0.00     0.040 A 
HETATM   31  C           1      39.704 -12.310   2.101  0.00  0.00     0.039 A 
HETATM   32  C           1      40.864 -12.967   2.265  0.00  0.00     0.069 A 
HETATM   33  C           1      41.275 -13.083   3.542  0.00  0.00     0.048 A 
BRANCH  29  34
HETATM   34  O           1      38.807 -11.345   5.475  0.00  0.00    -0.355 OA
HETATM   35  C           1      38.343 -10.017   5.422  0.00  0.00     0.210 C 
ENDBRANCH  29  34
BRANCH  32  36
HETATM   36  O           1      41.489 -13.501   1.164  0.00  0.00    -0.356 OA
HETATM   37  C           1      40.792 -14.435   0.372  0.00  0.00     0.210 C 
ENDBRANCH  32  36
ENDBRANCH   1  28
BRANCH   4  38
HETATM   38  O           1      42.775 -15.834   7.508  0.00  0.00    -0.389 OA
HETATM   39  H           1      42.091 -16.501   7.457  0.00  0.00     0.210 HD
ENDBRANCH   4  38
TORSDOF 8
ENDMDL
MODEL 4
REMARK VINA RESULT:      -7.4      3.260      6.154
REMARK  8 active torsions:
REMARK  status: ('A' for Active; 'I' for Inactive)
REMARK    1  A    between atoms: C_1  and  C_15 
REMARK    2  A    between atoms: C_2  and  C_11 
REMARK    3  A    between atoms: C_2  and  N_12 
REMARK    4  A    between atoms: C_5  and  C_6 
REMARK    5  A    between atoms: C_6  and  O_7 
REMARK       I    between atoms: N_10  and  C_11 
REMARK    6  A    between atoms: C_16  and  O_17 
REMARK    7  A    between atoms: C_20  and  O_22 
REMARK    8  A    between atoms: C_25  and  O_26 
ROOT
HETATM    1  C           1      40.588 -10.996   1.038  0.00  0.00     0.231 C 
HETATM    2  N           1      40.869 -11.998   2.145  0.00  0.00    -0.054 N 
HETATM    3  C           1      39.419 -10.059   1.434  0.00  0.00     0.055 C 
HETATM    4  C           1      38.201 -10.682   2.131  0.00  0.00     0.065 C 
HETATM    5  C           1      38.653 -11.714   3.172  0.00  0.00     0.066 C 
HETATM    6  C           1      39.663 -12.748   2.671  0.00  0.00     0.239 C 
HETATM    7  C           1      39.044  -9.054   0.319  0.00  0.00     0.010 C 
HETATM    8  C           1      37.567  -9.081  -0.104  0.00  0.00     0.001 C 
HETATM    9  C           1      37.061 -10.522  -0.180  0.00  0.00     0.003 C 
HETATM   10  C           1      37.127 -11.228   1.183  0.00  0.00     0.038 C 
HETATM   11  H           1      41.208 -11.421   2.952  0.00  0.00     0.281 HD
ENDROOT
BRANCH   2  12
HETATM   12  C           1      42.009 -12.933   1.795  0.00  0.00     0.338 C 
BRANCH  12  13
HETATM   13  C           1      42.713 -13.429   3.049  0.00  0.00     0.248 C 
HETATM   14  N           1      42.602 -14.774   3.240  0.00  0.00    -0.319 N 
HETATM   15  C           1      43.038 -15.607   4.205  0.00  0.00     0.094 A 
HETATM   16  H           1      42.145 -15.287   2.505  0.00  0.00     0.169 HD
HETATM   17  C           1      43.145 -16.948   4.094  0.00  0.00     0.080 A 
HETATM   18  S           1      43.222 -15.166   5.585  0.00  0.00    -0.076 SA
HETATM   19  C           1      43.482 -17.459   5.292  0.00  0.00    -0.030 A 
HETATM   20  C           1      43.739 -18.905   5.632  0.00  0.00     0.050 C 
HETATM   21  C           1      43.557 -16.460   6.187  0.00  0.00    -0.012 A 
HETATM   22  C           1      43.906 -16.612   7.646  0.00  0.00     0.057 C 
HETATM   23  O           1      43.320 -12.674   3.766  0.00  0.00    -0.271 OA
BRANCH  17  24
HETATM   24  C           1      42.960 -17.684   2.953  0.00  0.00     0.296 C 
HETATM   25  O           1      41.919 -17.553   2.339  0.00  0.00    -0.259 OA
BRANCH  24  26
HETATM   26  O           1      43.910 -18.551   2.486  0.00  0.00    -0.322 OA
HETATM   27  C           1      43.521 -19.852   2.114  0.00  0.00     0.213 C 
ENDBRANCH  24  26
ENDBRANCH  17  24
ENDBRANCH  12  13
ENDBRANCH   2  12
BRANCH   1  28
HETATM   28  C           1      40.633 -11.596  -0.375  0.00  0.00     0.009 A 
HETATM   29  C           1      41.441 -11.061  -1.323  0.00  0.00     0.076 A 
HETATM   30  C           1      41.391 -11.609  -2.553  0.00  0.00     0.040 A 
HETATM   31  C           1      40.628 -12.672  -2.835  0.00  0.00     0.039 A 
HETATM   32  C           1      39.853 -13.253  -1.905  0.00  0.00     0.069 A 
HETATM   33  C           1      39.876 -12.662  -0.696  0.00  0.00     0.048 A 
BRANCH  29  34
HETATM   34  O           1      42.205  -9.957  -1.029  0.00  0.00    -0.355 OA
HETATM   35  C           1      42.070  -8.793  -1.808  0.00  0.00     0.210 C 
ENDBRANCH  29  34
BRANCH  32  36
HETATM   36  O           1      39.078 -14.331  -2.261  0.00  0.00    -0.356 OA
HETATM   37  C           1      37.915 -14.110  -3.024  0.00  0.00     0.210 C 
ENDBRANCH  32  36
ENDBRANCH   1  28
BRANCH   4  38
HETATM   38  O           1      37.594  -9.660   2.897  0.00  0.00    -0.389 OA
HETATM   39  H           1      36.928 -10.003   3.491  0.00  0.00     0.210 HD
ENDBRANCH   4  38
TORSDOF 8
ENDMDL
MODEL 5
REMARK VINA RESULT:      -7.3      3.149      7.529
REMARK  8 active torsions:
REMARK  status: ('A' for Active; 'I' for Inactive)
REMARK    1  A    between atoms: C_1  and  C_15 
REMARK    2  A    between atoms: C_2  and  C_11 
REMARK    3  A    between atoms: C_2  and  N_12 
REMARK    4  A    between atoms: C_5  and  C_6 
REMARK    5  A    between atoms: C_6  and  O_7 
REMARK       I    between atoms: N_10  and  C_11 
REMARK    6  A    between atoms: C_16  and  O_17 
REMARK    7  A    between atoms: C_20  and  O_22 
REMARK    8  A    between atoms: C_25  and  O_26 
ROOT
HETATM    1  C           1      41.958 -13.052   3.589  0.00  0.00     0.231 C 
HETATM    2  N           1      40.537 -12.533   3.724  0.00  0.00    -0.054 N 
HETATM    3  C           1      42.169 -13.712   2.203  0.00  0.00     0.055 C 
HETATM    4  C           1      41.048 -14.607   1.655  0.00  0.00     0.065 C 
HETATM    5  C           1      39.678 -13.973   1.926  0.00  0.00     0.066 C 
HETATM    6  C           1      39.443 -13.517   3.367  0.00  0.00     0.239 C 
HETATM    7  C           1      43.581 -14.317   2.028  0.00  0.00     0.010 C 
HETATM    8  C           1      43.604 -15.802   1.632  0.00  0.00     0.001 C 
HETATM    9  C           1      42.538 -16.576   2.409  0.00  0.00     0.003 C 
HETATM   10  C           1      41.120 -16.073   2.098  0.00  0.00     0.038 C 
HETATM   11  H           1      40.461 -11.767   3.013  0.00  0.00     0.281 HD
ENDROOT
BRANCH   2  12
HETATM   12  C           1      40.292 -11.877   5.069  0.00  0.00     0.338 C 
BRANCH  12  13
HETATM   13  C           1      40.735 -10.423   5.055  0.00  0.00     0.248 C 
HETATM   14  N           1      41.113  -9.957   6.280  0.00  0.00    -0.319 N 
HETATM   15  C           1      41.540  -8.757   6.718  0.00  0.00     0.094 A 
HETATM   16  H           1      41.131 -10.636   7.022  0.00  0.00     0.169 HD
HETATM   17  C           1      42.193  -8.533   7.878  0.00  0.00     0.080 A 
HETATM   18  S           1      41.124  -7.507   6.085  0.00  0.00    -0.076 SA
HETATM   19  C           1      42.340  -7.206   8.046  0.00  0.00    -0.030 A 
HETATM   20  C           1      43.034  -6.497   9.181  0.00  0.00     0.050 C 
HETATM   21  C           1      41.750  -6.568   7.021  0.00  0.00    -0.012 A 
HETATM   22  C           1      41.689  -5.073   6.835  0.00  0.00     0.057 C 
HETATM   23  O           1      40.759  -9.784   4.034  0.00  0.00    -0.271 OA
BRANCH  17  24
HETATM   24  C           1      42.655  -9.487   8.745  0.00  0.00     0.296 C 
HETATM   25  O           1      43.537 -10.235   8.371  0.00  0.00    -0.259 OA
BRANCH  24  26
HETATM   26  O           1      42.157  -9.618  10.014  0.00  0.00    -0.322 OA
HETATM   27  C           1      43.039  -9.948  11.060  0.00  0.00     0.213 C 
ENDBRANCH  24  26
ENDBRANCH  17  24
ENDBRANCH  12  13
ENDBRANCH   2  12
BRANCH   1  28
HETATM   28  C           1      42.492 -13.749   4.849  0.00  0.00     0.009 A 
HETATM   29  C           1      43.323 -13.093   5.697  0.00  0.00     0.076 A 
HETATM   30  C           1      43.790 -13.784   6.755  0.00  0.00     0.040 A 
HETATM   31  C           1      43.419 -15.044   7.011  0.00  0.00     0.039 A 
HETATM   32  C           1      42.561 -15.704   6.216  0.00  0.00     0.069 A 
HETATM   33  C           1      42.144 -15.016   5.136  0.00  0.00     0.048 A 
BRANCH  29  34
HETATM   34  O           1      43.714 -11.806   5.415  0.00  0.00    -0.355 OA
HETATM   35  C           1      45.066 -11.444   5.564  0.00  0.00     0.210 C 
ENDBRANCH  29  34
BRANCH  32  36
HETATM   36  O           1      42.232 -17.003   6.522  0.00  0.00    -0.356 OA
HETATM   37  C           1      43.256 -17.969   6.574  0.00  0.00     0.210 C 
ENDBRANCH  32  36
ENDBRANCH   1  28
BRANCH   4  38
HETATM   38  O           1      41.162 -14.597   0.245  0.00  0.00    -0.389 OA
HETATM   39  H           1      40.611 -15.262  -0.165  0.00  0.00     0.210 HD
ENDBRANCH   4  38
TORSDOF 8
ENDMDL
MODEL 6
REMARK VINA RESULT:      -7.3      4.883      7.298
REMARK  8 active torsions:
REMARK  status: ('A' for Active; 'I' for Inactive)
REMARK    1  A    between atoms: C_1  and  C_15 
REMARK    2  A    between atoms: C_2  and  C_11 
REMARK    3  A    between atoms: C_2  and  N_12 
REMARK    4  A    between atoms: C_5  and  C_6 
REMARK    5  A    between atoms: C_6  and  O_7 
REMARK       I    between atoms: N_10  and  C_11 
REMARK    6  A    between atoms: C_16  and  O_17 
REMARK    7  A    between atoms: C_20  and  O_22 
REMARK    8  A    between atoms: C_25  and  O_26 
ROOT
HETATM    1  C           1      41.600  -9.387  10.333  0.00  0.00     0.231 C 
HETATM    2  N           1      40.514  -9.898   9.402  0.00  0.00    -0.054 N 
HETATM    3  C           1      41.421  -9.973  11.755  0.00  0.00     0.055 C 
HETATM    4  C           1      39.998 -10.052  12.327  0.00  0.00     0.065 C 
HETATM    5  C           1      39.015 -10.523  11.248  0.00  0.00     0.066 C 
HETATM    6  C           1      39.096  -9.772   9.918  0.00  0.00     0.239 C 
HETATM    7  C           1      42.462  -9.440  12.767  0.00  0.00     0.010 C 
HETATM    8  C           1      41.867  -8.803  14.032  0.00  0.00     0.001 C 
HETATM    9  C           1      40.649  -7.948  13.676  0.00  0.00     0.003 C 
HETATM   10  C           1      39.523  -8.785  13.049  0.00  0.00     0.038 C 
HETATM   11  H           1      40.688 -10.929   9.325  0.00  0.00     0.281 HD
ENDROOT
BRANCH   2  12
HETATM   12  C           1      40.657  -9.347   7.997  0.00  0.00     0.338 C 
BRANCH  12  13
HETATM   13  C           1      40.347 -10.413   6.958  0.00  0.00     0.248 C 
HETATM   14  N           1      41.375 -11.285   6.750  0.00  0.00    -0.319 N 
HETATM   15  C           1      41.537 -12.338   5.926  0.00  0.00     0.094 A 
HETATM   16  H           1      42.175 -11.174   7.351  0.00  0.00     0.169 HD
HETATM   17  C           1      42.468 -13.306   6.064  0.00  0.00     0.080 A 
HETATM   18  S           1      40.863 -12.422   4.632  0.00  0.00    -0.076 SA
HETATM   19  C           1      42.421 -14.113   4.988  0.00  0.00    -0.030 A 
HETATM   20  C           1      43.254 -15.341   4.727  0.00  0.00     0.050 C 
HETATM   21  C           1      41.491 -13.650   4.136  0.00  0.00    -0.012 A 
HETATM   22  C           1      41.129 -14.269   2.809  0.00  0.00     0.057 C 
HETATM   23  O           1      39.275 -10.463   6.412  0.00  0.00    -0.271 OA
BRANCH  17  24
HETATM   24  C           1      43.319 -13.466   7.126  0.00  0.00     0.296 C 
HETATM   25  O           1      43.303 -14.521   7.728  0.00  0.00    -0.259 OA
BRANCH  24  26
HETATM   26  O           1      44.183 -12.480   7.520  0.00  0.00    -0.322 OA
HETATM   27  C           1      45.083 -11.947   6.577  0.00  0.00     0.213 C 
ENDBRANCH  24  26
ENDBRANCH  17  24
ENDBRANCH  12  13
ENDBRANCH   2  12
BRANCH   1  28
HETATM   28  C           1      41.917  -7.894  10.163  0.00  0.00     0.009 A 
HETATM   29  C           1      43.168  -7.490   9.830  0.00  0.00     0.076 A 
HETATM   30  C           1      43.384  -6.163   9.746  0.00  0.00     0.040 A 
HETATM   31  C           1      42.408  -5.264   9.924  0.00  0.00     0.039 A 
HETATM   32  C           1      41.148  -5.635  10.209  0.00  0.00     0.069 A 
HETATM   33  C           1      40.962  -6.962  10.338  0.00  0.00     0.048 A 
BRANCH  29  34
HETATM   34  O           1      44.168  -8.420   9.669  0.00  0.00    -0.355 OA
HETATM   35  C           1      44.993  -8.359   8.530  0.00  0.00     0.210 C 
ENDBRANCH  29  34
BRANCH  32  36
HETATM   36  O           1      40.194  -4.664  10.398  0.00  0.00    -0.356 OA
HETATM   37  C           1      38.835  -5.035  10.389  0.00  0.00     0.210 C 
ENDBRANCH  32  36
ENDBRANCH   1  28
BRANCH   4  38
HETATM   38  O           1      39.991 -11.096  13.281  0.00  0.00    -0.389 OA
HETATM   39  H           1      40.667 -11.749  13.104  0.00  0.00     0.210 HD
ENDBRANCH   4  38
TORSDOF 8
ENDMDL
MODEL 7
REMARK VINA RESULT:      -7.1      3.319      8.057
REMARK  8 active torsions:
REMARK  status: ('A' for Active; 'I' for Inactive)
REMARK    1  A    between atoms: C_1  and  C_15 
REMARK    2  A    between atoms: C_2  and  C_11 
REMARK    3  A    between atoms: C_2  and  N_12 
REMARK    4  A    between atoms: C_5  and  C_6 
REMARK    5  A    between atoms: C_6  and  O_7 
REMARK       I    between atoms: N_10  and  C_11 
REMARK    6  A    between atoms: C_16  and  O_17 
REMARK    7  A    between atoms: C_20  and  O_22 
REMARK    8  A    between atoms: C_25  and  O_26 
ROOT
HETATM    1  C           1      41.490 -12.862   5.298  0.00  0.00     0.231 C 
HETATM    2  N           1      42.459 -11.702   5.447  0.00  0.00    -0.054 N 
HETATM    3  C           1      41.689 -13.889   6.441  0.00  0.00     0.055 C 
HETATM    4  C           1      43.126 -14.236   6.856  0.00  0.00     0.065 C 
HETATM    5  C           1      43.988 -12.968   6.898  0.00  0.00     0.066 C 
HETATM    6  C           1      43.910 -12.083   5.652  0.00  0.00     0.239 C 
HETATM    7  C           1      40.771 -15.128   6.309  0.00  0.00     0.010 C 
HETATM    8  C           1      41.503 -16.478   6.309  0.00  0.00     0.001 C 
HETATM    9  C           1      42.782 -16.390   5.475  0.00  0.00     0.003 C 
HETATM   10  C           1      43.774 -15.367   6.049  0.00  0.00     0.038 C 
HETATM   11  H           1      42.172 -11.223   6.334  0.00  0.00     0.281 HD
ENDROOT
BRANCH   2  12
HETATM   12  C           1      42.294 -10.673   4.347  0.00  0.00     0.338 C 
BRANCH  12  13
HETATM   13  C           1      41.814  -9.344   4.910  0.00  0.00     0.248 C 
HETATM   14  N           1      42.272  -9.089   6.168  0.00  0.00    -0.319 N 
HETATM   15  C           1      42.081  -8.071   7.030  0.00  0.00     0.094 A 
HETATM   16  H           1      42.925  -9.757   6.543  0.00  0.00     0.169 HD
HETATM   17  C           1      42.858  -7.792   8.098  0.00  0.00     0.080 A 
HETATM   18  S           1      40.850  -7.284   7.040  0.00  0.00    -0.076 SA
HETATM   19  C           1      42.290  -6.795   8.801  0.00  0.00    -0.030 A 
HETATM   20  C           1      42.819  -6.136  10.049  0.00  0.00     0.050 C 
HETATM   21  C           1      41.130  -6.454   8.215  0.00  0.00    -0.012 A 
HETATM   22  C           1      40.187  -5.379   8.693  0.00  0.00     0.057 C 
HETATM   23  O           1      41.117  -8.605   4.263  0.00  0.00    -0.271 OA
BRANCH  17  24
HETATM   24  C           1      44.042  -8.400   8.420  0.00  0.00     0.296 C 
HETATM   25  O           1      45.060  -7.737   8.400  0.00  0.00    -0.259 OA
BRANCH  24  26
HETATM   26  O           1      44.109  -9.723   8.766  0.00  0.00    -0.322 OA
HETATM   27  C           1      43.978 -10.079  10.122  0.00  0.00     0.213 C 
ENDBRANCH  24  26
ENDBRANCH  17  24
ENDBRANCH  12  13
ENDBRANCH   2  12
BRANCH   1  28
HETATM   28  C           1      41.325 -13.357   3.854  0.00  0.00     0.009 A 
HETATM   29  C           1      40.207 -13.056   3.148  0.00  0.00     0.076 A 
HETATM   30  C           1      40.110 -13.565   1.904  0.00  0.00     0.040 A 
HETATM   31  C           1      41.086 -14.293   1.348  0.00  0.00     0.039 A 
HETATM   32  C           1      42.225 -14.569   2.005  0.00  0.00     0.069 A 
HETATM   33  C           1      42.283 -14.094   3.264  0.00  0.00     0.048 A 
BRANCH  29  34
HETATM   34  O           1      39.202 -12.325   3.735  0.00  0.00    -0.355 OA
HETATM   35  C           1      38.782 -11.120   3.139  0.00  0.00     0.210 C 
ENDBRANCH  29  34
BRANCH  32  36
HETATM   36  O           1      43.182 -15.336   1.387  0.00  0.00    -0.356 OA
HETATM   37  C           1      43.371 -16.665   1.816  0.00  0.00     0.210 C 
ENDBRANCH  32  36
ENDBRANCH   1  28
BRANCH   4  38
HETATM   38  O           1      43.076 -14.666   8.202  0.00  0.00    -0.389 OA
HETATM   39  H           1      43.928 -14.604   8.631  0.00  0.00     0.210 HD
ENDBRANCH   4  38
TORSDOF 8
ENDMDL
MODEL 8
REMARK VINA RESULT:      -7.0      2.606      6.021
REMARK  8 active torsions:
REMARK  status: ('A' for Active; 'I' for Inactive)
REMARK    1  A    between atoms: C_1  and  C_15 
REMARK    2  A    between atoms: C_2  and  C_11 
REMARK    3  A    between atoms: C_2  and  N_12 
REMARK    4  A    between atoms: C_5  and  C_6 
REMARK    5  A    between atoms: C_6  and  O_7 
REMARK       I    between atoms: N_10  and  C_11 
REMARK    6  A    between atoms: C_16  and  O_17 
REMARK    7  A    between atoms: C_20  and  O_22 
REMARK    8  A    between atoms: C_25  and  O_26 
ROOT
HETATM    1  C           1      42.103 -13.901   4.908  0.00  0.00     0.231 C 
HETATM    2  N           1      40.638 -13.622   5.195  0.00  0.00    -0.054 N 
HETATM    3  C           1      42.414 -15.409   5.069  0.00  0.00     0.055 C 
HETATM    4  C           1      41.788 -16.149   6.260  0.00  0.00     0.065 C 
HETATM    5  C           1      40.331 -15.711   6.454  0.00  0.00     0.066 C 
HETATM    6  C           1      40.102 -14.199   6.488  0.00  0.00     0.239 C 
HETATM    7  C           1      43.907 -15.747   4.850  0.00  0.00     0.010 C 
HETATM    8  C           1      44.576 -16.502   6.010  0.00  0.00     0.001 C 
HETATM    9  C           1      44.117 -15.929   7.352  0.00  0.00     0.003 C 
HETATM   10  C           1      42.602 -16.087   7.558  0.00  0.00     0.038 C 
HETATM   11  H           1      40.114 -14.118   4.435  0.00  0.00     0.281 HD
ENDROOT
BRANCH   2  12
HETATM   12  C           1      40.294 -12.153   5.045  0.00  0.00     0.338 C 
BRANCH  12  13
HETATM   13  C           1      39.555 -11.896   3.741  0.00  0.00     0.248 C 
HETATM   14  N           1      39.945 -12.716   2.724  0.00  0.00    -0.319 N 
HETATM   15  C           1      39.583 -12.817   1.430  0.00  0.00     0.094 A 
HETATM   16  H           1      40.606 -13.435   2.966  0.00  0.00     0.169 HD
HETATM   17  C           1      39.804 -13.884   0.634  0.00  0.00     0.080 A 
HETATM   18  S           1      39.111 -11.665   0.665  0.00  0.00    -0.076 SA
HETATM   19  C           1      39.429 -13.577  -0.621  0.00  0.00    -0.030 A 
HETATM   20  C           1      39.467 -14.471  -1.834  0.00  0.00     0.050 C 
HETATM   21  C           1      39.003 -12.303  -0.650  0.00  0.00    -0.012 A 
HETATM   22  C           1      38.498 -11.573  -1.869  0.00  0.00     0.057 C 
HETATM   23  O           1      38.696 -11.055   3.662  0.00  0.00    -0.271 OA
BRANCH  17  24
HETATM   24  C           1      40.310 -15.095   1.026  0.00  0.00     0.296 C 
HETATM   25  O           1      39.588 -15.855   1.640  0.00  0.00    -0.259 OA
BRANCH  24  26
HETATM   26  O           1      41.595 -15.472   0.742  0.00  0.00    -0.322 OA
HETATM   27  C           1      42.652 -14.883   1.462  0.00  0.00     0.213 C 
ENDBRANCH  24  26
ENDBRANCH  17  24
ENDBRANCH  12  13
ENDBRANCH   2  12
BRANCH   1  28
HETATM   28  C           1      43.065 -12.860   5.501  0.00  0.00     0.009 A 
HETATM   29  C           1      43.792 -12.054   4.687  0.00  0.00     0.076 A 
HETATM   30  C           1      44.650 -11.200   5.278  0.00  0.00     0.040 A 
HETATM   31  C           1      44.758 -11.094   6.608  0.00  0.00     0.039 A 
HETATM   32  C           1      44.018 -11.846   7.439  0.00  0.00     0.069 A 
HETATM   33  C           1      43.202 -12.729   6.833  0.00  0.00     0.048 A 
BRANCH  29  34
HETATM   34  O           1      43.688 -12.184   3.323  0.00  0.00    -0.355 OA
HETATM   35  C           1      42.905 -11.267   2.597  0.00  0.00     0.210 C 
ENDBRANCH  29  34
BRANCH  32  36
HETATM   36  O           1      44.188 -11.704   8.796  0.00  0.00    -0.356 OA
HETATM   37  C           1      44.175 -10.409   9.351  0.00  0.00     0.210 C 
ENDBRANCH  32  36
ENDBRANCH   1  28
BRANCH   4  38
HETATM   38  O           1      41.694 -17.513   5.898  0.00  0.00    -0.389 OA
HETATM   39  H           1      42.554 -17.926   5.824  0.00  0.00     0.210 HD
ENDBRANCH   4  38
TORSDOF 8
ENDMDL
MODEL 9
REMARK VINA RESULT:      -6.8      5.626      8.839
REMARK  8 active torsions:
REMARK  status: ('A' for Active; 'I' for Inactive)
REMARK    1  A    between atoms: C_1  and  C_15 
REMARK    2  A    between atoms: C_2  and  C_11 
REMARK    3  A    between atoms: C_2  and  N_12 
REMARK    4  A    between atoms: C_5  and  C_6 
REMARK    5  A    between atoms: C_6  and  O_7 
REMARK       I    between atoms: N_10  and  C_11 
REMARK    6  A    between atoms: C_16  and  O_17 
REMARK    7  A    between atoms: C_20  and  O_22 
REMARK    8  A    between atoms: C_25  and  O_26 
ROOT
HETATM    1  C           1      41.388  -8.404  10.730  0.00  0.00     0.231 C 
HETATM    2  N           1      40.440  -9.549  10.417  0.00  0.00    -0.054 N 
HETATM    3  C           1      42.227  -8.719  11.993  0.00  0.00     0.055 C 
HETATM    4  C           1      41.515  -9.374  13.185  0.00  0.00     0.065 C 
HETATM    5  C           1      40.551 -10.462  12.696  0.00  0.00     0.066 C 
HETATM    6  C           1      39.599 -10.037  11.577  0.00  0.00     0.239 C 
HETATM    7  C           1      43.170  -7.561  12.399  0.00  0.00     0.010 C 
HETATM    8  C           1      43.004  -7.070  13.846  0.00  0.00     0.001 C 
HETATM    9  C           1      41.521  -7.009  14.220  0.00  0.00     0.003 C 
HETATM   10  C           1      40.855  -8.392  14.160  0.00  0.00     0.038 C 
HETATM   11  H           1      41.063 -10.354  10.169  0.00  0.00     0.281 HD
ENDROOT
BRANCH   2  12
HETATM   12  C           1      39.602  -9.278   9.184  0.00  0.00     0.338 C 
BRANCH  12  13
HETATM   13  C           1      40.151 -10.021   7.976  0.00  0.00     0.248 C 
HETATM   14  N           1      41.513 -10.037   7.921  0.00  0.00    -0.319 N 
HETATM   15  C           1      42.394 -10.547   7.037  0.00  0.00     0.094 A 
HETATM   16  H           1      41.991  -9.633   8.708  0.00  0.00     0.169 HD
HETATM   17  C           1      43.701 -10.781   7.279  0.00  0.00     0.080 A 
HETATM   18  S           1      42.076 -10.685   5.617  0.00  0.00    -0.076 SA
HETATM   19  C           1      44.295 -11.161   6.133  0.00  0.00    -0.030 A 
HETATM   20  C           1      45.736 -11.553   5.934  0.00  0.00     0.050 C 
HETATM   21  C           1      43.387 -11.138   5.142  0.00  0.00    -0.012 A 
HETATM   22  C           1      43.650 -11.495   3.701  0.00  0.00     0.057 C 
HETATM   23  O           1      39.418 -10.552   7.181  0.00  0.00    -0.271 OA
BRANCH  17  24
HETATM   24  C           1      44.334 -10.670   8.489  0.00  0.00     0.296 C 
HETATM   25  O           1      43.928 -11.339   9.419  0.00  0.00    -0.259 OA
BRANCH  24  26
HETATM   26  O           1      45.404  -9.838   8.676  0.00  0.00    -0.322 OA
HETATM   27  C           1      45.205  -8.447   8.600  0.00  0.00     0.213 C 
ENDBRANCH  24  26
ENDBRANCH  17  24
ENDBRANCH  12  13
ENDBRANCH   2  12
BRANCH   1  28
HETATM   28  C           1      40.763  -7.011  10.563  0.00  0.00     0.009 A 
HETATM   29  C           1      41.210  -6.167   9.600  0.00  0.00     0.076 A 
HETATM   30  C           1      40.648  -4.944   9.545  0.00  0.00     0.040 A 
HETATM   31  C           1      39.650  -4.575  10.358  0.00  0.00     0.039 A 
HETATM   32  C           1      39.154  -5.405  11.290  0.00  0.00     0.069 A 
HETATM   33  C           1      39.762  -6.604  11.365  0.00  0.00     0.048 A 
BRANCH  29  34
HETATM   34  O           1      42.248  -6.549   8.783  0.00  0.00    -0.355 OA
HETATM   35  C           1      42.077  -6.521   7.386  0.00  0.00     0.210 C 
ENDBRANCH  29  34
BRANCH  32  36
HETATM   36  O           1      38.142  -4.961  12.107  0.00  0.00    -0.356 OA
HETATM   37  C           1      37.498  -5.884  12.955  0.00  0.00     0.210 C 
ENDBRANCH  32  36
ENDBRANCH   1  28
BRANCH   4  38
HETATM   38  O           1      42.496 -10.083  13.916  0.00  0.00    -0.389 OA
HETATM   39  H           1      42.567  -9.774  14.818  0.00  0.00     0.210 HD
ENDBRANCH   4  38
TORSDOF 8
ENDMDL
MODEL 10
REMARK VINA RESULT:      -6.8      3.306      7.994
REMARK  8 active torsions:
REMARK  status: ('A' for Active; 'I' for Inactive)
REMARK    1  A    between atoms: C_1  and  C_15 
REMARK    2  A    between atoms: C_2  and  C_11 
REMARK    3  A    between atoms: C_2  and  N_12 
REMARK    4  A    between atoms: C_5  and  C_6 
REMARK    5  A    between atoms: C_6  and  O_7 
REMARK       I    between atoms: N_10  and  C_11 
REMARK    6  A    between atoms: C_16  and  O_17 
REMARK    7  A    between atoms: C_20  and  O_22 
REMARK    8  A    between atoms: C_25  and  O_26 
ROOT
HETATM    1  C           1      41.938 -13.106   3.595  0.00  0.00     0.231 C 
HETATM    2  N           1      40.507 -12.629   3.775  0.00  0.00    -0.054 N 
HETATM    3  C           1      42.138 -13.712   2.183  0.00  0.00     0.055 C 
HETATM    4  C           1      41.030 -14.616   1.625  0.00  0.00     0.065 C 
HETATM    5  C           1      39.650 -14.027   1.944  0.00  0.00     0.066 C 
HETATM    6  C           1      39.432 -13.629   3.405  0.00  0.00     0.239 C 
HETATM    7  C           1      43.562 -14.273   1.960  0.00  0.00     0.010 C 
HETATM    8  C           1      43.615 -15.742   1.511  0.00  0.00     0.001 C 
HETATM    9  C           1      42.584 -16.571   2.281  0.00  0.00     0.003 C 
HETATM   10  C           1      41.148 -16.094   2.014  0.00  0.00     0.038 C 
HETATM   11  H           1      40.397 -11.841   3.094  0.00  0.00     0.281 HD
ENDROOT
BRANCH   2  12
HETATM   12  C           1      40.273 -12.028   5.147  0.00  0.00     0.338 C 
BRANCH  12  13
HETATM   13  C           1      39.969 -10.541   5.046  0.00  0.00     0.248 C 
HETATM   14  N           1      39.662  -9.966   6.243  0.00  0.00    -0.319 N 
HETATM   15  C           1      39.314  -8.715   6.602  0.00  0.00     0.094 A 
HETATM   16  H           1      39.747 -10.559   7.051  0.00  0.00     0.169 HD
HETATM   17  C           1      39.368  -8.215   7.855  0.00  0.00     0.080 A 
HETATM   18  S           1      38.602  -7.817   5.696  0.00  0.00    -0.076 SA
HETATM   19  C           1      38.819  -6.986   7.858  0.00  0.00    -0.030 A 
HETATM   20  C           1      38.691  -6.043   9.026  0.00  0.00     0.050 C 
HETATM   21  C           1      38.376  -6.703   6.622  0.00  0.00    -0.012 A 
HETATM   22  C           1      37.694  -5.425   6.204  0.00  0.00     0.057 C 
HETATM   23  O           1      40.028  -9.960   3.992  0.00  0.00    -0.271 OA
BRANCH  17  24
HETATM   24  C           1      39.905  -8.835   8.953  0.00  0.00     0.296 C 
HETATM   25  O           1      41.103  -9.039   8.976  0.00  0.00    -0.259 OA
BRANCH  24  26
HETATM   26  O           1      39.137  -9.223  10.016  0.00  0.00    -0.322 OA
HETATM   27  C           1      39.762  -9.830  11.122  0.00  0.00     0.213 C 
ENDBRANCH  24  26
ENDBRANCH  17  24
ENDBRANCH  12  13
ENDBRANCH   2  12
BRANCH   1  28
HETATM   28  C           1      42.514 -13.832   4.820  0.00  0.00     0.009 A 
HETATM   29  C           1      43.380 -13.199   5.650  0.00  0.00     0.076 A 
HETATM   30  C           1      43.882 -13.914   6.675  0.00  0.00     0.040 A 
HETATM   31  C           1      43.514 -15.178   6.917  0.00  0.00     0.039 A 
HETATM   32  C           1      42.623 -15.817   6.141  0.00  0.00     0.069 A 
HETATM   33  C           1      42.170 -15.104   5.092  0.00  0.00     0.048 A 
BRANCH  29  34
HETATM   34  O           1      43.767 -11.908   5.380  0.00  0.00    -0.355 OA
HETATM   35  C           1      43.561 -10.907   6.348  0.00  0.00     0.210 C 
ENDBRANCH  29  34
BRANCH  32  36
HETATM   36  O           1      42.299 -17.120   6.431  0.00  0.00    -0.356 OA
HETATM   37  C           1      43.280 -18.118   6.268  0.00  0.00     0.210 C 
ENDBRANCH  32  36
ENDBRANCH   1  28
BRANCH   4  38
HETATM   38  O           1      41.115 -14.553   0.214  0.00  0.00    -0.389 OA
HETATM   39  H           1      41.961 -14.861  -0.109  0.00  0.00     0.210 HD
ENDBRANCH   4  38
TORSDOF 8
ENDMDL
