MODEL 1
REMARK VINA RESULT:      -9.3      0.000      0.000
REMARK  8 active torsions:
REMARK  status: ('A' for Active; 'I' for Inactive)
REMARK    1  A    between atoms: C_2  and  C_3 
REMARK    2  A    between atoms: C_3  and  O_4 
REMARK    3  A    between atoms: O_4  and  C_5 
REMARK    4  A    between atoms: C_7  and  C_8 
REMARK       I    between atoms: C_8  and  N_9 
REMARK    5  A    between atoms: N_9  and  C_10 
REMARK    6  A    between atoms: N_11  and  C_12 
REMARK    7  A    between atoms: C_14  and  C_15 
REMARK    8  A    between atoms: C_24  and  O_25 
ROOT
HETATM    1  C   UNL     1      43.866 -12.332   6.824  1.00  0.00     0.035 A 
HETATM    2  C   UNL     1      44.094 -13.641   6.391  1.00  0.00     0.046 A 
HETATM    3  C   UNL     1      43.104 -14.369   5.700  1.00  0.00     0.036 A 
HETATM    4  C   UNL     1      41.862 -13.737   5.477  1.00  0.00     0.084 A 
HETATM    5  C   UNL     1      41.595 -12.444   5.949  1.00  0.00    -0.026 A 
HETATM    6  C   UNL     1      40.274 -11.778   5.686  1.00  0.00     0.051 C 
HETATM    7  C   UNL     1      42.609 -11.752   6.622  1.00  0.00     0.039 A 
ENDROOT
BRANCH   1   8
HETATM    8  N   UNL     1      44.817 -11.564   7.529  1.00  0.00    -0.333 N 
HETATM    9  C   UNL     1      44.667 -10.469   8.306  1.00  0.00     0.179 C 
HETATM   10  S   UNL     1      45.877  -9.310   8.308  1.00  0.00    -0.040 SA
HETATM   11  H   UNL     1      45.780 -11.743   7.262  1.00  0.00     0.168 HD
BRANCH   9  12
HETATM   12  N   UNL     1      43.616 -10.283   9.153  1.00  0.00    -0.299 N 
HETATM   13  C   UNL     1      43.525 -10.521  10.521  1.00  0.00     0.257 C 
HETATM   14  O   UNL     1      44.274 -11.190  11.218  1.00  0.00    -0.267 OA
HETATM   15  H   UNL     1      42.954  -9.612   8.787  1.00  0.00     0.171 HD
BRANCH  13  16
HETATM   16  C   UNL     1      42.341  -9.908  11.161  1.00  0.00     0.035 A 
HETATM   17  C   UNL     1      42.295  -9.721  12.547  1.00  0.00     0.053 A 
HETATM   18  C   UNL     1      41.134  -9.200  13.116  1.00  0.00     0.069 A 
HETATM   19  C   UNL     1      40.032  -8.882  12.320  1.00  0.00     0.037 A 
HETATM   20  C   UNL     1      40.089  -9.062  10.939  1.00  0.00     0.004 A 
HETATM   21  C   UNL     1      41.242  -9.585  10.356  1.00  0.00     0.017 A 
BRANCH  18  22
HETATM   22  O   UNL     1      40.972  -9.091  14.468  1.00  0.00    -0.351 OA
BRANCH  22  23
HETATM   23  C   UNL     1      40.845  -7.732  14.902  1.00  0.00     0.175 C 
BRANCH  23  24
HETATM   24  C   UNL     1      42.184  -7.327  15.513  1.00  0.00     0.022 C 
HETATM   25  C   UNL     1      43.171  -6.845  14.465  1.00  0.00     0.007 C 
ENDBRANCH  23  24
ENDBRANCH  22  23
ENDBRANCH  18  22
ENDBRANCH  13  16
ENDBRANCH   9  12
ENDBRANCH   1   8
BRANCH   3  26
HETATM   26  C   UNL     1      43.333 -15.750   5.211  1.00  0.00     0.112 A 
HETATM   27  S   UNL     1      43.842 -17.032   6.242  1.00  0.00    -0.067 SA
HETATM   28  C   UNL     1      43.796 -18.136   4.925  1.00  0.00     0.035 A 
HETATM   29  C   UNL     1      43.398 -17.454   3.778  1.00  0.00     0.075 A 
HETATM   30  C   UNL     1      44.090 -19.510   4.907  1.00  0.00     0.021 A 
HETATM   31  N   UNL     1      43.130 -16.106   3.955  1.00  0.00    -0.239 NA
HETATM   32  C   UNL     1      43.295 -18.163   2.564  1.00  0.00     0.033 A 
HETATM   33  C   UNL     1      43.589 -19.531   2.533  1.00  0.00     0.002 A 
HETATM   34  C   UNL     1      43.978 -20.194   3.692  1.00  0.00     0.002 A 
ENDBRANCH   3  26
BRANCH   4  35
HETATM   35  O   UNL     1      40.843 -14.357   4.789  1.00  0.00    -0.359 OA
HETATM   36  H   UNL     1      41.075 -14.347   3.835  1.00  0.00     0.218 HD
ENDBRANCH   4  35
TORSDOF 8
ENDMDL
MODEL 2
REMARK VINA RESULT:      -9.1      1.228      1.962
REMARK  8 active torsions:
REMARK  status: ('A' for Active; 'I' for Inactive)
REMARK    1  A    between atoms: C_2  and  C_3 
REMARK    2  A    between atoms: C_3  and  O_4 
REMARK    3  A    between atoms: O_4  and  C_5 
REMARK    4  A    between atoms: C_7  and  C_8 
REMARK       I    between atoms: C_8  and  N_9 
REMARK    5  A    between atoms: N_9  and  C_10 
REMARK    6  A    between atoms: N_11  and  C_12 
REMARK    7  A    between atoms: C_14  and  C_15 
REMARK    8  A    between atoms: C_24  and  O_25 
ROOT
HETATM    1  C   UNL     1      43.915 -12.340   6.794  1.00  0.00     0.035 A 
HETATM    2  C   UNL     1      44.136 -13.659   6.386  1.00  0.00     0.046 A 
HETATM    3  C   UNL     1      43.137 -14.401   5.725  1.00  0.00     0.036 A 
HETATM    4  C   UNL     1      41.892 -13.772   5.505  1.00  0.00     0.084 A 
HETATM    5  C   UNL     1      41.633 -12.469   5.952  1.00  0.00    -0.026 A 
HETATM    6  C   UNL     1      40.310 -11.807   5.693  1.00  0.00     0.051 C 
HETATM    7  C   UNL     1      42.656 -11.764   6.597  1.00  0.00     0.039 A 
ENDROOT
BRANCH   1   8
HETATM    8  N   UNL     1      44.877 -11.559   7.470  1.00  0.00    -0.333 N 
HETATM    9  C   UNL     1      44.732 -10.497   8.292  1.00  0.00     0.179 C 
HETATM   10  S   UNL     1      45.895  -9.291   8.264  1.00  0.00    -0.040 SA
HETATM   11  H   UNL     1      45.828 -11.690   7.141  1.00  0.00     0.168 HD
BRANCH   9  12
HETATM   12  N   UNL     1      43.726 -10.381   9.204  1.00  0.00    -0.299 N 
HETATM   13  C   UNL     1      43.756 -10.546  10.585  1.00  0.00     0.257 C 
HETATM   14  O   UNL     1      44.624 -11.085  11.257  1.00  0.00    -0.267 OA
HETATM   15  H   UNL     1      42.967  -9.811   8.855  1.00  0.00     0.171 HD
BRANCH  13  16
HETATM   16  C   UNL     1      42.555 -10.034  11.279  1.00  0.00     0.035 A 
HETATM   17  C   UNL     1      41.584  -9.306  10.582  1.00  0.00     0.053 A 
HETATM   18  C   UNL     1      40.500  -8.787  11.288  1.00  0.00     0.069 A 
HETATM   19  C   UNL     1      40.391  -8.977  12.666  1.00  0.00     0.037 A 
HETATM   20  C   UNL     1      41.358  -9.712  13.352  1.00  0.00     0.004 A 
HETATM   21  C   UNL     1      42.449 -10.235  12.661  1.00  0.00     0.017 A 
BRANCH  18  22
HETATM   22  O   UNL     1      39.571  -7.975  10.700  1.00  0.00    -0.351 OA
BRANCH  22  23
HETATM   23  C   UNL     1      39.609  -6.636  11.205  1.00  0.00     0.175 C 
BRANCH  23  24
HETATM   24  C   UNL     1      38.163  -6.178  11.376  1.00  0.00     0.022 C 
HETATM   25  C   UNL     1      37.580  -6.602  12.712  1.00  0.00     0.007 C 
ENDBRANCH  23  24
ENDBRANCH  22  23
ENDBRANCH  18  22
ENDBRANCH  13  16
ENDBRANCH   9  12
ENDBRANCH   1   8
BRANCH   3  26
HETATM   26  C   UNL     1      43.358 -15.792   5.263  1.00  0.00     0.112 A 
HETATM   27  S   UNL     1      43.816 -17.066   6.327  1.00  0.00    -0.067 SA
HETATM   28  C   UNL     1      43.790 -18.190   5.026  1.00  0.00     0.035 A 
HETATM   29  C   UNL     1      43.437 -17.518   3.857  1.00  0.00     0.075 A 
HETATM   30  C   UNL     1      44.063 -19.567   5.037  1.00  0.00     0.021 A 
HETATM   31  N   UNL     1      43.186 -16.164   4.006  1.00  0.00    -0.239 NA
HETATM   32  C   UNL     1      43.359 -18.244   2.652  1.00  0.00     0.033 A 
HETATM   33  C   UNL     1      43.632 -19.617   2.649  1.00  0.00     0.002 A 
HETATM   34  C   UNL     1      43.976 -20.268   3.829  1.00  0.00     0.002 A 
ENDBRANCH   3  26
BRANCH   4  35
HETATM   35  O   UNL     1      40.864 -14.405   4.844  1.00  0.00    -0.359 OA
HETATM   36  H   UNL     1      40.023 -14.149   5.280  1.00  0.00     0.218 HD
ENDBRANCH   4  35
TORSDOF 8
ENDMDL
MODEL 3
REMARK VINA RESULT:      -9.0      2.972      4.709
REMARK  8 active torsions:
REMARK  status: ('A' for Active; 'I' for Inactive)
REMARK    1  A    between atoms: C_2  and  C_3 
REMARK    2  A    between atoms: C_3  and  O_4 
REMARK    3  A    between atoms: O_4  and  C_5 
REMARK    4  A    between atoms: C_7  and  C_8 
REMARK       I    between atoms: C_8  and  N_9 
REMARK    5  A    between atoms: N_9  and  C_10 
REMARK    6  A    between atoms: N_11  and  C_12 
REMARK    7  A    between atoms: C_14  and  C_15 
REMARK    8  A    between atoms: C_24  and  O_25 
ROOT
HETATM    1  C   UNL     1      40.080 -12.489   3.521  1.00  0.00     0.035 A 
HETATM    2  C   UNL     1      40.793 -13.660   3.794  1.00  0.00     0.046 A 
HETATM    3  C   UNL     1      41.244 -14.504   2.759  1.00  0.00     0.036 A 
HETATM    4  C   UNL     1      40.932 -14.137   1.432  1.00  0.00     0.084 A 
HETATM    5  C   UNL     1      40.173 -12.995   1.140  1.00  0.00    -0.026 A 
HETATM    6  C   UNL     1      39.866 -12.608  -0.279  1.00  0.00     0.051 C 
HETATM    7  C   UNL     1      39.753 -12.179   2.196  1.00  0.00     0.039 A 
ENDROOT
BRANCH   1   8
HETATM    8  N   UNL     1      39.596 -11.617   4.519  1.00  0.00    -0.333 N 
HETATM    9  C   UNL     1      39.989 -11.435   5.799  1.00  0.00     0.179 C 
HETATM   10  S   UNL     1      38.835 -11.054   6.951  1.00  0.00    -0.040 SA
HETATM   11  H   UNL     1      38.696 -11.199   4.309  1.00  0.00     0.168 HD
BRANCH   9  12
HETATM   12  N   UNL     1      41.291 -11.471   6.200  1.00  0.00    -0.299 N 
HETATM   13  C   UNL     1      42.396 -10.793   5.693  1.00  0.00     0.257 C 
HETATM   14  O   UNL     1      42.496 -10.220   4.617  1.00  0.00    -0.267 OA
HETATM   15  H   UNL     1      41.380 -11.784   7.158  1.00  0.00     0.171 HD
BRANCH  13  16
HETATM   16  C   UNL     1      43.583 -10.833   6.573  1.00  0.00     0.035 A 
HETATM   17  C   UNL     1      43.490 -10.449   7.916  1.00  0.00     0.053 A 
HETATM   18  C   UNL     1      44.647 -10.441   8.693  1.00  0.00     0.069 A 
HETATM   19  C   UNL     1      45.879 -10.795   8.141  1.00  0.00     0.037 A 
HETATM   20  C   UNL     1      45.961 -11.186   6.804  1.00  0.00     0.004 A 
HETATM   21  C   UNL     1      44.814 -11.197   6.014  1.00  0.00     0.017 A 
BRANCH  18  22
HETATM   22  O   UNL     1      44.656  -9.975   9.978  1.00  0.00    -0.351 OA
BRANCH  22  23
HETATM   23  C   UNL     1      43.341  -9.713  10.480  1.00  0.00     0.175 C 
BRANCH  23  24
HETATM   24  C   UNL     1      43.339  -8.282  11.011  1.00  0.00     0.022 C 
HETATM   25  C   UNL     1      43.380  -8.232  12.528  1.00  0.00     0.007 C 
ENDBRANCH  23  24
ENDBRANCH  22  23
ENDBRANCH  18  22
ENDBRANCH  13  16
ENDBRANCH   9  12
ENDBRANCH   1   8
BRANCH   3  26
HETATM   26  C   UNL     1      42.022 -15.737   3.024  1.00  0.00     0.112 A 
HETATM   27  S   UNL     1      43.079 -15.900   4.375  1.00  0.00    -0.067 SA
HETATM   28  C   UNL     1      43.454 -17.513   3.912  1.00  0.00     0.035 A 
HETATM   29  C   UNL     1      42.751 -17.824   2.750  1.00  0.00     0.075 A 
HETATM   30  C   UNL     1      44.309 -18.439   4.532  1.00  0.00     0.021 A 
HETATM   31  N   UNL     1      41.937 -16.814   2.263  1.00  0.00    -0.239 NA
HETATM   32  C   UNL     1      42.910 -19.103   2.179  1.00  0.00     0.033 A 
HETATM   33  C   UNL     1      43.762 -20.032   2.786  1.00  0.00     0.002 A 
HETATM   34  C   UNL     1      44.449 -19.703   3.949  1.00  0.00     0.002 A 
ENDBRANCH   3  26
BRANCH   4  35
HETATM   35  O   UNL     1      41.351 -14.882   0.353  1.00  0.00    -0.359 OA
HETATM   36  H   UNL     1      40.939 -15.770   0.422  1.00  0.00     0.218 HD
ENDBRANCH   4  35
TORSDOF 8
ENDMDL
MODEL 4
REMARK VINA RESULT:      -8.9      5.223      9.307
REMARK  8 active torsions:
REMARK  status: ('A' for Active; 'I' for Inactive)
REMARK    1  A    between atoms: C_2  and  C_3 
REMARK    2  A    between atoms: C_3  and  O_4 
REMARK    3  A    between atoms: O_4  and  C_5 
REMARK    4  A    between atoms: C_7  and  C_8 
REMARK       I    between atoms: C_8  and  N_9 
REMARK    5  A    between atoms: N_9  and  C_10 
REMARK    6  A    between atoms: N_11  and  C_12 
REMARK    7  A    between atoms: C_14  and  C_15 
REMARK    8  A    between atoms: C_24  and  O_25 
ROOT
HETATM    1  C   UNL     1      41.578 -10.713   4.276  1.00  0.00     0.035 A 
HETATM    2  C   UNL     1      41.327 -11.285   3.026  1.00  0.00     0.046 A 
HETATM    3  C   UNL     1      40.053 -11.213   2.428  1.00  0.00     0.036 A 
HETATM    4  C   UNL     1      39.028 -10.559   3.146  1.00  0.00     0.084 A 
HETATM    5  C   UNL     1      39.246 -10.025   4.424  1.00  0.00    -0.026 A 
HETATM    6  C   UNL     1      38.150  -9.315   5.166  1.00  0.00     0.051 C 
HETATM    7  C   UNL     1      40.529 -10.109   4.977  1.00  0.00     0.039 A 
ENDROOT
BRANCH   1   8
HETATM    8  N   UNL     1      42.831 -10.767   4.924  1.00  0.00    -0.333 N 
HETATM    9  C   UNL     1      43.504 -11.809   5.459  1.00  0.00     0.179 C 
HETATM   10  S   UNL     1      44.439 -11.549   6.825  1.00  0.00    -0.040 SA
HETATM   11  H   UNL     1      43.198  -9.862   5.201  1.00  0.00     0.168 HD
BRANCH   9  12
HETATM   12  N   UNL     1      43.527 -13.054   4.908  1.00  0.00    -0.299 N 
HETATM   13  C   UNL     1      42.693 -14.144   5.139  1.00  0.00     0.257 C 
HETATM   14  O   UNL     1      41.921 -14.313   6.072  1.00  0.00    -0.267 OA
HETATM   15  H   UNL     1      44.010 -13.062   4.019  1.00  0.00     0.171 HD
BRANCH  13  16
HETATM   16  C   UNL     1      42.820 -15.223   4.136  1.00  0.00     0.035 A 
HETATM   17  C   UNL     1      43.383 -16.457   4.482  1.00  0.00     0.053 A 
HETATM   18  C   UNL     1      43.542 -17.423   3.490  1.00  0.00     0.069 A 
HETATM   19  C   UNL     1      43.161 -17.162   2.173  1.00  0.00     0.037 A 
HETATM   20  C   UNL     1      42.591 -15.933   1.839  1.00  0.00     0.004 A 
HETATM   21  C   UNL     1      42.428 -14.956   2.819  1.00  0.00     0.017 A 
BRANCH  18  22
HETATM   22  O   UNL     1      44.182 -18.608   3.725  1.00  0.00    -0.351 OA
BRANCH  22  23
HETATM   23  C   UNL     1      43.717 -19.664   2.877  1.00  0.00     0.175 C 
BRANCH  23  24
HETATM   24  C   UNL     1      43.904 -20.971   3.642  1.00  0.00     0.022 C 
HETATM   25  C   UNL     1      43.959 -20.755   5.144  1.00  0.00     0.007 C 
ENDBRANCH  23  24
ENDBRANCH  22  23
ENDBRANCH  18  22
ENDBRANCH  13  16
ENDBRANCH   9  12
ENDBRANCH   1   8
BRANCH   3  26
HETATM   26  C   UNL     1      39.770 -11.792   1.093  1.00  0.00     0.112 A 
HETATM   27  S   UNL     1      39.436 -10.824  -0.292  1.00  0.00    -0.067 SA
HETATM   28  C   UNL     1      39.299 -12.232  -1.268  1.00  0.00     0.035 A 
HETATM   29  C   UNL     1      39.512 -13.356  -0.473  1.00  0.00     0.075 A 
HETATM   30  C   UNL     1      39.021 -12.337  -2.641  1.00  0.00     0.021 A 
HETATM   31  N   UNL     1      39.787 -13.093   0.860  1.00  0.00    -0.239 NA
HETATM   32  C   UNL     1      39.440 -14.633  -1.065  1.00  0.00     0.033 A 
HETATM   33  C   UNL     1      39.162 -14.750  -2.431  1.00  0.00     0.002 A 
HETATM   34  C   UNL     1      38.958 -13.614  -3.207  1.00  0.00     0.002 A 
ENDBRANCH   3  26
BRANCH   4  35
HETATM   35  O   UNL     1      37.758 -10.415   2.634  1.00  0.00    -0.359 OA
HETATM   36  H   UNL     1      37.776  -9.675   1.990  1.00  0.00     0.218 HD
ENDBRANCH   4  35
TORSDOF 8
ENDMDL
MODEL 5
REMARK VINA RESULT:      -8.8      2.574     10.566
REMARK  8 active torsions:
REMARK  status: ('A' for Active; 'I' for Inactive)
REMARK    1  A    between atoms: C_2  and  C_3 
REMARK    2  A    between atoms: C_3  and  O_4 
REMARK    3  A    between atoms: O_4  and  C_5 
REMARK    4  A    between atoms: C_7  and  C_8 
REMARK       I    between atoms: C_8  and  N_9 
REMARK    5  A    between atoms: N_9  and  C_10 
REMARK    6  A    between atoms: N_11  and  C_12 
REMARK    7  A    between atoms: C_14  and  C_15 
REMARK    8  A    between atoms: C_24  and  O_25 
ROOT
HETATM    1  C   UNL     1      42.498 -10.125   7.308  1.00  0.00     0.035 A 
HETATM    2  C   UNL     1      42.129  -9.739   8.600  1.00  0.00     0.046 A 
HETATM    3  C   UNL     1      43.090  -9.550   9.613  1.00  0.00     0.036 A 
HETATM    4  C   UNL     1      44.443  -9.785   9.285  1.00  0.00     0.084 A 
HETATM    5  C   UNL     1      44.829 -10.224   8.010  1.00  0.00    -0.026 A 
HETATM    6  C   UNL     1      46.274 -10.452   7.671  1.00  0.00     0.051 C 
HETATM    7  C   UNL     1      43.843 -10.390   7.030  1.00  0.00     0.039 A 
ENDROOT
BRANCH   1   8
HETATM    8  N   UNL     1      41.575 -10.340   6.262  1.00  0.00    -0.333 N 
HETATM    9  C   UNL     1      41.504 -11.320   5.334  1.00  0.00     0.179 C 
HETATM   10  S   UNL     1      40.939 -10.941   3.803  1.00  0.00    -0.040 SA
HETATM   11  H   UNL     1      40.988  -9.539   6.052  1.00  0.00     0.168 HD
BRANCH   9  12
HETATM   12  N   UNL     1      41.796 -12.625   5.593  1.00  0.00    -0.299 N 
HETATM   13  C   UNL     1      42.670 -13.487   4.937  1.00  0.00     0.257 C 
HETATM   14  O   UNL     1      43.171 -13.347   3.831  1.00  0.00    -0.267 OA
HETATM   15  H   UNL     1      41.582 -12.875   6.549  1.00  0.00     0.171 HD
BRANCH  13  16
HETATM   16  C   UNL     1      42.966 -14.728   5.684  1.00  0.00     0.035 A 
HETATM   17  C   UNL     1      43.214 -15.927   5.005  1.00  0.00     0.053 A 
HETATM   18  C   UNL     1      43.425 -17.087   5.749  1.00  0.00     0.069 A 
HETATM   19  C   UNL     1      43.376 -17.057   7.144  1.00  0.00     0.037 A 
HETATM   20  C   UNL     1      43.138 -15.857   7.812  1.00  0.00     0.004 A 
HETATM   21  C   UNL     1      42.923 -14.689   7.082  1.00  0.00     0.017 A 
BRANCH  18  22
HETATM   22  O   UNL     1      43.564 -18.313   5.161  1.00  0.00    -0.351 OA
BRANCH  22  23
HETATM   23  C   UNL     1      43.703 -18.230   3.738  1.00  0.00     0.175 C 
BRANCH  23  24
HETATM   24  C   UNL     1      43.984 -19.641   3.231  1.00  0.00     0.022 C 
HETATM   25  C   UNL     1      43.235 -19.951   1.947  1.00  0.00     0.007 C 
ENDBRANCH  23  24
ENDBRANCH  22  23
ENDBRANCH  18  22
ENDBRANCH  13  16
ENDBRANCH   9  12
ENDBRANCH   1   8
BRANCH   3  26
HETATM   26  C   UNL     1      42.723  -9.117  10.982  1.00  0.00     0.112 A 
HETATM   27  S   UNL     1      41.350  -9.733  11.818  1.00  0.00    -0.067 SA
HETATM   28  C   UNL     1      41.735  -8.778  13.196  1.00  0.00     0.035 A 
HETATM   29  C   UNL     1      42.888  -8.044  12.927  1.00  0.00     0.075 A 
HETATM   30  C   UNL     1      41.065  -8.685  14.427  1.00  0.00     0.021 A 
HETATM   31  N   UNL     1      43.443  -8.252  11.675  1.00  0.00    -0.239 NA
HETATM   32  C   UNL     1      43.390  -7.178  13.920  1.00  0.00     0.033 A 
HETATM   33  C   UNL     1      42.730  -7.074  15.149  1.00  0.00     0.002 A 
HETATM   34  C   UNL     1      41.583  -7.822  15.397  1.00  0.00     0.002 A 
ENDBRANCH   3  26
BRANCH   4  35
HETATM   35  O   UNL     1      45.456  -9.602  10.198  1.00  0.00    -0.359 OA
HETATM   36  H   UNL     1      45.351  -8.708  10.589  1.00  0.00     0.218 HD
ENDBRANCH   4  35
TORSDOF 8
ENDMDL
MODEL 6
REMARK VINA RESULT:      -8.7      3.922      5.813
REMARK  8 active torsions:
REMARK  status: ('A' for Active; 'I' for Inactive)
REMARK    1  A    between atoms: C_2  and  C_3 
REMARK    2  A    between atoms: C_3  and  O_4 
REMARK    3  A    between atoms: O_4  and  C_5 
REMARK    4  A    between atoms: C_7  and  C_8 
REMARK       I    between atoms: C_8  and  N_9 
REMARK    5  A    between atoms: N_9  and  C_10 
REMARK    6  A    between atoms: N_11  and  C_12 
REMARK    7  A    between atoms: C_14  and  C_15 
REMARK    8  A    between atoms: C_24  and  O_25 
ROOT
HETATM    1  C   UNL     1      40.615 -13.422   5.619  1.00  0.00     0.035 A 
HETATM    2  C   UNL     1      40.709 -13.525   4.228  1.00  0.00     0.046 A 
HETATM    3  C   UNL     1      40.153 -12.546   3.380  1.00  0.00     0.036 A 
HETATM    4  C   UNL     1      39.477 -11.464   3.984  1.00  0.00     0.084 A 
HETATM    5  C   UNL     1      39.326 -11.370   5.374  1.00  0.00    -0.026 A 
HETATM    6  C   UNL     1      38.621 -10.201   6.002  1.00  0.00     0.051 C 
HETATM    7  C   UNL     1      39.902 -12.358   6.181  1.00  0.00     0.039 A 
ENDROOT
BRANCH   1   8
HETATM    8  N   UNL     1      41.143 -14.380   6.512  1.00  0.00    -0.333 N 
HETATM    9  C   UNL     1      42.394 -14.540   6.996  1.00  0.00     0.179 C 
HETATM   10  S   UNL     1      42.952 -16.092   7.288  1.00  0.00    -0.040 SA
HETATM   11  H   UNL     1      40.542 -15.183   6.667  1.00  0.00     0.168 HD
BRANCH   9  12
HETATM   12  N   UNL     1      43.210 -13.503   7.334  1.00  0.00    -0.299 N 
HETATM   13  C   UNL     1      43.785 -12.525   6.527  1.00  0.00     0.257 C 
HETATM   14  O   UNL     1      43.899 -12.529   5.310  1.00  0.00    -0.267 OA
HETATM   15  H   UNL     1      43.120 -13.257   8.311  1.00  0.00     0.171 HD
BRANCH  13  16
HETATM   16  C   UNL     1      44.351 -11.383   7.277  1.00  0.00     0.035 A 
HETATM   17  C   UNL     1      43.536 -10.589   8.091  1.00  0.00     0.053 A 
HETATM   18  C   UNL     1      44.097  -9.483   8.728  1.00  0.00     0.069 A 
HETATM   19  C   UNL     1      45.445  -9.166   8.548  1.00  0.00     0.037 A 
HETATM   20  C   UNL     1      46.253  -9.969   7.743  1.00  0.00     0.004 A 
HETATM   21  C   UNL     1      45.705 -11.075   7.097  1.00  0.00     0.017 A 
BRANCH  18  22
HETATM   22  O   UNL     1      43.345  -8.600   9.449  1.00  0.00    -0.351 OA
BRANCH  22  23
HETATM   23  C   UNL     1      42.631  -9.227  10.520  1.00  0.00     0.175 C 
BRANCH  23  24
HETATM   24  C   UNL     1      43.550  -9.222  11.738  1.00  0.00     0.022 C 
HETATM   25  C   UNL     1      43.231  -8.087  12.694  1.00  0.00     0.007 C 
ENDBRANCH  23  24
ENDBRANCH  22  23
ENDBRANCH  18  22
ENDBRANCH  13  16
ENDBRANCH   9  12
ENDBRANCH   1   8
BRANCH   3  26
HETATM   26  C   UNL     1      40.262 -12.623   1.904  1.00  0.00     0.112 A 
HETATM   27  S   UNL     1      41.128 -11.463   0.971  1.00  0.00    -0.067 SA
HETATM   28  C   UNL     1      40.767 -12.324  -0.473  1.00  0.00     0.035 A 
HETATM   29  C   UNL     1      40.001 -13.443  -0.151  1.00  0.00     0.075 A 
HETATM   30  C   UNL     1      41.133 -12.032  -1.797  1.00  0.00     0.021 A 
HETATM   31  N   UNL     1      39.730 -13.606   1.198  1.00  0.00    -0.239 NA
HETATM   32  C   UNL     1      39.578 -14.300  -1.187  1.00  0.00     0.033 A 
HETATM   33  C   UNL     1      39.935 -14.017  -2.510  1.00  0.00     0.002 A 
HETATM   34  C   UNL     1      40.705 -12.898  -2.808  1.00  0.00     0.002 A 
ENDBRANCH   3  26
BRANCH   4  35
HETATM   35  O   UNL     1      38.925 -10.445   3.241  1.00  0.00    -0.359 OA
HETATM   36  H   UNL     1      38.363 -10.850   2.545  1.00  0.00     0.218 HD
ENDBRANCH   4  35
TORSDOF 8
ENDMDL
MODEL 7
REMARK VINA RESULT:      -8.6      5.091      9.226
REMARK  8 active torsions:
REMARK  status: ('A' for Active; 'I' for Inactive)
REMARK    1  A    between atoms: C_2  and  C_3 
REMARK    2  A    between atoms: C_3  and  O_4 
REMARK    3  A    between atoms: O_4  and  C_5 
REMARK    4  A    between atoms: C_7  and  C_8 
REMARK       I    between atoms: C_8  and  N_9 
REMARK    5  A    between atoms: N_9  and  C_10 
REMARK    6  A    between atoms: N_11  and  C_12 
REMARK    7  A    between atoms: C_14  and  C_15 
REMARK    8  A    between atoms: C_24  and  O_25 
ROOT
HETATM    1  C   UNL     1      41.074 -13.078   5.075  1.00  0.00     0.035 A 
HETATM    2  C   UNL     1      41.375 -14.369   4.630  1.00  0.00     0.046 A 
HETATM    3  C   UNL     1      42.552 -15.029   5.036  1.00  0.00     0.036 A 
HETATM    4  C   UNL     1      43.432 -14.334   5.894  1.00  0.00     0.084 A 
HETATM    5  C   UNL     1      43.174 -13.020   6.309  1.00  0.00    -0.026 A 
HETATM    6  C   UNL     1      44.110 -12.300   7.238  1.00  0.00     0.051 C 
HETATM    7  C   UNL     1      41.988 -12.403   5.891  1.00  0.00     0.039 A 
ENDROOT
BRANCH   1   8
HETATM    8  N   UNL     1      39.916 -12.368   4.690  1.00  0.00    -0.333 N 
HETATM    9  C   UNL     1      39.649 -11.654   3.575  1.00  0.00     0.179 C 
HETATM   10  S   UNL     1      38.676 -10.296   3.701  1.00  0.00    -0.040 SA
HETATM   11  H   UNL     1      39.254 -12.209   5.442  1.00  0.00     0.168 HD
BRANCH   9  12
HETATM   12  N   UNL     1      40.067 -12.015   2.329  1.00  0.00    -0.299 N 
HETATM   13  C   UNL     1      39.817 -13.181   1.612  1.00  0.00     0.257 C 
HETATM   14  O   UNL     1      39.388 -14.245   2.035  1.00  0.00    -0.267 OA
HETATM   15  H   UNL     1      40.319 -11.211   1.770  1.00  0.00     0.171 HD
BRANCH  13  16
HETATM   16  C   UNL     1      40.167 -13.092   0.178  1.00  0.00     0.035 A 
HETATM   17  C   UNL     1      40.746 -11.930  -0.345  1.00  0.00     0.053 A 
HETATM   18  C   UNL     1      41.000 -11.865  -1.714  1.00  0.00     0.069 A 
HETATM   19  C   UNL     1      40.672 -12.933  -2.551  1.00  0.00     0.037 A 
HETATM   20  C   UNL     1      40.105 -14.091  -2.020  1.00  0.00     0.004 A 
HETATM   21  C   UNL     1      39.842 -14.170  -0.654  1.00  0.00     0.017 A 
BRANCH  18  22
HETATM   22  O   UNL     1      41.460 -10.727  -2.315  1.00  0.00    -0.351 OA
BRANCH  22  23
HETATM   23  C   UNL     1      40.593  -9.606  -2.113  1.00  0.00     0.175 C 
BRANCH  23  24
HETATM   24  C   UNL     1      41.441  -8.346  -2.267  1.00  0.00     0.022 C 
HETATM   25  C   UNL     1      42.736  -8.425  -1.480  1.00  0.00     0.007 C 
ENDBRANCH  23  24
ENDBRANCH  22  23
ENDBRANCH  18  22
ENDBRANCH  13  16
ENDBRANCH   9  12
ENDBRANCH   1   8
BRANCH   3  26
HETATM   26  C   UNL     1      42.880 -16.406   4.596  1.00  0.00     0.112 A 
HETATM   27  S   UNL     1      42.901 -16.875   2.939  1.00  0.00    -0.067 SA
HETATM   28  C   UNL     1      43.381 -18.468   3.375  1.00  0.00     0.035 A 
HETATM   29  C   UNL     1      43.490 -18.542   4.762  1.00  0.00     0.075 A 
HETATM   30  C   UNL     1      43.642 -19.574   2.550  1.00  0.00     0.021 A 
HETATM   31  N   UNL     1      43.213 -17.366   5.441  1.00  0.00    -0.239 NA
HETATM   32  C   UNL     1      43.867 -19.766   5.351  1.00  0.00     0.033 A 
HETATM   33  C   UNL     1      44.127 -20.876   4.539  1.00  0.00     0.002 A 
HETATM   34  C   UNL     1      44.018 -20.777   3.156  1.00  0.00     0.002 A 
ENDBRANCH   3  26
BRANCH   4  35
HETATM   35  O   UNL     1      44.592 -14.904   6.366  1.00  0.00    -0.359 OA
HETATM   36  H   UNL     1      44.853 -15.616   5.742  1.00  0.00     0.218 HD
ENDBRANCH   4  35
TORSDOF 8
ENDMDL
MODEL 8
REMARK VINA RESULT:      -8.4      4.902      9.620
REMARK  8 active torsions:
REMARK  status: ('A' for Active; 'I' for Inactive)
REMARK    1  A    between atoms: C_2  and  C_3 
REMARK    2  A    between atoms: C_3  and  O_4 
REMARK    3  A    between atoms: O_4  and  C_5 
REMARK    4  A    between atoms: C_7  and  C_8 
REMARK       I    between atoms: C_8  and  N_9 
REMARK    5  A    between atoms: N_9  and  C_10 
REMARK    6  A    between atoms: N_11  and  C_12 
REMARK    7  A    between atoms: C_14  and  C_15 
REMARK    8  A    between atoms: C_24  and  O_25 
ROOT
HETATM    1  C   UNL     1      41.043 -11.600   5.159  1.00  0.00     0.035 A 
HETATM    2  C   UNL     1      41.346 -12.873   4.668  1.00  0.00     0.046 A 
HETATM    3  C   UNL     1      42.475 -13.586   5.121  1.00  0.00     0.036 A 
HETATM    4  C   UNL     1      43.305 -12.959   6.077  1.00  0.00     0.084 A 
HETATM    5  C   UNL     1      43.047 -11.662   6.542  1.00  0.00    -0.026 A 
HETATM    6  C   UNL     1      43.928 -11.018   7.574  1.00  0.00     0.051 C 
HETATM    7  C   UNL     1      41.910 -10.994   6.074  1.00  0.00     0.039 A 
ENDROOT
BRANCH   1   8
HETATM    8  N   UNL     1      39.933 -10.841   4.730  1.00  0.00    -0.333 N 
HETATM    9  C   UNL     1      39.739 -10.119   3.605  1.00  0.00     0.179 C 
HETATM   10  S   UNL     1      38.823  -8.719   3.693  1.00  0.00    -0.040 SA
HETATM   11  H   UNL     1      39.252 -10.649   5.457  1.00  0.00     0.168 HD
BRANCH   9  12
HETATM   12  N   UNL     1      40.186 -10.503   2.376  1.00  0.00    -0.299 N 
HETATM   13  C   UNL     1      39.811 -11.592   1.595  1.00  0.00     0.257 C 
HETATM   14  O   UNL     1      39.193 -12.588   1.944  1.00  0.00    -0.267 OA
HETATM   15  H   UNL     1      40.599  -9.731   1.869  1.00  0.00     0.171 HD
BRANCH  13  16
HETATM   16  C   UNL     1      40.274 -11.515   0.193  1.00  0.00     0.035 A 
HETATM   17  C   UNL     1      39.995 -12.549  -0.708  1.00  0.00     0.053 A 
HETATM   18  C   UNL     1      40.505 -12.466  -2.003  1.00  0.00     0.069 A 
HETATM   19  C   UNL     1      41.291 -11.380  -2.390  1.00  0.00     0.037 A 
HETATM   20  C   UNL     1      41.556 -10.349  -1.489  1.00  0.00     0.004 A 
HETATM   21  C   UNL     1      41.055 -10.419  -0.190  1.00  0.00     0.017 A 
BRANCH  18  22
HETATM   22  O   UNL     1      40.369 -13.484  -2.904  1.00  0.00    -0.351 OA
BRANCH  22  23
HETATM   23  C   UNL     1      39.480 -14.510  -2.449  1.00  0.00     0.175 C 
BRANCH  23  24
HETATM   24  C   UNL     1      38.275 -14.510  -3.385  1.00  0.00     0.022 C 
HETATM   25  C   UNL     1      37.204 -13.529  -2.943  1.00  0.00     0.007 C 
ENDBRANCH  23  24
ENDBRANCH  22  23
ENDBRANCH  18  22
ENDBRANCH  13  16
ENDBRANCH   9  12
ENDBRANCH   1   8
BRANCH   3  26
HETATM   26  C   UNL     1      42.803 -14.946   4.632  1.00  0.00     0.112 A 
HETATM   27  S   UNL     1      42.672 -15.397   2.975  1.00  0.00    -0.067 SA
HETATM   28  C   UNL     1      43.247 -16.976   3.339  1.00  0.00     0.035 A 
HETATM   29  C   UNL     1      43.498 -17.061   4.707  1.00  0.00     0.075 A 
HETATM   30  C   UNL     1      43.460 -18.065   2.477  1.00  0.00     0.021 A 
HETATM   31  N   UNL     1      43.251 -15.902   5.426  1.00  0.00    -0.239 NA
HETATM   32  C   UNL     1      43.973 -18.277   5.238  1.00  0.00     0.033 A 
HETATM   33  C   UNL     1      44.187 -19.368   4.390  1.00  0.00     0.002 A 
HETATM   34  C   UNL     1      43.936 -19.260   3.026  1.00  0.00     0.002 A 
ENDBRANCH   3  26
BRANCH   4  35
HETATM   35  O   UNL     1      44.414 -13.585   6.599  1.00  0.00    -0.359 OA
HETATM   36  H   UNL     1      44.957 -12.905   7.053  1.00  0.00     0.218 HD
ENDBRANCH   4  35
TORSDOF 8
ENDMDL
MODEL 9
REMARK VINA RESULT:      -8.3      4.722     10.719
REMARK  8 active torsions:
REMARK  status: ('A' for Active; 'I' for Inactive)
REMARK    1  A    between atoms: C_2  and  C_3 
REMARK    2  A    between atoms: C_3  and  O_4 
REMARK    3  A    between atoms: O_4  and  C_5 
REMARK    4  A    between atoms: C_7  and  C_8 
REMARK       I    between atoms: C_8  and  N_9 
REMARK    5  A    between atoms: N_9  and  C_10 
REMARK    6  A    between atoms: N_11  and  C_12 
REMARK    7  A    between atoms: C_14  and  C_15 
REMARK    8  A    between atoms: C_24  and  O_25 
ROOT
HETATM    1  C   UNL     1      43.116 -13.128   3.050  1.00  0.00     0.035 A 
HETATM    2  C   UNL     1      43.479 -12.705   4.332  1.00  0.00     0.046 A 
HETATM    3  C   UNL     1      43.136 -11.424   4.807  1.00  0.00     0.036 A 
HETATM    4  C   UNL     1      42.427 -10.569   3.935  1.00  0.00     0.084 A 
HETATM    5  C   UNL     1      42.099 -10.955   2.627  1.00  0.00    -0.026 A 
HETATM    6  C   UNL     1      41.327 -10.042   1.718  1.00  0.00     0.051 C 
HETATM    7  C   UNL     1      42.451 -12.240   2.197  1.00  0.00     0.039 A 
ENDROOT
BRANCH   1   8
HETATM    8  N   UNL     1      43.446 -14.395   2.521  1.00  0.00    -0.333 N 
HETATM    9  C   UNL     1      42.702 -15.280   1.822  1.00  0.00     0.179 C 
HETATM   10  S   UNL     1      42.972 -16.918   2.051  1.00  0.00    -0.040 SA
HETATM   11  H   UNL     1      44.309 -14.786   2.882  1.00  0.00     0.168 HD
BRANCH   9  12
HETATM   12  N   UNL     1      41.789 -14.918   0.877  1.00  0.00    -0.299 N 
HETATM   13  C   UNL     1      40.400 -14.988   0.912  1.00  0.00     0.257 C 
HETATM   14  O   UNL     1      39.700 -15.627   1.684  1.00  0.00    -0.267 OA
HETATM   15  H   UNL     1      42.171 -14.246   0.225  1.00  0.00     0.171 HD
BRANCH  13  16
HETATM   16  C   UNL     1      39.731 -14.217  -0.158  1.00  0.00     0.035 A 
HETATM   17  C   UNL     1      39.408 -12.868   0.029  1.00  0.00     0.053 A 
HETATM   18  C   UNL     1      38.720 -12.197  -0.981  1.00  0.00     0.069 A 
HETATM   19  C   UNL     1      38.349 -12.860  -2.152  1.00  0.00     0.037 A 
HETATM   20  C   UNL     1      38.684 -14.201  -2.335  1.00  0.00     0.004 A 
HETATM   21  C   UNL     1      39.369 -14.887  -1.333  1.00  0.00     0.017 A 
BRANCH  18  22
HETATM   22  O   UNL     1      38.274 -10.914  -0.828  1.00  0.00    -0.351 OA
BRANCH  22  23
HETATM   23  C   UNL     1      38.554 -10.093  -1.967  1.00  0.00     0.175 C 
BRANCH  23  24
HETATM   24  C   UNL     1      39.878  -9.384  -1.697  1.00  0.00     0.022 C 
HETATM   25  C   UNL     1      40.999  -9.901  -2.580  1.00  0.00     0.007 C 
ENDBRANCH  23  24
ENDBRANCH  22  23
ENDBRANCH  18  22
ENDBRANCH  13  16
ENDBRANCH   9  12
ENDBRANCH   1   8
BRANCH   3  26
HETATM   26  C   UNL     1      43.490 -10.963   6.171  1.00  0.00     0.112 A 
HETATM   27  S   UNL     1      45.046 -11.212   6.864  1.00  0.00    -0.067 SA
HETATM   28  C   UNL     1      44.565 -10.383   8.291  1.00  0.00     0.035 A 
HETATM   29  C   UNL     1      43.241  -9.972   8.150  1.00  0.00     0.075 A 
HETATM   30  C   UNL     1      45.305 -10.114   9.455  1.00  0.00     0.021 A 
HETATM   31  N   UNL     1      42.647 -10.298   6.942  1.00  0.00    -0.239 NA
HETATM   32  C   UNL     1      42.628  -9.273   9.210  1.00  0.00     0.033 A 
HETATM   33  C   UNL     1      43.355  -9.003  10.375  1.00  0.00     0.002 A 
HETATM   34  C   UNL     1      44.677  -9.417  10.492  1.00  0.00     0.002 A 
ENDBRANCH   3  26
BRANCH   4  35
HETATM   35  O   UNL     1      42.023  -9.310   4.317  1.00  0.00    -0.359 OA
HETATM   36  H   UNL     1      41.770  -9.350   5.264  1.00  0.00     0.218 HD
ENDBRANCH   4  35
TORSDOF 8
ENDMDL
MODEL 10
REMARK VINA RESULT:      -8.2      2.869      3.540
REMARK  8 active torsions:
REMARK  status: ('A' for Active; 'I' for Inactive)
REMARK    1  A    between atoms: C_2  and  C_3 
REMARK    2  A    between atoms: C_3  and  O_4 
REMARK    3  A    between atoms: O_4  and  C_5 
REMARK    4  A    between atoms: C_7  and  C_8 
REMARK       I    between atoms: C_8  and  N_9 
REMARK    5  A    between atoms: N_9  and  C_10 
REMARK    6  A    between atoms: N_11  and  C_12 
REMARK    7  A    between atoms: C_14  and  C_15 
REMARK    8  A    between atoms: C_24  and  O_25 
ROOT
HETATM    1  C   UNL     1      41.103 -10.135   3.421  1.00  0.00     0.035 A 
HETATM    2  C   UNL     1      41.761 -11.351   3.630  1.00  0.00     0.046 A 
HETATM    3  C   UNL     1      41.173 -12.577   3.262  1.00  0.00     0.036 A 
HETATM    4  C   UNL     1      39.882 -12.540   2.691  1.00  0.00     0.084 A 
HETATM    5  C   UNL     1      39.183 -11.336   2.523  1.00  0.00    -0.026 A 
HETATM    6  C   UNL     1      37.818 -11.311   1.896  1.00  0.00     0.051 C 
HETATM    7  C   UNL     1      39.808 -10.139   2.893  1.00  0.00     0.039 A 
ENDROOT
BRANCH   1   8
HETATM    8  N   UNL     1      41.642  -8.882   3.782  1.00  0.00    -0.333 N 
HETATM    9  C   UNL     1      41.381  -8.079   4.838  1.00  0.00     0.179 C 
HETATM   10  S   UNL     1      41.450  -6.419   4.625  1.00  0.00    -0.040 SA
HETATM   11  H   UNL     1      42.163  -8.422   3.043  1.00  0.00     0.168 HD
BRANCH   9  12
HETATM   12  N   UNL     1      41.134  -8.543   6.095  1.00  0.00    -0.299 N 
HETATM   13  C   UNL     1      41.941  -9.305   6.935  1.00  0.00     0.257 C 
HETATM   14  O   UNL     1      42.939  -9.946   6.638  1.00  0.00    -0.267 OA
HETATM   15  H   UNL     1      40.417  -8.003   6.560  1.00  0.00     0.171 HD
BRANCH  13  16
HETATM   16  C   UNL     1      41.475  -9.352   8.338  1.00  0.00     0.035 A 
HETATM   17  C   UNL     1      42.387  -9.506   9.388  1.00  0.00     0.053 A 
HETATM   18  C   UNL     1      41.899  -9.611  10.690  1.00  0.00     0.069 A 
HETATM   19  C   UNL     1      40.526  -9.577  10.941  1.00  0.00     0.037 A 
HETATM   20  C   UNL     1      39.625  -9.413   9.889  1.00  0.00     0.004 A 
HETATM   21  C   UNL     1      40.097  -9.310   8.582  1.00  0.00     0.017 A 
BRANCH  18  22
HETATM   22  O   UNL     1      42.716  -9.873  11.754  1.00  0.00    -0.351 OA
BRANCH  22  23
HETATM   23  C   UNL     1      42.356  -9.127  12.922  1.00  0.00     0.175 C 
BRANCH  23  24
HETATM   24  C   UNL     1      43.207  -7.860  12.927  1.00  0.00     0.022 C 
HETATM   25  C   UNL     1      43.149  -7.133  14.259  1.00  0.00     0.007 C 
ENDBRANCH  23  24
ENDBRANCH  22  23
ENDBRANCH  18  22
ENDBRANCH  13  16
ENDBRANCH   9  12
ENDBRANCH   1   8
BRANCH   3  26
HETATM   26  C   UNL     1      41.862 -13.875   3.452  1.00  0.00     0.112 A 
HETATM   27  S   UNL     1      42.555 -14.352   4.954  1.00  0.00    -0.067 SA
HETATM   28  C   UNL     1      43.032 -15.860   4.279  1.00  0.00     0.035 A 
HETATM   29  C   UNL     1      42.636 -15.902   2.944  1.00  0.00     0.075 A 
HETATM   30  C   UNL     1      43.710 -16.930   4.886  1.00  0.00     0.021 A 
HETATM   31  N   UNL     1      41.966 -14.777   2.491  1.00  0.00    -0.239 NA
HETATM   32  C   UNL     1      42.931 -17.051   2.182  1.00  0.00     0.033 A 
HETATM   33  C   UNL     1      43.607 -18.122   2.775  1.00  0.00     0.002 A 
HETATM   34  C   UNL     1      43.988 -18.061   4.112  1.00  0.00     0.002 A 
ENDBRANCH   3  26
BRANCH   4  35
HETATM   35  O   UNL     1      39.236 -13.682   2.276  1.00  0.00    -0.359 OA
HETATM   36  H   UNL     1      38.593 -13.428   1.579  1.00  0.00     0.218 HD
ENDBRANCH   4  35
TORSDOF 8
ENDMDL
