MODEL 1
REMARK VINA RESULT:      -8.5      0.000      0.000
REMARK  5 active torsions:
REMARK  status: ('A' for Active; 'I' for Inactive)
REMARK    1  A    between atoms: C_9  and  C_10 
REMARK       I    between atoms: C_10  and  N_11 
REMARK    2  A    between atoms: N_11  and  C_12 
REMARK    3  A    between atoms: C_15  and  N_16 
REMARK       I    between atoms: N_16  and  C_17 
REMARK       I    between atoms: C_17  and  N_18 
REMARK    4  A    between atoms: N_18  and  C_19 
REMARK    5  A    between atoms: C_19  and  C_20 
ROOT
HETATM    1  C   UNL     1      41.154 -14.507   3.066  1.00  0.00     0.035 A 
HETATM    2  C   UNL     1      40.117 -13.688   3.507  1.00  0.00     0.032 A 
HETATM    3  C   UNL     1      39.543 -12.735   2.650  1.00  0.00     0.032 A 
HETATM    4  C   UNL     1      40.016 -12.567   1.349  1.00  0.00     0.036 A 
HETATM    5  C   UNL     1      41.051 -13.399   0.909  1.00  0.00     0.032 A 
HETATM    6  C   UNL     1      41.614 -14.360   1.757  1.00  0.00     0.032 A 
ENDROOT
BRANCH   1   7
HETATM    7  N   UNL     1      41.752 -15.506   3.850  1.00  0.00    -0.322 N 
HETATM    8  C   UNL     1      42.737 -15.377   4.812  1.00  0.00     0.277 C 
HETATM    9  O   UNL     1      43.326 -14.345   5.114  1.00  0.00    -0.266 OA
HETATM   10  H   UNL     1      41.435 -16.466   3.732  1.00  0.00     0.169 HD
BRANCH   8  11
HETATM   11  C   UNL     1      43.028 -16.670   5.465  1.00  0.00     0.157 A 
HETATM   12  C   UNL     1      43.332 -17.913   4.838  1.00  0.00     0.029 A 
HETATM   13  C   UNL     1      43.446 -18.383   3.513  1.00  0.00     0.023 A 
HETATM   14  C   UNL     1      43.552 -18.801   5.883  1.00  0.00     0.063 A 
HETATM   15  C   UNL     1      43.780 -19.728   3.282  1.00  0.00    -0.061 A 
HETATM   16  C   UNL     1      43.892 -20.254   1.880  1.00  0.00     0.048 C 
HETATM   17  C   UNL     1      44.000 -20.588   4.366  1.00  0.00     0.009 A 
HETATM   18  C   UNL     1      43.892 -20.142   5.688  1.00  0.00     0.032 A 
HETATM   19  N   UNL     1      43.366 -18.070   7.023  1.00  0.00    -0.277 N 
HETATM   20  H   UNL     1      43.449 -18.398   7.979  1.00  0.00     0.189 HD
HETATM   21  N   UNL     1      43.034 -16.783   6.814  1.00  0.00    -0.168 NA
ENDBRANCH   8  11
ENDBRANCH   1   7
BRANCH   4  22
HETATM   22  N   UNL     1      39.499 -11.656   0.409  1.00  0.00    -0.309 N 
HETATM   23  C   UNL     1      38.814 -11.790  -0.758  1.00  0.00     0.320 C 
HETATM   24  N   UNL     1      38.282 -13.002  -1.058  1.00  0.00    -0.339 N 
HETATM   25  O   UNL     1      38.674 -10.802  -1.477  1.00  0.00    -0.247 OA
HETATM   26  H   UNL     1      37.946 -13.509  -0.252  1.00  0.00     0.164 HD
HETATM   27  H   UNL     1      39.714 -10.681   0.571  1.00  0.00     0.170 HD
BRANCH  24  28
HETATM   28  C   UNL     1      37.491 -13.159  -2.255  1.00  0.00     0.150 C 
BRANCH  28  29
HETATM   29  C   UNL     1      38.064 -14.229  -3.134  1.00  0.00    -0.018 C 
HETATM   30  C   UNL     1      38.733 -15.322  -2.741  1.00  0.00     0.008 C 
ENDBRANCH  28  29
ENDBRANCH  24  28
ENDBRANCH   4  22
TORSDOF 5
ENDMDL
MODEL 2
REMARK VINA RESULT:      -8.3      5.165      8.027
REMARK  5 active torsions:
REMARK  status: ('A' for Active; 'I' for Inactive)
REMARK    1  A    between atoms: C_9  and  C_10 
REMARK       I    between atoms: C_10  and  N_11 
REMARK    2  A    between atoms: N_11  and  C_12 
REMARK    3  A    between atoms: C_15  and  N_16 
REMARK       I    between atoms: N_16  and  C_17 
REMARK       I    between atoms: C_17  and  N_18 
REMARK    4  A    between atoms: N_18  and  C_19 
REMARK    5  A    between atoms: C_19  and  C_20 
ROOT
HETATM    1  C   UNL     1      43.431 -12.605   5.942  1.00  0.00     0.035 A 
HETATM    2  C   UNL     1      44.453 -12.400   6.866  1.00  0.00     0.032 A 
HETATM    3  C   UNL     1      44.429 -11.292   7.729  1.00  0.00     0.032 A 
HETATM    4  C   UNL     1      43.398 -10.357   7.661  1.00  0.00     0.036 A 
HETATM    5  C   UNL     1      42.370 -10.571   6.736  1.00  0.00     0.032 A 
HETATM    6  C   UNL     1      42.384 -11.683   5.887  1.00  0.00     0.032 A 
ENDROOT
BRANCH   1   7
HETATM    7  N   UNL     1      43.366 -13.706   5.074  1.00  0.00    -0.322 N 
HETATM    8  C   UNL     1      43.098 -15.029   5.375  1.00  0.00     0.277 C 
HETATM    9  O   UNL     1      42.926 -15.498   6.495  1.00  0.00    -0.266 OA
HETATM   10  H   UNL     1      43.520 -13.547   4.082  1.00  0.00     0.169 HD
BRANCH   8  11
HETATM   11  C   UNL     1      43.041 -15.860   4.155  1.00  0.00     0.157 A 
HETATM   12  C   UNL     1      43.346 -17.247   4.032  1.00  0.00     0.029 A 
HETATM   13  C   UNL     1      43.792 -18.270   4.893  1.00  0.00     0.023 A 
HETATM   14  C   UNL     1      43.107 -17.552   2.698  1.00  0.00     0.063 A 
HETATM   15  C   UNL     1      43.981 -19.567   4.387  1.00  0.00    -0.061 A 
HETATM   16  C   UNL     1      44.470 -20.670   5.282  1.00  0.00     0.048 C 
HETATM   17  C   UNL     1      43.723 -19.833   3.036  1.00  0.00     0.009 A 
HETATM   18  C   UNL     1      43.279 -18.832   2.164  1.00  0.00     0.032 A 
HETATM   19  N   UNL     1      42.700 -16.379   2.126  1.00  0.00    -0.277 N 
HETATM   20  H   UNL     1      42.438 -16.230   1.158  1.00  0.00     0.189 HD
HETATM   21  N   UNL     1      42.661 -15.331   2.968  1.00  0.00    -0.168 NA
ENDBRANCH   8  11
ENDBRANCH   1   7
BRANCH   4  22
HETATM   22  N   UNL     1      43.273  -9.225   8.489  1.00  0.00    -0.309 N 
HETATM   23  C   UNL     1      42.560  -8.953   9.615  1.00  0.00     0.320 C 
HETATM   24  N   UNL     1      41.985  -9.988  10.279  1.00  0.00    -0.339 N 
HETATM   25  O   UNL     1      42.494  -7.788  10.005  1.00  0.00    -0.247 OA
HETATM   26  H   UNL     1      42.530 -10.837  10.259  1.00  0.00     0.164 HD
HETATM   27  H   UNL     1      43.758  -8.393   8.180  1.00  0.00     0.170 HD
BRANCH  24  28
HETATM   28  C   UNL     1      41.281  -9.740  11.514  1.00  0.00     0.150 C 
BRANCH  28  29
HETATM   29  C   UNL     1      42.187  -9.940  12.691  1.00  0.00    -0.018 C 
HETATM   30  C   UNL     1      42.307  -9.142  13.762  1.00  0.00     0.008 C 
ENDBRANCH  28  29
ENDBRANCH  24  28
ENDBRANCH   4  22
TORSDOF 5
ENDMDL
MODEL 3
REMARK VINA RESULT:      -8.2      2.196      2.892
REMARK  5 active torsions:
REMARK  status: ('A' for Active; 'I' for Inactive)
REMARK    1  A    between atoms: C_9  and  C_10 
REMARK       I    between atoms: C_10  and  N_11 
REMARK    2  A    between atoms: N_11  and  C_12 
REMARK    3  A    between atoms: C_15  and  N_16 
REMARK       I    between atoms: N_16  and  C_17 
REMARK       I    between atoms: C_17  and  N_18 
REMARK    4  A    between atoms: N_18  and  C_19 
REMARK    5  A    between atoms: C_19  and  C_20 
ROOT
HETATM    1  C   UNL     1      40.559 -14.184   1.308  1.00  0.00     0.035 A 
HETATM    2  C   UNL     1      40.055 -12.911   1.564  1.00  0.00     0.032 A 
HETATM    3  C   UNL     1      39.268 -12.246   0.611  1.00  0.00     0.032 A 
HETATM    4  C   UNL     1      38.997 -12.831  -0.625  1.00  0.00     0.036 A 
HETATM    5  C   UNL     1      39.499 -14.113  -0.875  1.00  0.00     0.032 A 
HETATM    6  C   UNL     1      40.270 -14.784   0.082  1.00  0.00     0.032 A 
ENDROOT
BRANCH   1   7
HETATM    7  N   UNL     1      41.320 -14.926   2.225  1.00  0.00    -0.322 N 
HETATM    8  C   UNL     1      42.668 -14.823   2.513  1.00  0.00     0.277 C 
HETATM    9  O   UNL     1      43.476 -14.088   1.956  1.00  0.00    -0.266 OA
HETATM   10  H   UNL     1      40.847 -15.636   2.779  1.00  0.00     0.169 HD
BRANCH   8  11
HETATM   11  C   UNL     1      43.058 -15.737   3.606  1.00  0.00     0.157 A 
HETATM   12  C   UNL     1      43.332 -17.134   3.518  1.00  0.00     0.029 A 
HETATM   13  C   UNL     1      43.324 -18.109   2.500  1.00  0.00     0.023 A 
HETATM   14  C   UNL     1      43.681 -17.515   4.806  1.00  0.00     0.063 A 
HETATM   15  C   UNL     1      43.670 -19.435   2.809  1.00  0.00    -0.061 A 
HETATM   16  C   UNL     1      43.654 -20.494   1.744  1.00  0.00     0.048 C 
HETATM   17  C   UNL     1      44.021 -19.776   4.121  1.00  0.00     0.009 A 
HETATM   18  C   UNL     1      44.035 -18.824   5.147  1.00  0.00     0.032 A 
HETATM   19  N   UNL     1      43.591 -16.377   5.558  1.00  0.00    -0.277 N 
HETATM   20  H   UNL     1      43.779 -16.283   6.550  1.00  0.00     0.189 HD
HETATM   21  N   UNL     1      43.204 -15.285   4.874  1.00  0.00    -0.168 NA
ENDBRANCH   8  11
ENDBRANCH   1   7
BRANCH   4  22
HETATM   22  N   UNL     1      38.207 -12.257  -1.639  1.00  0.00    -0.309 N 
HETATM   23  C   UNL     1      38.393 -11.237  -2.519  1.00  0.00     0.320 C 
HETATM   24  N   UNL     1      39.648 -10.744  -2.677  1.00  0.00    -0.339 N 
HETATM   25  O   UNL     1      37.427 -10.826  -3.160  1.00  0.00    -0.247 OA
HETATM   26  H   UNL     1      40.372 -11.443  -2.605  1.00  0.00     0.164 HD
HETATM   27  H   UNL     1      37.265 -12.618  -1.725  1.00  0.00     0.170 HD
BRANCH  24  28
HETATM   28  C   UNL     1      39.890  -9.708  -3.653  1.00  0.00     0.150 C 
BRANCH  28  29
HETATM   29  C   UNL     1      41.131  -8.939  -3.314  1.00  0.00    -0.018 C 
HETATM   30  C   UNL     1      41.700  -7.966  -4.040  1.00  0.00     0.008 C 
ENDBRANCH  28  29
ENDBRANCH  24  28
ENDBRANCH   4  22
TORSDOF 5
ENDMDL
MODEL 4
REMARK VINA RESULT:      -8.0      5.346      8.519
REMARK  5 active torsions:
REMARK  status: ('A' for Active; 'I' for Inactive)
REMARK    1  A    between atoms: C_9  and  C_10 
REMARK       I    between atoms: C_10  and  N_11 
REMARK    2  A    between atoms: N_11  and  C_12 
REMARK    3  A    between atoms: C_15  and  N_16 
REMARK       I    between atoms: N_16  and  C_17 
REMARK       I    between atoms: C_17  and  N_18 
REMARK    4  A    between atoms: N_18  and  C_19 
REMARK    5  A    between atoms: C_19  and  C_20 
ROOT
HETATM    1  C   UNL     1      43.077 -12.035   5.943  1.00  0.00     0.035 A 
HETATM    2  C   UNL     1      42.247 -10.959   6.249  1.00  0.00     0.032 A 
HETATM    3  C   UNL     1      42.530 -10.122   7.341  1.00  0.00     0.032 A 
HETATM    4  C   UNL     1      43.631 -10.365   8.160  1.00  0.00     0.036 A 
HETATM    5  C   UNL     1      44.468 -11.442   7.843  1.00  0.00     0.032 A 
HETATM    6  C   UNL     1      44.195 -12.267   6.746  1.00  0.00     0.032 A 
ENDROOT
BRANCH   1   7
HETATM    7  N   UNL     1      42.882 -12.891   4.848  1.00  0.00    -0.322 N 
HETATM    8  C   UNL     1      43.169 -12.668   3.514  1.00  0.00     0.277 C 
HETATM    9  O   UNL     1      43.600 -11.629   3.028  1.00  0.00    -0.266 OA
HETATM   10  H   UNL     1      42.488 -13.813   5.022  1.00  0.00     0.169 HD
BRANCH   8  11
HETATM   11  C   UNL     1      42.885 -13.864   2.694  1.00  0.00     0.157 A 
HETATM   12  C   UNL     1      43.070 -15.231   3.054  1.00  0.00     0.029 A 
HETATM   13  C   UNL     1      43.556 -15.929   4.177  1.00  0.00     0.023 A 
HETATM   14  C   UNL     1      42.628 -15.956   1.955  1.00  0.00     0.063 A 
HETATM   15  C   UNL     1      43.581 -17.334   4.162  1.00  0.00    -0.061 A 
HETATM   16  C   UNL     1      44.109 -18.099   5.341  1.00  0.00     0.048 C 
HETATM   17  C   UNL     1      43.120 -18.027   3.035  1.00  0.00     0.009 A 
HETATM   18  C   UNL     1      42.633 -17.353   1.909  1.00  0.00     0.032 A 
HETATM   19  N   UNL     1      42.231 -15.022   1.040  1.00  0.00    -0.277 N 
HETATM   20  H   UNL     1      41.849 -15.194   0.117  1.00  0.00     0.189 HD
HETATM   21  N   UNL     1      42.384 -13.747   1.442  1.00  0.00    -0.168 NA
ENDBRANCH   8  11
ENDBRANCH   1   7
BRANCH   4  22
HETATM   22  N   UNL     1      44.011  -9.579   9.264  1.00  0.00    -0.309 N 
HETATM   23  C   UNL     1      43.573  -9.477  10.547  1.00  0.00     0.320 C 
HETATM   24  N   UNL     1      42.743 -10.440  11.023  1.00  0.00    -0.339 N 
HETATM   25  O   UNL     1      43.971  -8.537  11.234  1.00  0.00    -0.247 OA
HETATM   26  H   UNL     1      42.942 -11.362  10.663  1.00  0.00     0.164 HD
HETATM   27  H   UNL     1      44.725  -8.883   9.088  1.00  0.00     0.170 HD
BRANCH  24  28
HETATM   28  C   UNL     1      42.316 -10.397  12.400  1.00  0.00     0.150 C 
BRANCH  28  29
HETATM   29  C   UNL     1      40.925  -9.851  12.508  1.00  0.00    -0.018 C 
HETATM   30  C   UNL     1      39.872 -10.437  13.096  1.00  0.00     0.008 C 
ENDBRANCH  28  29
ENDBRANCH  24  28
ENDBRANCH   4  22
TORSDOF 5
ENDMDL
MODEL 5
REMARK VINA RESULT:      -8.0      5.833      8.615
REMARK  5 active torsions:
REMARK  status: ('A' for Active; 'I' for Inactive)
REMARK    1  A    between atoms: C_9  and  C_10 
REMARK       I    between atoms: C_10  and  N_11 
REMARK    2  A    between atoms: N_11  and  C_12 
REMARK    3  A    between atoms: C_15  and  N_16 
REMARK       I    between atoms: N_16  and  C_17 
REMARK       I    between atoms: C_17  and  N_18 
REMARK    4  A    between atoms: N_18  and  C_19 
REMARK    5  A    between atoms: C_19  and  C_20 
ROOT
HETATM    1  C   UNL     1      43.988 -12.179   6.759  1.00  0.00     0.035 A 
HETATM    2  C   UNL     1      45.079 -11.565   7.369  1.00  0.00     0.032 A 
HETATM    3  C   UNL     1      44.958 -10.288   7.939  1.00  0.00     0.032 A 
HETATM    4  C   UNL     1      43.752  -9.592   7.883  1.00  0.00     0.036 A 
HETATM    5  C   UNL     1      42.656 -10.216   7.277  1.00  0.00     0.032 A 
HETATM    6  C   UNL     1      42.771 -11.496   6.722  1.00  0.00     0.032 A 
ENDROOT
BRANCH   1   7
HETATM    7  N   UNL     1      44.021 -13.467   6.203  1.00  0.00    -0.322 N 
HETATM    8  C   UNL     1      43.506 -14.643   6.714  1.00  0.00     0.277 C 
HETATM    9  O   UNL     1      42.968 -14.786   7.806  1.00  0.00    -0.266 OA
HETATM   10  H   UNL     1      44.466 -13.588   5.296  1.00  0.00     0.169 HD
BRANCH   8  11
HETATM   11  C   UNL     1      43.682 -15.766   5.770  1.00  0.00     0.157 A 
HETATM   12  C   UNL     1      42.911 -16.054   4.606  1.00  0.00     0.029 A 
HETATM   13  C   UNL     1      41.792 -15.488   3.962  1.00  0.00     0.023 A 
HETATM   14  C   UNL     1      43.497 -17.187   4.056  1.00  0.00     0.063 A 
HETATM   15  C   UNL     1      41.300 -16.076   2.785  1.00  0.00    -0.061 A 
HETATM   16  C   UNL     1      40.100 -15.499   2.090  1.00  0.00     0.048 C 
HETATM   17  C   UNL     1      41.925 -17.215   2.261  1.00  0.00     0.009 A 
HETATM   18  C   UNL     1      43.037 -17.793   2.884  1.00  0.00     0.032 A 
HETATM   19  N   UNL     1      44.533 -17.500   4.890  1.00  0.00    -0.277 N 
HETATM   20  H   UNL     1      45.184 -18.271   4.794  1.00  0.00     0.189 HD
HETATM   21  N   UNL     1      44.670 -16.676   5.945  1.00  0.00    -0.168 NA
ENDBRANCH   8  11
ENDBRANCH   1   7
BRANCH   4  22
HETATM   22  N   UNL     1      43.522  -8.319   8.437  1.00  0.00    -0.309 N 
HETATM   23  C   UNL     1      43.319  -7.861   9.701  1.00  0.00     0.320 C 
HETATM   24  N   UNL     1      43.587  -8.694  10.739  1.00  0.00    -0.339 N 
HETATM   25  O   UNL     1      42.934  -6.703   9.855  1.00  0.00    -0.247 OA
HETATM   26  H   UNL     1      44.376  -9.303  10.577  1.00  0.00     0.164 HD
HETATM   27  H   UNL     1      43.420  -7.559   7.776  1.00  0.00     0.170 HD
BRANCH  24  28
HETATM   28  C   UNL     1      43.449  -8.215  12.093  1.00  0.00     0.150 C 
BRANCH  28  29
HETATM   29  C   UNL     1      42.521  -9.095  12.874  1.00  0.00    -0.018 C 
HETATM   30  C   UNL     1      42.131  -8.928  14.146  1.00  0.00     0.008 C 
ENDBRANCH  28  29
ENDBRANCH  24  28
ENDBRANCH   4  22
TORSDOF 5
ENDMDL
MODEL 6
REMARK VINA RESULT:      -8.0     14.800     17.253
REMARK  5 active torsions:
REMARK  status: ('A' for Active; 'I' for Inactive)
REMARK    1  A    between atoms: C_9  and  C_10 
REMARK       I    between atoms: C_10  and  N_11 
REMARK    2  A    between atoms: N_11  and  C_12 
REMARK    3  A    between atoms: C_15  and  N_16 
REMARK       I    between atoms: N_16  and  C_17 
REMARK       I    between atoms: C_17  and  N_18 
REMARK    4  A    between atoms: N_18  and  C_19 
REMARK    5  A    between atoms: C_19  and  C_20 
ROOT
HETATM    1  C   UNL     1      41.703 -30.853   2.101  1.00  0.00     0.035 A 
HETATM    2  C   UNL     1      40.914 -31.916   1.668  1.00  0.00     0.032 A 
HETATM    3  C   UNL     1      39.995 -32.528   2.535  1.00  0.00     0.032 A 
HETATM    4  C   UNL     1      39.870 -32.105   3.857  1.00  0.00     0.036 A 
HETATM    5  C   UNL     1      40.658 -31.031   4.286  1.00  0.00     0.032 A 
HETATM    6  C   UNL     1      41.564 -30.410   3.417  1.00  0.00     0.032 A 
ENDROOT
BRANCH   1   7
HETATM    7  N   UNL     1      42.615 -30.168   1.284  1.00  0.00    -0.322 N 
HETATM    8  C   UNL     1      43.540 -30.686   0.397  1.00  0.00     0.277 C 
HETATM    9  O   UNL     1      43.779 -31.874   0.208  1.00  0.00    -0.266 OA
HETATM   10  H   UNL     1      42.617 -29.151   1.312  1.00  0.00     0.169 HD
BRANCH   8  11
HETATM   11  C   UNL     1      44.251 -29.615  -0.331  1.00  0.00     0.157 A 
HETATM   12  C   UNL     1      44.384 -29.461  -1.742  1.00  0.00     0.029 A 
HETATM   13  C   UNL     1      43.974 -30.177  -2.886  1.00  0.00     0.023 A 
HETATM   14  C   UNL     1      45.108 -28.289  -1.911  1.00  0.00     0.063 A 
HETATM   15  C   UNL     1      44.304 -29.690  -4.162  1.00  0.00    -0.061 A 
HETATM   16  C   UNL     1      43.892 -30.443  -5.394  1.00  0.00     0.048 C 
HETATM   17  C   UNL     1      45.032 -28.499  -4.287  1.00  0.00     0.009 A 
HETATM   18  C   UNL     1      45.447 -27.773  -3.165  1.00  0.00     0.032 A 
HETATM   19  N   UNL     1      45.362 -27.835  -0.647  1.00  0.00    -0.277 N 
HETATM   20  H   UNL     1      45.869 -26.996  -0.389  1.00  0.00     0.189 HD
HETATM   21  N   UNL     1      44.874 -28.614   0.335  1.00  0.00    -0.168 NA
ENDBRANCH   8  11
ENDBRANCH   1   7
BRANCH   4  22
HETATM   22  N   UNL     1      38.969 -32.637   4.798  1.00  0.00    -0.309 N 
HETATM   23  C   UNL     1      37.654 -32.981   4.758  1.00  0.00     0.320 C 
HETATM   24  N   UNL     1      37.047 -33.067   3.546  1.00  0.00    -0.339 N 
HETATM   25  O   UNL     1      37.076 -33.232   5.815  1.00  0.00    -0.247 OA
HETATM   26  H   UNL     1      37.649 -33.415   2.815  1.00  0.00     0.164 HD
HETATM   27  H   UNL     1      39.324 -32.749   5.739  1.00  0.00     0.170 HD
BRANCH  24  28
HETATM   28  C   UNL     1      35.672 -33.497   3.466  1.00  0.00     0.150 C 
BRANCH  28  29
HETATM   29  C   UNL     1      35.571 -34.829   2.786  1.00  0.00    -0.018 C 
HETATM   30  C   UNL     1      35.184 -35.988   3.338  1.00  0.00     0.008 C 
ENDBRANCH  28  29
ENDBRANCH  24  28
ENDBRANCH   4  22
TORSDOF 5
ENDMDL
MODEL 7
REMARK VINA RESULT:      -7.8      4.773      7.373
REMARK  5 active torsions:
REMARK  status: ('A' for Active; 'I' for Inactive)
REMARK    1  A    between atoms: C_9  and  C_10 
REMARK       I    between atoms: C_10  and  N_11 
REMARK    2  A    between atoms: N_11  and  C_12 
REMARK    3  A    between atoms: C_15  and  N_16 
REMARK       I    between atoms: N_16  and  C_17 
REMARK       I    between atoms: C_17  and  N_18 
REMARK    4  A    between atoms: N_18  and  C_19 
REMARK    5  A    between atoms: C_19  and  C_20 
ROOT
HETATM    1  C   UNL     1      41.714 -12.568   5.138  1.00  0.00     0.035 A 
HETATM    2  C   UNL     1      42.534 -11.503   5.504  1.00  0.00     0.032 A 
HETATM    3  C   UNL     1      42.044 -10.466   6.316  1.00  0.00     0.032 A 
HETATM    4  C   UNL     1      40.720 -10.464   6.750  1.00  0.00     0.036 A 
HETATM    5  C   UNL     1      39.903 -11.541   6.387  1.00  0.00     0.032 A 
HETATM    6  C   UNL     1      40.394 -12.582   5.591  1.00  0.00     0.032 A 
ENDROOT
BRANCH   1   7
HETATM    7  N   UNL     1      42.141 -13.657   4.363  1.00  0.00    -0.322 N 
HETATM    8  C   UNL     1      42.931 -14.728   4.739  1.00  0.00     0.277 C 
HETATM    9  O   UNL     1      43.465 -14.889   5.830  1.00  0.00    -0.266 OA
HETATM   10  H   UNL     1      41.840 -13.705   3.393  1.00  0.00     0.169 HD
BRANCH   8  11
HETATM   11  C   UNL     1      43.077 -15.704   3.638  1.00  0.00     0.157 A 
HETATM   12  C   UNL     1      43.349 -17.099   3.742  1.00  0.00     0.029 A 
HETATM   13  C   UNL     1      43.587 -18.014   4.789  1.00  0.00     0.023 A 
HETATM   14  C   UNL     1      43.357 -17.564   2.434  1.00  0.00     0.063 A 
HETATM   15  C   UNL     1      43.822 -19.365   4.487  1.00  0.00    -0.061 A 
HETATM   16  C   UNL     1      44.093 -20.354   5.584  1.00  0.00     0.048 C 
HETATM   17  C   UNL     1      43.815 -19.793   3.153  1.00  0.00     0.009 A 
HETATM   18  C   UNL     1      43.581 -18.902   2.099  1.00  0.00     0.032 A 
HETATM   19  N   UNL     1      43.108 -16.466   1.658  1.00  0.00    -0.277 N 
HETATM   20  H   UNL     1      43.040 -16.435   0.647  1.00  0.00     0.189 HD
HETATM   21  N   UNL     1      42.948 -15.321   2.346  1.00  0.00    -0.168 NA
ENDBRANCH   8  11
ENDBRANCH   1   7
BRANCH   4  22
HETATM   22  N   UNL     1      40.138  -9.486   7.577  1.00  0.00    -0.309 N 
HETATM   23  C   UNL     1      40.228  -9.195   8.903  1.00  0.00     0.320 C 
HETATM   24  N   UNL     1      41.221  -9.774   9.624  1.00  0.00    -0.339 N 
HETATM   25  O   UNL     1      39.429  -8.394   9.387  1.00  0.00    -0.247 OA
HETATM   26  H   UNL     1      42.079  -9.897   9.108  1.00  0.00     0.164 HD
HETATM   27  H   UNL     1      39.453  -8.884   7.139  1.00  0.00     0.170 HD
BRANCH  24  28
HETATM   28  C   UNL     1      41.384  -9.432  11.017  1.00  0.00     0.150 C 
BRANCH  28  29
HETATM   29  C   UNL     1      42.825  -9.521  11.419  1.00  0.00    -0.018 C 
HETATM   30  C   UNL     1      43.547  -8.582  12.047  1.00  0.00     0.008 C 
ENDBRANCH  28  29
ENDBRANCH  24  28
ENDBRANCH   4  22
TORSDOF 5
ENDMDL
MODEL 8
REMARK VINA RESULT:      -7.6      4.763      6.538
REMARK  5 active torsions:
REMARK  status: ('A' for Active; 'I' for Inactive)
REMARK    1  A    between atoms: C_9  and  C_10 
REMARK       I    between atoms: C_10  and  N_11 
REMARK    2  A    between atoms: N_11  and  C_12 
REMARK    3  A    between atoms: C_15  and  N_16 
REMARK       I    between atoms: N_16  and  C_17 
REMARK       I    between atoms: C_17  and  N_18 
REMARK    4  A    between atoms: N_18  and  C_19 
REMARK    5  A    between atoms: C_19  and  C_20 
ROOT
HETATM    1  C   UNL     1      42.614 -12.655   3.673  1.00  0.00     0.035 A 
HETATM    2  C   UNL     1      41.266 -12.339   3.518  1.00  0.00     0.032 A 
HETATM    3  C   UNL     1      40.482 -12.991   2.552  1.00  0.00     0.032 A 
HETATM    4  C   UNL     1      41.041 -13.948   1.707  1.00  0.00     0.036 A 
HETATM    5  C   UNL     1      42.393 -14.269   1.873  1.00  0.00     0.032 A 
HETATM    6  C   UNL     1      43.171 -13.631   2.846  1.00  0.00     0.032 A 
ENDROOT
BRANCH   1   7
HETATM    7  N   UNL     1      43.450 -12.074   4.639  1.00  0.00    -0.322 N 
HETATM    8  C   UNL     1      43.699 -12.496   5.932  1.00  0.00     0.277 C 
HETATM    9  O   UNL     1      43.170 -13.444   6.502  1.00  0.00    -0.266 OA
HETATM   10  H   UNL     1      43.968 -11.236   4.387  1.00  0.00     0.169 HD
BRANCH   8  11
HETATM   11  C   UNL     1      44.711 -11.646   6.592  1.00  0.00     0.157 A 
HETATM   12  C   UNL     1      44.625 -11.024   7.872  1.00  0.00     0.029 A 
HETATM   13  C   UNL     1      43.665 -10.943   8.901  1.00  0.00     0.023 A 
HETATM   14  C   UNL     1      45.839 -10.369   8.037  1.00  0.00     0.063 A 
HETATM   15  C   UNL     1      43.955 -10.210  10.063  1.00  0.00    -0.061 A 
HETATM   16  C   UNL     1      42.941 -10.098  11.166  1.00  0.00     0.048 C 
HETATM   17  C   UNL     1      45.194  -9.569  10.192  1.00  0.00     0.009 A 
HETATM   18  C   UNL     1      46.162  -9.637   9.183  1.00  0.00     0.032 A 
HETATM   19  N   UNL     1      46.544 -10.620   6.894  1.00  0.00    -0.277 N 
HETATM   20  H   UNL     1      47.479 -10.298   6.669  1.00  0.00     0.189 HD
HETATM   21  N   UNL     1      45.893 -11.374   5.990  1.00  0.00    -0.168 NA
ENDBRANCH   8  11
ENDBRANCH   1   7
BRANCH   4  22
HETATM   22  N   UNL     1      40.340 -14.670   0.723  1.00  0.00    -0.309 N 
HETATM   23  C   UNL     1      40.054 -14.447  -0.588  1.00  0.00     0.320 C 
HETATM   24  N   UNL     1      40.717 -13.452  -1.232  1.00  0.00    -0.339 N 
HETATM   25  O   UNL     1      39.233 -15.174  -1.145  1.00  0.00    -0.247 OA
HETATM   26  H   UNL     1      41.674 -13.341  -0.932  1.00  0.00     0.164 HD
HETATM   27  H   UNL     1      39.886 -15.519   1.034  1.00  0.00     0.170 HD
BRANCH  24  28
HETATM   28  C   UNL     1      40.485 -13.236  -2.640  1.00  0.00     0.150 C 
BRANCH  28  29
HETATM   29  C   UNL     1      41.021 -11.903  -3.066  1.00  0.00    -0.018 C 
HETATM   30  C   UNL     1      41.088 -10.786  -2.327  1.00  0.00     0.008 C 
ENDBRANCH  28  29
ENDBRANCH  24  28
ENDBRANCH   4  22
TORSDOF 5
ENDMDL
MODEL 9
REMARK VINA RESULT:      -7.4      2.682      4.269
REMARK  5 active torsions:
REMARK  status: ('A' for Active; 'I' for Inactive)
REMARK    1  A    between atoms: C_9  and  C_10 
REMARK       I    between atoms: C_10  and  N_11 
REMARK    2  A    between atoms: N_11  and  C_12 
REMARK    3  A    between atoms: C_15  and  N_16 
REMARK       I    between atoms: N_16  and  C_17 
REMARK       I    between atoms: C_17  and  N_18 
REMARK    4  A    between atoms: N_18  and  C_19 
REMARK    5  A    between atoms: C_19  and  C_20 
ROOT
HETATM    1  C   UNL     1      40.527 -14.252   0.214  1.00  0.00     0.035 A 
HETATM    2  C   UNL     1      39.723 -14.776  -0.796  1.00  0.00     0.032 A 
HETATM    3  C   UNL     1      39.042 -13.927  -1.683  1.00  0.00     0.032 A 
HETATM    4  C   UNL     1      39.133 -12.542  -1.558  1.00  0.00     0.036 A 
HETATM    5  C   UNL     1      39.949 -12.021  -0.548  1.00  0.00     0.032 A 
HETATM    6  C   UNL     1      40.641 -12.866   0.328  1.00  0.00     0.032 A 
ENDROOT
BRANCH   1   7
HETATM    7  N   UNL     1      41.267 -15.035   1.114  1.00  0.00    -0.322 N 
HETATM    8  C   UNL     1      40.813 -15.788   2.181  1.00  0.00     0.277 C 
HETATM    9  O   UNL     1      39.656 -15.857   2.581  1.00  0.00    -0.266 OA
HETATM   10  H   UNL     1      42.275 -15.090   0.989  1.00  0.00     0.169 HD
BRANCH   8  11
HETATM   11  C   UNL     1      41.914 -16.532   2.825  1.00  0.00     0.157 A 
HETATM   12  C   UNL     1      42.616 -16.189   4.018  1.00  0.00     0.029 A 
HETATM   13  C   UNL     1      42.582 -15.132   4.949  1.00  0.00     0.023 A 
HETATM   14  C   UNL     1      43.526 -17.221   4.211  1.00  0.00     0.063 A 
HETATM   15  C   UNL     1      43.461 -15.145   6.044  1.00  0.00    -0.061 A 
HETATM   16  C   UNL     1      43.453 -14.021   7.041  1.00  0.00     0.048 C 
HETATM   17  C   UNL     1      44.360 -16.207   6.204  1.00  0.00     0.009 A 
HETATM   18  C   UNL     1      44.410 -17.268   5.292  1.00  0.00     0.032 A 
HETATM   19  N   UNL     1      43.330 -18.077   3.164  1.00  0.00    -0.277 N 
HETATM   20  H   UNL     1      43.822 -18.945   2.983  1.00  0.00     0.189 HD
HETATM   21  N   UNL     1      42.376 -17.690   2.297  1.00  0.00    -0.168 NA
ENDBRANCH   8  11
ENDBRANCH   1   7
BRANCH   4  22
HETATM   22  N   UNL     1      38.507 -11.607  -2.404  1.00  0.00    -0.309 N 
HETATM   23  C   UNL     1      38.953 -10.564  -3.154  1.00  0.00     0.320 C 
HETATM   24  N   UNL     1      40.289 -10.450  -3.368  1.00  0.00    -0.339 N 
HETATM   25  O   UNL     1      38.129  -9.788  -3.636  1.00  0.00    -0.247 OA
HETATM   26  H   UNL     1      40.763 -11.336  -3.461  1.00  0.00     0.164 HD
HETATM   27  H   UNL     1      37.497 -11.652  -2.444  1.00  0.00     0.170 HD
BRANCH  24  28
HETATM   28  C   UNL     1      40.788  -9.394  -4.216  1.00  0.00     0.150 C 
BRANCH  28  29
HETATM   29  C   UNL     1      41.479  -8.342  -3.403  1.00  0.00    -0.018 C 
HETATM   30  C   UNL     1      41.917  -8.456  -2.141  1.00  0.00     0.008 C 
ENDBRANCH  28  29
ENDBRANCH  24  28
ENDBRANCH   4  22
TORSDOF 5
ENDMDL
MODEL 10
REMARK VINA RESULT:      -7.4      4.954      9.345
REMARK  5 active torsions:
REMARK  status: ('A' for Active; 'I' for Inactive)
REMARK    1  A    between atoms: C_9  and  C_10 
REMARK       I    between atoms: C_10  and  N_11 
REMARK    2  A    between atoms: N_11  and  C_12 
REMARK    3  A    between atoms: C_15  and  N_16 
REMARK       I    between atoms: N_16  and  C_17 
REMARK       I    between atoms: C_17  and  N_18 
REMARK    4  A    between atoms: N_18  and  C_19 
REMARK    5  A    between atoms: C_19  and  C_20 
ROOT
HETATM    1  C   UNL     1      42.474 -12.124   5.136  1.00  0.00     0.035 A 
HETATM    2  C   UNL     1      42.150 -10.892   5.700  1.00  0.00     0.032 A 
HETATM    3  C   UNL     1      42.925 -10.353   6.739  1.00  0.00     0.032 A 
HETATM    4  C   UNL     1      44.019 -11.050   7.250  1.00  0.00     0.036 A 
HETATM    5  C   UNL     1      44.346 -12.282   6.674  1.00  0.00     0.032 A 
HETATM    6  C   UNL     1      43.583 -12.813   5.627  1.00  0.00     0.032 A 
ENDROOT
BRANCH   1   7
HETATM    7  N   UNL     1      41.771 -12.708   4.071  1.00  0.00    -0.322 N 
HETATM    8  C   UNL     1      41.792 -12.369   2.731  1.00  0.00     0.277 C 
HETATM    9  O   UNL     1      42.398 -11.428   2.230  1.00  0.00    -0.266 OA
HETATM   10  H   UNL     1      41.163 -13.499   4.272  1.00  0.00     0.169 HD
BRANCH   8  11
HETATM   11  C   UNL     1      40.967 -13.293   1.926  1.00  0.00     0.157 A 
HETATM   12  C   UNL     1      40.721 -13.242   0.523  1.00  0.00     0.029 A 
HETATM   13  C   UNL     1      41.084 -12.395  -0.544  1.00  0.00     0.023 A 
HETATM   14  C   UNL     1      39.918 -14.344   0.257  1.00  0.00     0.063 A 
HETATM   15  C   UNL     1      40.632 -12.683  -1.842  1.00  0.00    -0.061 A 
HETATM   16  C   UNL     1      40.995 -11.786  -2.991  1.00  0.00     0.048 C 
HETATM   17  C   UNL     1      39.829 -13.809  -2.067  1.00  0.00     0.009 A 
HETATM   18  C   UNL     1      39.456 -14.663  -1.023  1.00  0.00     0.032 A 
HETATM   19  N   UNL     1      39.733 -14.957   1.465  1.00  0.00    -0.277 N 
HETATM   20  H   UNL     1      39.198 -15.798   1.648  1.00  0.00     0.189 HD
HETATM   21  N   UNL     1      40.338 -14.345   2.500  1.00  0.00    -0.168 NA
ENDBRANCH   8  11
ENDBRANCH   1   7
BRANCH   4  22
HETATM   22  N   UNL     1      44.868 -10.590   8.274  1.00  0.00    -0.309 N 
HETATM   23  C   UNL     1      44.702 -10.350   9.602  1.00  0.00     0.320 C 
HETATM   24  N   UNL     1      43.581 -10.821  10.207  1.00  0.00    -0.339 N 
HETATM   25  O   UNL     1      45.586  -9.746  10.208  1.00  0.00    -0.247 OA
HETATM   26  H   UNL     1      43.267 -11.708   9.845  1.00  0.00     0.164 HD
HETATM   27  H   UNL     1      45.798 -10.312   7.988  1.00  0.00     0.170 HD
BRANCH  24  28
HETATM   28  C   UNL     1      43.409 -10.642  11.629  1.00  0.00     0.150 C 
BRANCH  28  29
HETATM   29  C   UNL     1      42.607  -9.408  11.915  1.00  0.00    -0.018 C 
HETATM   30  C   UNL     1      43.077  -8.166  12.098  1.00  0.00     0.008 C 
ENDBRANCH  28  29
ENDBRANCH  24  28
ENDBRANCH   4  22
TORSDOF 5
ENDMDL
