MODEL 1
REMARK VINA RESULT:      -9.0      0.000      0.000
REMARK  5 active torsions:
REMARK  status: ('A' for Active; 'I' for Inactive)
REMARK    1  A    between atoms: C_7  and  C_8 
REMARK    2  A    between atoms: N_9  and  N_10 
REMARK       I    between atoms: N_10  and  C_11 
REMARK    3  A    between atoms: C_11  and  C_12 
REMARK    4  A    between atoms: C_12  and  N_13 
REMARK       I    between atoms: N_13  and  C_14 
REMARK    5  A    between atoms: C_14  and  C_15 
ROOT
HETATM    1  N   UNL     1      40.689 -14.356   2.812  1.00  0.00    -0.246 N 
HETATM    2  C   UNL     1      40.079 -13.312   3.489  1.00  0.00     0.255 C 
HETATM    3  O   UNL     1      39.926 -13.244   4.708  1.00  0.00    -0.270 OA
HETATM    4  H   UNL     1      40.638 -14.379   1.791  1.00  0.00     0.192 HD
ENDROOT
BRANCH   1   5
HETATM    5  N   UNL     1      41.205 -15.418   3.496  1.00  0.00    -0.184 NA
HETATM    6  C   UNL     1      42.485 -15.571   3.393  1.00  0.00     0.153 C 
BRANCH   6   7
HETATM    7  C   UNL     1      43.148 -16.682   4.052  1.00  0.00     0.018 A 
HETATM    8  C   UNL     1      43.744 -16.675   5.306  1.00  0.00     0.018 A 
HETATM    9  C   UNL     1      43.891 -15.591   6.315  1.00  0.00     0.069 C 
HETATM   10  N   UNL     1      44.233 -17.936   5.543  1.00  0.00    -0.358 N 
HETATM   11  H   UNL     1      44.715 -18.221   6.384  1.00  0.00     0.166 HD
HETATM   12  C   UNL     1      43.976 -18.765   4.479  1.00  0.00     0.043 A 
HETATM   13  C   UNL     1      43.299 -18.008   3.523  1.00  0.00     0.004 A 
HETATM   14  C   UNL     1      44.293 -20.116   4.295  1.00  0.00     0.030 A 
HETATM   15  C   UNL     1      42.925 -18.638   2.317  1.00  0.00     0.014 A 
HETATM   16  C   UNL     1      43.237 -19.987   2.113  1.00  0.00     0.001 A 
HETATM   17  C   UNL     1      43.909 -20.714   3.092  1.00  0.00     0.002 A 
ENDBRANCH   6   7
ENDBRANCH   1   5
BRANCH   2  18
HETATM   18  C   UNL     1      39.471 -12.264   2.553  1.00  0.00     0.227 C 
BRANCH  18  19
HETATM   19  N   UNL     1      38.927 -12.802   1.310  1.00  0.00    -0.348 N 
HETATM   20  C   UNL     1      39.451 -12.465   0.082  1.00  0.00     0.252 C 
HETATM   21  O   UNL     1      40.292 -11.576  -0.026  1.00  0.00    -0.268 OA
HETATM   22  H   UNL     1      38.088 -13.358   1.385  1.00  0.00     0.163 HD
BRANCH  20  23
HETATM   23  C   UNL     1      38.926 -13.161  -1.128  1.00  0.00     0.035 A 
HETATM   24  C   UNL     1      37.727 -12.688  -1.678  1.00  0.00     0.059 A 
HETATM   25  C   UNL     1      37.201 -13.290  -2.814  1.00  0.00     0.117 A 
HETATM   26  F   UNL     1      36.055 -12.828  -3.333  1.00  0.00    -0.206 F 
HETATM   27  C   UNL     1      37.843 -14.361  -3.422  1.00  0.00     0.042 A 
HETATM   28  C   UNL     1      39.040 -14.834  -2.888  1.00  0.00     0.004 A 
HETATM   29  C   UNL     1      39.585 -14.234  -1.748  1.00  0.00     0.017 A 
ENDBRANCH  20  23
ENDBRANCH  18  19
ENDBRANCH   2  18
TORSDOF 5
ENDMDL
MODEL 2
REMARK VINA RESULT:      -8.9      1.338      1.338
REMARK  5 active torsions:
REMARK  status: ('A' for Active; 'I' for Inactive)
REMARK    1  A    between atoms: C_7  and  C_8 
REMARK    2  A    between atoms: N_9  and  N_10 
REMARK       I    between atoms: N_10  and  C_11 
REMARK    3  A    between atoms: C_11  and  C_12 
REMARK    4  A    between atoms: C_12  and  N_13 
REMARK       I    between atoms: N_13  and  C_14 
REMARK    5  A    between atoms: C_14  and  C_15 
ROOT
HETATM    1  N   UNL     1      42.587 -13.797   1.945  1.00  0.00    -0.246 N 
HETATM    2  C   UNL     1      42.474 -12.489   2.390  1.00  0.00     0.255 C 
HETATM    3  O   UNL     1      42.930 -12.052   3.447  1.00  0.00    -0.270 OA
HETATM    4  H   UNL     1      42.052 -14.086   1.124  1.00  0.00     0.192 HD
ENDROOT
BRANCH   1   5
HETATM    5  N   UNL     1      43.265 -14.723   2.682  1.00  0.00    -0.184 NA
HETATM    6  C   UNL     1      42.568 -15.747   3.057  1.00  0.00     0.153 C 
BRANCH   6   7
HETATM    7  C   UNL     1      43.170 -16.788   3.871  1.00  0.00     0.018 A 
HETATM    8  C   UNL     1      43.660 -16.660   5.163  1.00  0.00     0.018 A 
HETATM    9  C   UNL     1      43.727 -15.484   6.074  1.00  0.00     0.069 C 
HETATM   10  N   UNL     1      44.123 -17.890   5.559  1.00  0.00    -0.358 N 
HETATM   11  H   UNL     1      44.533 -18.092   6.460  1.00  0.00     0.166 HD
HETATM   12  C   UNL     1      43.953 -18.817   4.560  1.00  0.00     0.043 A 
HETATM   13  C   UNL     1      43.359 -18.157   3.484  1.00  0.00     0.004 A 
HETATM   14  C   UNL     1      44.279 -20.179   4.531  1.00  0.00     0.030 A 
HETATM   15  C   UNL     1      43.084 -18.899   2.316  1.00  0.00     0.014 A 
HETATM   16  C   UNL     1      43.407 -20.261   2.267  1.00  0.00     0.001 A 
HETATM   17  C   UNL     1      43.993 -20.889   3.363  1.00  0.00     0.002 A 
ENDBRANCH   6   7
ENDBRANCH   1   5
BRANCH   2  18
HETATM   18  C   UNL     1      41.593 -11.622   1.487  1.00  0.00     0.227 C 
BRANCH  18  19
HETATM   19  N   UNL     1      40.965 -12.338   0.382  1.00  0.00    -0.348 N 
HETATM   20  C   UNL     1      39.603 -12.523   0.317  1.00  0.00     0.252 C 
HETATM   21  O   UNL     1      38.877 -12.234   1.266  1.00  0.00    -0.268 OA
HETATM   22  H   UNL     1      41.584 -12.775  -0.286  1.00  0.00     0.163 HD
BRANCH  20  23
HETATM   23  C   UNL     1      39.029 -13.147  -0.911  1.00  0.00     0.035 A 
HETATM   24  C   UNL     1      37.904 -12.538  -1.481  1.00  0.00     0.059 A 
HETATM   25  C   UNL     1      37.338 -13.071  -2.634  1.00  0.00     0.117 A 
HETATM   26  F   UNL     1      36.264 -12.480  -3.174  1.00  0.00    -0.206 F 
HETATM   27  C   UNL     1      37.869 -14.203  -3.237  1.00  0.00     0.042 A 
HETATM   28  C   UNL     1      38.993 -14.812  -2.682  1.00  0.00     0.004 A 
HETATM   29  C   UNL     1      39.577 -14.284  -1.525  1.00  0.00     0.017 A 
ENDBRANCH  20  23
ENDBRANCH  18  19
ENDBRANCH   2  18
TORSDOF 5
ENDMDL
MODEL 3
REMARK VINA RESULT:      -8.8      6.820      9.823
REMARK  5 active torsions:
REMARK  status: ('A' for Active; 'I' for Inactive)
REMARK    1  A    between atoms: C_7  and  C_8 
REMARK    2  A    between atoms: N_9  and  N_10 
REMARK       I    between atoms: N_10  and  C_11 
REMARK    3  A    between atoms: C_11  and  C_12 
REMARK    4  A    between atoms: C_12  and  N_13 
REMARK       I    between atoms: N_13  and  C_14 
REMARK    5  A    between atoms: C_14  and  C_15 
ROOT
HETATM    1  N   UNL     1      43.147 -12.290   6.881  1.00  0.00    -0.246 N 
HETATM    2  C   UNL     1      43.920 -11.378   7.582  1.00  0.00     0.255 C 
HETATM    3  O   UNL     1      45.081 -11.558   7.948  1.00  0.00    -0.270 OA
HETATM    4  H   UNL     1      42.151 -12.096   6.751  1.00  0.00     0.192 HD
ENDROOT
BRANCH   1   5
HETATM    5  N   UNL     1      43.662 -13.499   6.515  1.00  0.00    -0.184 NA
HETATM    6  C   UNL     1      42.795 -14.363   6.095  1.00  0.00     0.153 C 
BRANCH   6   7
HETATM    7  C   UNL     1      43.216 -15.696   5.704  1.00  0.00     0.018 A 
HETATM    8  C   UNL     1      43.692 -16.700   6.537  1.00  0.00     0.018 A 
HETATM    9  C   UNL     1      43.915 -16.729   8.009  1.00  0.00     0.069 C 
HETATM   10  N   UNL     1      43.957 -17.799   5.758  1.00  0.00    -0.358 N 
HETATM   11  H   UNL     1      44.312 -18.680   6.102  1.00  0.00     0.166 HD
HETATM   12  C   UNL     1      43.671 -17.540   4.440  1.00  0.00     0.043 A 
HETATM   13  C   UNL     1      43.207 -16.227   4.371  1.00  0.00     0.004 A 
HETATM   14  C   UNL     1      43.790 -18.366   3.315  1.00  0.00     0.030 A 
HETATM   15  C   UNL     1      42.849 -15.712   3.106  1.00  0.00     0.014 A 
HETATM   16  C   UNL     1      42.965 -16.521   1.970  1.00  0.00     0.001 A 
HETATM   17  C   UNL     1      43.427 -17.830   2.077  1.00  0.00     0.002 A 
ENDBRANCH   6   7
ENDBRANCH   1   5
BRANCH   2  18
HETATM   18  C   UNL     1      43.143 -10.124   7.994  1.00  0.00     0.227 C 
BRANCH  18  19
HETATM   19  N   UNL     1      42.816 -10.052   9.414  1.00  0.00    -0.348 N 
HETATM   20  C   UNL     1      43.130  -8.950  10.177  1.00  0.00     0.252 C 
HETATM   21  O   UNL     1      43.841  -8.053   9.732  1.00  0.00    -0.268 OA
HETATM   22  H   UNL     1      42.432 -10.886   9.834  1.00  0.00     0.163 HD
BRANCH  20  23
HETATM   23  C   UNL     1      42.642  -8.900  11.586  1.00  0.00     0.035 A 
HETATM   24  C   UNL     1      41.562  -9.725  11.927  1.00  0.00     0.059 A 
HETATM   25  C   UNL     1      41.078  -9.728  13.230  1.00  0.00     0.117 A 
HETATM   26  F   UNL     1      40.047 -10.523  13.547  1.00  0.00    -0.206 F 
HETATM   27  C   UNL     1      41.645  -8.923  14.209  1.00  0.00     0.042 A 
HETATM   28  C   UNL     1      42.724  -8.104  13.882  1.00  0.00     0.004 A 
HETATM   29  C   UNL     1      43.227  -8.095  12.576  1.00  0.00     0.017 A 
ENDBRANCH  20  23
ENDBRANCH  18  19
ENDBRANCH   2  18
TORSDOF 5
ENDMDL
MODEL 4
REMARK VINA RESULT:      -8.7      3.621      9.544
REMARK  5 active torsions:
REMARK  status: ('A' for Active; 'I' for Inactive)
REMARK    1  A    between atoms: C_7  and  C_8 
REMARK    2  A    between atoms: N_9  and  N_10 
REMARK       I    between atoms: N_10  and  C_11 
REMARK    3  A    between atoms: C_11  and  C_12 
REMARK    4  A    between atoms: C_12  and  N_13 
REMARK       I    between atoms: N_13  and  C_14 
REMARK    5  A    between atoms: C_14  and  C_15 
ROOT
HETATM    1  N   UNL     1      41.304 -14.455   0.180  1.00  0.00    -0.246 N 
HETATM    2  C   UNL     1      41.564 -14.262   1.528  1.00  0.00     0.255 C 
HETATM    3  O   UNL     1      40.779 -13.784   2.346  1.00  0.00    -0.270 OA
HETATM    4  H   UNL     1      42.072 -14.726  -0.437  1.00  0.00     0.192 HD
ENDROOT
BRANCH   1   5
HETATM    5  N   UNL     1      40.087 -14.128  -0.344  1.00  0.00    -0.184 NA
HETATM    6  C   UNL     1      40.115 -13.262  -1.304  1.00  0.00     0.153 C 
BRANCH   6   7
HETATM    7  C   UNL     1      38.882 -12.812  -1.925  1.00  0.00     0.018 A 
HETATM    8  C   UNL     1      38.112 -13.503  -2.850  1.00  0.00     0.018 A 
HETATM    9  C   UNL     1      38.295 -14.843  -3.472  1.00  0.00     0.069 C 
HETATM   10  N   UNL     1      37.027 -12.720  -3.159  1.00  0.00    -0.358 N 
HETATM   11  H   UNL     1      36.295 -12.975  -3.807  1.00  0.00     0.166 HD
HETATM   12  C   UNL     1      37.068 -11.537  -2.464  1.00  0.00     0.043 A 
HETATM   13  C   UNL     1      38.223 -11.560  -1.681  1.00  0.00     0.004 A 
HETATM   14  C   UNL     1      36.177 -10.457  -2.472  1.00  0.00     0.030 A 
HETATM   15  C   UNL     1      38.501 -10.440  -0.869  1.00  0.00     0.014 A 
HETATM   16  C   UNL     1      37.623  -9.350  -0.867  1.00  0.00     0.001 A 
HETATM   17  C   UNL     1      36.476  -9.363  -1.657  1.00  0.00     0.002 A 
ENDBRANCH   6   7
ENDBRANCH   1   5
BRANCH   2  18
HETATM   18  C   UNL     1      43.010 -14.587   1.911  1.00  0.00     0.227 C 
BRANCH  18  19
HETATM   19  N   UNL     1      43.303 -16.012   2.026  1.00  0.00    -0.348 N 
HETATM   20  C   UNL     1      43.340 -16.650   3.245  1.00  0.00     0.252 C 
HETATM   21  O   UNL     1      43.288 -16.016   4.295  1.00  0.00    -0.268 OA
HETATM   22  H   UNL     1      43.571 -16.490   1.178  1.00  0.00     0.163 HD
BRANCH  20  23
HETATM   23  C   UNL     1      43.513 -18.132   3.265  1.00  0.00     0.035 A 
HETATM   24  C   UNL     1      43.974 -18.714   4.453  1.00  0.00     0.059 A 
HETATM   25  C   UNL     1      44.139 -20.092   4.531  1.00  0.00     0.117 A 
HETATM   26  F   UNL     1      44.578 -20.639   5.673  1.00  0.00    -0.206 F 
HETATM   27  C   UNL     1      43.856 -20.911   3.446  1.00  0.00     0.042 A 
HETATM   28  C   UNL     1      43.390 -20.344   2.262  1.00  0.00     0.004 A 
HETATM   29  C   UNL     1      43.212 -18.958   2.171  1.00  0.00     0.017 A 
ENDBRANCH  20  23
ENDBRANCH  18  19
ENDBRANCH   2  18
TORSDOF 5
ENDMDL
MODEL 5
REMARK VINA RESULT:      -8.6      3.296      8.422
REMARK  5 active torsions:
REMARK  status: ('A' for Active; 'I' for Inactive)
REMARK    1  A    between atoms: C_7  and  C_8 
REMARK    2  A    between atoms: N_9  and  N_10 
REMARK       I    between atoms: N_10  and  C_11 
REMARK    3  A    between atoms: C_11  and  C_12 
REMARK    4  A    between atoms: C_12  and  N_13 
REMARK       I    between atoms: N_13  and  C_14 
REMARK    5  A    between atoms: C_14  and  C_15 
ROOT
HETATM    1  N   UNL     1      40.980 -14.659   3.186  1.00  0.00    -0.246 N 
HETATM    2  C   UNL     1      41.077 -14.334   4.530  1.00  0.00     0.255 C 
HETATM    3  O   UNL     1      40.354 -13.536   5.126  1.00  0.00    -0.270 OA
HETATM    4  H   UNL     1      41.718 -15.225   2.761  1.00  0.00     0.192 HD
ENDROOT
BRANCH   1   5
HETATM    5  N   UNL     1      40.012 -14.099   2.406  1.00  0.00    -0.184 NA
HETATM    6  C   UNL     1      40.418 -13.650   1.262  1.00  0.00     0.153 C 
BRANCH   6   7
HETATM    7  C   UNL     1      39.487 -13.006   0.353  1.00  0.00     0.018 A 
HETATM    8  C   UNL     1      38.880 -11.767   0.518  1.00  0.00     0.018 A 
HETATM    9  C   UNL     1      38.979 -10.766   1.615  1.00  0.00     0.069 C 
HETATM   10  N   UNL     1      38.091 -11.539  -0.583  1.00  0.00    -0.358 N 
HETATM   11  H   UNL     1      37.533 -10.710  -0.733  1.00  0.00     0.166 HD
HETATM   12  C   UNL     1      38.162 -12.593  -1.459  1.00  0.00     0.043 A 
HETATM   13  C   UNL     1      39.028 -13.534  -0.901  1.00  0.00     0.004 A 
HETATM   14  C   UNL     1      37.528 -12.782  -2.693  1.00  0.00     0.030 A 
HETATM   15  C   UNL     1      39.265 -14.728  -1.614  1.00  0.00     0.014 A 
HETATM   16  C   UNL     1      38.637 -14.935  -2.848  1.00  0.00     0.001 A 
HETATM   17  C   UNL     1      37.783 -13.972  -3.378  1.00  0.00     0.002 A 
ENDBRANCH   6   7
ENDBRANCH   1   5
BRANCH   2  18
HETATM   18  C   UNL     1      42.283 -14.979   5.218  1.00  0.00     0.227 C 
BRANCH  18  19
HETATM   19  N   UNL     1      42.482 -16.389   4.901  1.00  0.00    -0.348 N 
HETATM   20  C   UNL     1      43.232 -16.792   3.820  1.00  0.00     0.252 C 
HETATM   21  O   UNL     1      43.630 -15.982   2.987  1.00  0.00    -0.268 OA
HETATM   22  H   UNL     1      41.965 -17.056   5.456  1.00  0.00     0.163 HD
BRANCH  20  23
HETATM   23  C   UNL     1      43.497 -18.250   3.643  1.00  0.00     0.035 A 
HETATM   24  C   UNL     1      43.938 -18.968   4.762  1.00  0.00     0.059 A 
HETATM   25  C   UNL     1      44.185 -20.332   4.656  1.00  0.00     0.117 A 
HETATM   26  F   UNL     1      44.604 -21.011   5.733  1.00  0.00    -0.206 F 
HETATM   27  C   UNL     1      44.003 -21.003   3.454  1.00  0.00     0.042 A 
HETATM   28  C   UNL     1      43.558 -20.300   2.337  1.00  0.00     0.004 A 
HETATM   29  C   UNL     1      43.299 -18.928   2.430  1.00  0.00     0.017 A 
ENDBRANCH  20  23
ENDBRANCH  18  19
ENDBRANCH   2  18
TORSDOF 5
ENDMDL
MODEL 6
REMARK VINA RESULT:      -8.5      6.889      9.858
REMARK  5 active torsions:
REMARK  status: ('A' for Active; 'I' for Inactive)
REMARK    1  A    between atoms: C_7  and  C_8 
REMARK    2  A    between atoms: N_9  and  N_10 
REMARK       I    between atoms: N_10  and  C_11 
REMARK    3  A    between atoms: C_11  and  C_12 
REMARK    4  A    between atoms: C_12  and  N_13 
REMARK       I    between atoms: N_13  and  C_14 
REMARK    5  A    between atoms: C_14  and  C_15 
ROOT
HETATM    1  N   UNL     1      43.755 -11.662   6.953  1.00  0.00    -0.246 N 
HETATM    2  C   UNL     1      45.022 -11.187   6.655  1.00  0.00     0.255 C 
HETATM    3  O   UNL     1      45.535 -11.173   5.536  1.00  0.00    -0.270 OA
HETATM    4  H   UNL     1      43.483 -11.757   7.934  1.00  0.00     0.192 HD
ENDROOT
BRANCH   1   5
HETATM    5  N   UNL     1      42.948 -12.151   5.968  1.00  0.00    -0.184 NA
HETATM    6  C   UNL     1      42.607 -13.392   6.100  1.00  0.00     0.153 C 
BRANCH   6   7
HETATM    7  C   UNL     1      41.773 -14.036   5.101  1.00  0.00     0.018 A 
HETATM    8  C   UNL     1      40.475 -13.693   4.750  1.00  0.00     0.018 A 
HETATM    9  C   UNL     1      39.571 -12.624   5.258  1.00  0.00     0.069 C 
HETATM   10  N   UNL     1      40.071 -14.548   3.754  1.00  0.00    -0.358 N 
HETATM   11  H   UNL     1      39.167 -14.527   3.304  1.00  0.00     0.166 HD
HETATM   12  C   UNL     1      41.068 -15.441   3.447  1.00  0.00     0.043 A 
HETATM   13  C   UNL     1      42.150 -15.149   4.277  1.00  0.00     0.004 A 
HETATM   14  C   UNL     1      41.090 -16.477   2.505  1.00  0.00     0.030 A 
HETATM   15  C   UNL     1      43.313 -15.941   4.161  1.00  0.00     0.014 A 
HETATM   16  C   UNL     1      43.351 -16.984   3.227  1.00  0.00     0.001 A 
HETATM   17  C   UNL     1      42.253 -17.243   2.410  1.00  0.00     0.002 A 
ENDBRANCH   6   7
ENDBRANCH   1   5
BRANCH   2  18
HETATM   18  C   UNL     1      45.818 -10.777   7.897  1.00  0.00     0.227 C 
BRANCH  18  19
HETATM   19  N   UNL     1      45.028 -10.126   8.937  1.00  0.00    -0.348 N 
HETATM   20  C   UNL     1      44.886  -8.758   8.993  1.00  0.00     0.252 C 
HETATM   21  O   UNL     1      45.549  -8.022   8.267  1.00  0.00    -0.268 OA
HETATM   22  H   UNL     1      44.667 -10.719   9.670  1.00  0.00     0.163 HD
BRANCH  20  23
HETATM   23  C   UNL     1      43.954  -8.182  10.006  1.00  0.00     0.035 A 
HETATM   24  C   UNL     1      43.870  -8.825  11.247  1.00  0.00     0.059 A 
HETATM   25  C   UNL     1      43.028  -8.322  12.232  1.00  0.00     0.117 A 
HETATM   26  F   UNL     1      42.956  -8.943  13.418  1.00  0.00    -0.206 F 
HETATM   27  C   UNL     1      42.263  -7.185  12.010  1.00  0.00     0.042 A 
HETATM   28  C   UNL     1      42.345  -6.533  10.781  1.00  0.00     0.004 A 
HETATM   29  C   UNL     1      43.192  -7.024   9.782  1.00  0.00     0.017 A 
ENDBRANCH  20  23
ENDBRANCH  18  19
ENDBRANCH   2  18
TORSDOF 5
ENDMDL
MODEL 7
REMARK VINA RESULT:      -8.4      6.795      9.879
REMARK  5 active torsions:
REMARK  status: ('A' for Active; 'I' for Inactive)
REMARK    1  A    between atoms: C_7  and  C_8 
REMARK    2  A    between atoms: N_9  and  N_10 
REMARK       I    between atoms: N_10  and  C_11 
REMARK    3  A    between atoms: C_11  and  C_12 
REMARK    4  A    between atoms: C_12  and  N_13 
REMARK       I    between atoms: N_13  and  C_14 
REMARK    5  A    between atoms: C_14  and  C_15 
ROOT
HETATM    1  N   UNL     1      43.870 -12.848   6.787  1.00  0.00    -0.246 N 
HETATM    2  C   UNL     1      43.535 -11.530   7.054  1.00  0.00     0.255 C 
HETATM    3  O   UNL     1      42.875 -10.798   6.318  1.00  0.00    -0.270 OA
HETATM    4  H   UNL     1      44.539 -13.321   7.398  1.00  0.00     0.192 HD
ENDROOT
BRANCH   1   5
HETATM    5  N   UNL     1      43.447 -13.452   5.639  1.00  0.00    -0.184 NA
HETATM    6  C   UNL     1      42.948 -14.636   5.790  1.00  0.00     0.153 C 
BRANCH   6   7
HETATM    7  C   UNL     1      42.489 -15.393   4.640  1.00  0.00     0.018 A 
HETATM    8  C   UNL     1      41.447 -15.063   3.784  1.00  0.00     0.018 A 
HETATM    9  C   UNL     1      40.516 -13.901   3.775  1.00  0.00     0.069 C 
HETATM   10  N   UNL     1      41.367 -16.043   2.826  1.00  0.00    -0.358 N 
HETATM   11  H   UNL     1      40.697 -16.059   2.069  1.00  0.00     0.166 HD
HETATM   12  C   UNL     1      42.324 -17.005   3.033  1.00  0.00     0.043 A 
HETATM   13  C   UNL     1      43.045 -16.629   4.166  1.00  0.00     0.004 A 
HETATM   14  C   UNL     1      42.602 -18.169   2.307  1.00  0.00     0.030 A 
HETATM   15  C   UNL     1      44.095 -17.468   4.598  1.00  0.00     0.014 A 
HETATM   16  C   UNL     1      44.384 -18.638   3.886  1.00  0.00     0.001 A 
HETATM   17  C   UNL     1      43.647 -18.980   2.755  1.00  0.00     0.002 A 
ENDBRANCH   6   7
ENDBRANCH   1   5
BRANCH   2  18
HETATM   18  C   UNL     1      44.183 -10.994   8.333  1.00  0.00     0.227 C 
BRANCH  18  19
HETATM   19  N   UNL     1      43.242 -10.460   9.313  1.00  0.00    -0.348 N 
HETATM   20  C   UNL     1      43.532 -10.433  10.658  1.00  0.00     0.252 C 
HETATM   21  O   UNL     1      44.525 -11.003  11.105  1.00  0.00    -0.268 OA
HETATM   22  H   UNL     1      42.329 -10.199   8.970  1.00  0.00     0.163 HD
BRANCH  20  23
HETATM   23  C   UNL     1      42.575  -9.751  11.577  1.00  0.00     0.035 A 
HETATM   24  C   UNL     1      43.105  -9.109  12.704  1.00  0.00     0.059 A 
HETATM   25  C   UNL     1      42.259  -8.446  13.585  1.00  0.00     0.117 A 
HETATM   26  F   UNL     1      42.777  -7.833  14.659  1.00  0.00    -0.206 F 
HETATM   27  C   UNL     1      40.888  -8.404  13.370  1.00  0.00     0.042 A 
HETATM   28  C   UNL     1      40.351  -9.032  12.248  1.00  0.00     0.004 A 
HETATM   29  C   UNL     1      41.191  -9.699  11.349  1.00  0.00     0.017 A 
ENDBRANCH  20  23
ENDBRANCH  18  19
ENDBRANCH   2  18
TORSDOF 5
ENDMDL
MODEL 8
REMARK VINA RESULT:      -8.3      6.926     10.093
REMARK  5 active torsions:
REMARK  status: ('A' for Active; 'I' for Inactive)
REMARK    1  A    between atoms: C_7  and  C_8 
REMARK    2  A    between atoms: N_9  and  N_10 
REMARK       I    between atoms: N_10  and  C_11 
REMARK    3  A    between atoms: C_11  and  C_12 
REMARK    4  A    between atoms: C_12  and  N_13 
REMARK       I    between atoms: N_13  and  C_14 
REMARK    5  A    between atoms: C_14  and  C_15 
ROOT
HETATM    1  N   UNL     1      43.097 -11.312   6.252  1.00  0.00    -0.246 N 
HETATM    2  C   UNL     1      43.629 -11.156   7.522  1.00  0.00     0.255 C 
HETATM    3  O   UNL     1      44.084 -12.059   8.222  1.00  0.00    -0.270 OA
HETATM    4  H   UNL     1      42.619 -10.521   5.817  1.00  0.00     0.192 HD
ENDROOT
BRANCH   1   5
HETATM    5  N   UNL     1      43.064 -12.541   5.661  1.00  0.00    -0.184 NA
HETATM    6  C   UNL     1      41.889 -13.074   5.562  1.00  0.00     0.153 C 
BRANCH   6   7
HETATM    7  C   UNL     1      41.726 -14.393   4.978  1.00  0.00     0.018 A 
HETATM    8  C   UNL     1      40.980 -15.447   5.488  1.00  0.00     0.018 A 
HETATM    9  C   UNL     1      40.161 -15.559   6.726  1.00  0.00     0.069 C 
HETATM   10  N   UNL     1      41.088 -16.498   4.611  1.00  0.00    -0.358 N 
HETATM   11  H   UNL     1      40.643 -17.397   4.728  1.00  0.00     0.166 HD
HETATM   12  C   UNL     1      41.886 -16.162   3.545  1.00  0.00     0.043 A 
HETATM   13  C   UNL     1      42.307 -14.847   3.746  1.00  0.00     0.004 A 
HETATM   14  C   UNL     1      42.264 -16.919   2.430  1.00  0.00     0.030 A 
HETATM   15  C   UNL     1      43.154 -14.263   2.780  1.00  0.00     0.014 A 
HETATM   16  C   UNL     1      43.545 -15.007   1.661  1.00  0.00     0.001 A 
HETATM   17  C   UNL     1      43.102 -16.316   1.490  1.00  0.00     0.002 A 
ENDBRANCH   6   7
ENDBRANCH   1   5
BRANCH   2  18
HETATM   18  C   UNL     1      43.486  -9.730   8.061  1.00  0.00     0.227 C 
BRANCH  18  19
HETATM   19  N   UNL     1      42.887  -9.639   9.388  1.00  0.00    -0.348 N 
HETATM   20  C   UNL     1      43.634  -9.331  10.503  1.00  0.00     0.252 C 
HETATM   21  O   UNL     1      44.860  -9.279  10.450  1.00  0.00    -0.268 OA
HETATM   22  H   UNL     1      41.917  -9.905   9.468  1.00  0.00     0.163 HD
BRANCH  20  23
HETATM   23  C   UNL     1      42.924  -9.126  11.799  1.00  0.00     0.035 A 
HETATM   24  C   UNL     1      41.810  -9.934  12.061  1.00  0.00     0.059 A 
HETATM   25  C   UNL     1      41.120  -9.795  13.260  1.00  0.00     0.117 A 
HETATM   26  F   UNL     1      40.058 -10.574  13.503  1.00  0.00    -0.206 F 
HETATM   27  C   UNL     1      41.515  -8.864  14.212  1.00  0.00     0.042 A 
HETATM   28  C   UNL     1      42.626  -8.060  13.964  1.00  0.00     0.004 A 
HETATM   29  C   UNL     1      43.334  -8.193  12.764  1.00  0.00     0.017 A 
ENDBRANCH  20  23
ENDBRANCH  18  19
ENDBRANCH   2  18
TORSDOF 5
ENDMDL
MODEL 9
REMARK VINA RESULT:      -8.3      3.192      8.726
REMARK  5 active torsions:
REMARK  status: ('A' for Active; 'I' for Inactive)
REMARK    1  A    between atoms: C_7  and  C_8 
REMARK    2  A    between atoms: N_9  and  N_10 
REMARK       I    between atoms: N_10  and  C_11 
REMARK    3  A    between atoms: C_11  and  C_12 
REMARK    4  A    between atoms: C_12  and  N_13 
REMARK       I    between atoms: N_13  and  C_14 
REMARK    5  A    between atoms: C_14  and  C_15 
ROOT
HETATM    1  N   UNL     1      40.006 -14.316   2.459  1.00  0.00    -0.246 N 
HETATM    2  C   UNL     1      41.219 -14.234   3.123  1.00  0.00     0.255 C 
HETATM    3  O   UNL     1      42.184 -13.557   2.768  1.00  0.00    -0.270 OA
HETATM    4  H   UNL     1      39.324 -15.015   2.762  1.00  0.00     0.192 HD
ENDROOT
BRANCH   1   5
HETATM    5  N   UNL     1      39.789 -13.597   1.320  1.00  0.00    -0.184 NA
HETATM    6  C   UNL     1      40.243 -14.134   0.234  1.00  0.00     0.153 C 
BRANCH   6   7
HETATM    7  C   UNL     1      40.099 -13.451  -1.039  1.00  0.00     0.018 A 
HETATM    8  C   UNL     1      39.503 -13.948  -2.191  1.00  0.00     0.018 A 
HETATM    9  C   UNL     1      38.865 -15.262  -2.476  1.00  0.00     0.069 C 
HETATM   10  N   UNL     1      39.569 -12.968  -3.151  1.00  0.00    -0.358 N 
HETATM   11  H   UNL     1      39.208 -13.054  -4.091  1.00  0.00     0.166 HD
HETATM   12  C   UNL     1      40.193 -11.848  -2.660  1.00  0.00     0.043 A 
HETATM   13  C   UNL     1      40.542 -12.119  -1.337  1.00  0.00     0.004 A 
HETATM   14  C   UNL     1      40.473 -10.627  -3.286  1.00  0.00     0.030 A 
HETATM   15  C   UNL     1      41.211 -11.115  -0.605  1.00  0.00     0.014 A 
HETATM   16  C   UNL     1      41.502  -9.889  -1.215  1.00  0.00     0.001 A 
HETATM   17  C   UNL     1      41.134  -9.651  -2.537  1.00  0.00     0.002 A 
ENDBRANCH   6   7
ENDBRANCH   1   5
BRANCH   2  18
HETATM   18  C   UNL     1      41.316 -15.187   4.317  1.00  0.00     0.227 C 
BRANCH  18  19
HETATM   19  N   UNL     1      41.777 -16.531   3.986  1.00  0.00    -0.348 N 
HETATM   20  C   UNL     1      43.062 -16.945   4.256  1.00  0.00     0.252 C 
HETATM   21  O   UNL     1      43.917 -16.151   4.638  1.00  0.00    -0.268 OA
HETATM   22  H   UNL     1      41.140 -17.114   3.463  1.00  0.00     0.163 HD
BRANCH  20  23
HETATM   23  C   UNL     1      43.414 -18.374   4.009  1.00  0.00     0.035 A 
HETATM   24  C   UNL     1      43.325 -18.844   2.692  1.00  0.00     0.059 A 
HETATM   25  C   UNL     1      43.656 -20.163   2.405  1.00  0.00     0.117 A 
HETATM   26  F   UNL     1      43.571 -20.603   1.142  1.00  0.00    -0.206 F 
HETATM   27  C   UNL     1      44.075 -21.033   3.403  1.00  0.00     0.042 A 
HETATM   28  C   UNL     1      44.174 -20.573   4.714  1.00  0.00     0.004 A 
HETATM   29  C   UNL     1      43.850 -19.246   5.019  1.00  0.00     0.017 A 
ENDBRANCH  20  23
ENDBRANCH  18  19
ENDBRANCH   2  18
TORSDOF 5
ENDMDL
MODEL 10
REMARK VINA RESULT:      -8.1      4.664      8.118
REMARK  5 active torsions:
REMARK  status: ('A' for Active; 'I' for Inactive)
REMARK    1  A    between atoms: C_7  and  C_8 
REMARK    2  A    between atoms: N_9  and  N_10 
REMARK       I    between atoms: N_10  and  C_11 
REMARK    3  A    between atoms: C_11  and  C_12 
REMARK    4  A    between atoms: C_12  and  N_13 
REMARK       I    between atoms: N_13  and  C_14 
REMARK    5  A    between atoms: C_14  and  C_15 
ROOT
HETATM    1  N   UNL     1      43.070 -12.556   3.095  1.00  0.00    -0.246 N 
HETATM    2  C   UNL     1      41.947 -12.710   2.298  1.00  0.00     0.255 C 
HETATM    3  O   UNL     1      40.934 -12.013   2.348  1.00  0.00    -0.270 OA
HETATM    4  H   UNL     1      43.796 -13.275   3.069  1.00  0.00     0.192 HD
ENDROOT
BRANCH   1   5
HETATM    5  N   UNL     1      43.132 -11.553   4.018  1.00  0.00    -0.184 NA
HETATM    6  C   UNL     1      42.910 -11.914   5.240  1.00  0.00     0.153 C 
BRANCH   6   7
HETATM    7  C   UNL     1      42.920 -10.933   6.310  1.00  0.00     0.018 A 
HETATM    8  C   UNL     1      41.828 -10.246   6.824  1.00  0.00     0.018 A 
HETATM    9  C   UNL     1      40.385 -10.288   6.462  1.00  0.00     0.069 C 
HETATM   10  N   UNL     1      42.283  -9.432   7.832  1.00  0.00    -0.358 N 
HETATM   11  H   UNL     1      41.703  -8.818   8.387  1.00  0.00     0.166 HD
HETATM   12  C   UNL     1      43.641  -9.565   7.988  1.00  0.00     0.043 A 
HETATM   13  C   UNL     1      44.073 -10.498   7.046  1.00  0.00     0.004 A 
HETATM   14  C   UNL     1      44.509  -8.933   8.887  1.00  0.00     0.030 A 
HETATM   15  C   UNL     1      45.449 -10.808   6.997  1.00  0.00     0.014 A 
HETATM   16  C   UNL     1      46.333 -10.183   7.885  1.00  0.00     0.001 A 
HETATM   17  C   UNL     1      45.865  -9.261   8.817  1.00  0.00     0.002 A 
ENDBRANCH   6   7
ENDBRANCH   1   5
BRANCH   2  18
HETATM   18  C   UNL     1      42.015 -13.947   1.399  1.00  0.00     0.227 C 
BRANCH  18  19
HETATM   19  N   UNL     1      42.703 -15.090   1.989  1.00  0.00    -0.348 N 
HETATM   20  C   UNL     1      42.017 -16.109   2.611  1.00  0.00     0.252 C 
HETATM   21  O   UNL     1      40.813 -16.018   2.836  1.00  0.00    -0.268 OA
HETATM   22  H   UNL     1      43.712 -15.055   2.004  1.00  0.00     0.163 HD
BRANCH  20  23
HETATM   23  C   UNL     1      42.784 -17.305   3.069  1.00  0.00     0.035 A 
HETATM   24  C   UNL     1      42.875 -18.391   2.189  1.00  0.00     0.059 A 
HETATM   25  C   UNL     1      43.590 -19.524   2.560  1.00  0.00     0.117 A 
HETATM   26  F   UNL     1      43.674 -20.557   1.710  1.00  0.00    -0.206 F 
HETATM   27  C   UNL     1      44.220 -19.603   3.795  1.00  0.00     0.042 A 
HETATM   28  C   UNL     1      44.142 -18.525   4.674  1.00  0.00     0.004 A 
HETATM   29  C   UNL     1      43.431 -17.375   4.312  1.00  0.00     0.017 A 
ENDBRANCH  20  23
ENDBRANCH  18  19
ENDBRANCH   2  18
TORSDOF 5
ENDMDL
