MODEL 1
REMARK VINA RESULT:      -9.0      0.000      0.000
REMARK  2 active torsions:
REMARK  status: ('A' for Active; 'I' for Inactive)
REMARK    1  A    between atoms: C_6  and  N_7 
REMARK    2  A    between atoms: N_7  and  C_8 
ROOT
HETATM    1  C   UNL     1      43.064 -15.468   8.103  1.00  0.00     0.093 C 
HETATM    2  C   UNL     1      43.220 -16.292   6.862  1.00  0.00     0.125 A 
HETATM    3  N   UNL     1      43.386 -17.609   7.016  1.00  0.00    -0.226 NA
HETATM    4  C   UNL     1      43.524 -18.257   5.850  1.00  0.00     0.114 A 
HETATM    5  C   UNL     1      43.509 -17.690   4.575  1.00  0.00     0.053 A 
HETATM    6  C   UNL     1      43.334 -16.290   4.519  1.00  0.00     0.143 A 
HETATM    7  N   UNL     1      43.188 -15.627   5.692  1.00  0.00    -0.215 NA
HETATM    8  S   UNL     1      43.751 -19.964   5.834  1.00  0.00    -0.073 SA
HETATM    9  C   UNL     1      43.817 -19.957   4.166  1.00  0.00    -0.008 A 
HETATM   10  C   UNL     1      43.676 -18.718   3.603  1.00  0.00    -0.028 A 
HETATM   11  C   UNL     1      43.733 -18.808   2.121  1.00  0.00     0.041 C 
HETATM   12  C   UNL     1      43.584 -20.341   1.869  1.00  0.00     0.010 C 
HETATM   13  C   UNL     1      43.994 -21.057   3.190  1.00  0.00     0.047 C 
ENDROOT
BRANCH   6  14
HETATM   14  N   UNL     1      43.356 -15.599   3.298  1.00  0.00    -0.340 N 
HETATM   15  H   UNL     1      44.268 -15.249   3.048  1.00  0.00     0.167 HD
BRANCH  14  16
HETATM   16  C   UNL     1      42.333 -15.262   2.394  1.00  0.00     0.036 A 
HETATM   17  C   UNL     1      42.371 -14.001   1.776  1.00  0.00     0.069 A 
HETATM   18  C   UNL     1      41.364 -13.599   0.896  1.00  0.00     0.104 A 
HETATM   19  C   UNL     1      40.283 -14.443   0.639  1.00  0.00     0.102 A 
HETATM   20  O   UNL     1      41.498 -12.355   0.333  1.00  0.00    -0.346 OA
HETATM   21  O   UNL     1      39.240 -14.103  -0.184  1.00  0.00    -0.346 OA
HETATM   22  C   UNL     1      40.233 -15.699   1.230  1.00  0.00     0.042 A 
HETATM   23  C   UNL     1      39.213 -12.692  -0.425  1.00  0.00     0.202 C 
HETATM   24  C   UNL     1      40.602 -12.181  -0.771  1.00  0.00     0.202 C 
HETATM   25  C   UNL     1      41.248 -16.099   2.107  1.00  0.00     0.032 A 
ENDBRANCH  14  16
ENDBRANCH   6  14
TORSDOF 2
ENDMDL
MODEL 2
REMARK VINA RESULT:      -8.6      1.897      4.181
REMARK  2 active torsions:
REMARK  status: ('A' for Active; 'I' for Inactive)
REMARK    1  A    between atoms: C_6  and  N_7 
REMARK    2  A    between atoms: N_7  and  C_8 
ROOT
HETATM    1  C   UNL     1      43.595 -19.915   1.997  1.00  0.00     0.093 C 
HETATM    2  C   UNL     1      43.267 -18.663   2.751  1.00  0.00     0.125 A 
HETATM    3  N   UNL     1      44.003 -18.386   3.831  1.00  0.00    -0.226 NA
HETATM    4  C   UNL     1      43.628 -17.252   4.441  1.00  0.00     0.114 A 
HETATM    5  C   UNL     1      42.593 -16.401   4.052  1.00  0.00     0.053 A 
HETATM    6  C   UNL     1      41.871 -16.785   2.901  1.00  0.00     0.143 A 
HETATM    7  N   UNL     1      42.246 -17.926   2.275  1.00  0.00    -0.215 NA
HETATM    8  S   UNL     1      44.452 -16.720   5.856  1.00  0.00    -0.073 SA
HETATM    9  C   UNL     1      43.464 -15.377   5.949  1.00  0.00    -0.008 A 
HETATM   10  C   UNL     1      42.526 -15.301   4.956  1.00  0.00    -0.028 A 
HETATM   11  C   UNL     1      41.703 -14.073   5.108  1.00  0.00     0.041 C 
HETATM   12  C   UNL     1      42.520 -13.246   6.149  1.00  0.00     0.010 C 
HETATM   13  C   UNL     1      43.430 -14.254   6.912  1.00  0.00     0.047 C 
ENDROOT
BRANCH   6  14
HETATM   14  N   UNL     1      40.774 -16.038   2.444  1.00  0.00    -0.340 N 
HETATM   15  H   UNL     1      39.901 -16.296   2.878  1.00  0.00     0.167 HD
BRANCH  14  16
HETATM   16  C   UNL     1      40.664 -15.042   1.458  1.00  0.00     0.036 A 
HETATM   17  C   UNL     1      39.893 -15.310   0.314  1.00  0.00     0.069 A 
HETATM   18  C   UNL     1      39.777 -14.371  -0.713  1.00  0.00     0.104 A 
HETATM   19  C   UNL     1      40.454 -13.154  -0.627  1.00  0.00     0.102 A 
HETATM   20  O   UNL     1      38.992 -14.722  -1.782  1.00  0.00    -0.346 OA
HETATM   21  O   UNL     1      40.416 -12.199  -1.611  1.00  0.00    -0.346 OA
HETATM   22  C   UNL     1      41.210 -12.864   0.502  1.00  0.00     0.042 A 
HETATM   23  C   UNL     1      39.934 -12.747  -2.843  1.00  0.00     0.202 C 
HETATM   24  C   UNL     1      38.690 -13.588  -2.604  1.00  0.00     0.202 C 
HETATM   25  C   UNL     1      41.319 -13.807   1.530  1.00  0.00     0.032 A 
ENDBRANCH  14  16
ENDBRANCH   6  14
TORSDOF 2
ENDMDL
MODEL 3
REMARK VINA RESULT:      -8.3      1.927      2.718
REMARK  2 active torsions:
REMARK  status: ('A' for Active; 'I' for Inactive)
REMARK    1  A    between atoms: C_6  and  N_7 
REMARK    2  A    between atoms: N_7  and  C_8 
ROOT
HETATM    1  C   UNL     1      40.141 -13.453   6.202  1.00  0.00     0.093 C 
HETATM    2  C   UNL     1      40.877 -14.537   5.476  1.00  0.00     0.125 A 
HETATM    3  N   UNL     1      41.647 -15.350   6.204  1.00  0.00    -0.226 NA
HETATM    4  C   UNL     1      42.269 -16.280   5.464  1.00  0.00     0.114 A 
HETATM    5  C   UNL     1      42.175 -16.443   4.081  1.00  0.00     0.053 A 
HETATM    6  C   UNL     1      41.341 -15.530   3.402  1.00  0.00     0.143 A 
HETATM    7  N   UNL     1      40.704 -14.590   4.142  1.00  0.00    -0.215 NA
HETATM    8  S   UNL     1      43.312 -17.425   6.217  1.00  0.00    -0.073 SA
HETATM    9  C   UNL     1      43.626 -18.137   4.739  1.00  0.00    -0.008 A 
HETATM   10  C   UNL     1      42.980 -17.551   3.685  1.00  0.00    -0.028 A 
HETATM   11  C   UNL     1      43.306 -18.253   2.417  1.00  0.00     0.041 C 
HETATM   12  C   UNL     1      43.978 -19.569   2.922  1.00  0.00     0.010 C 
HETATM   13  C   UNL     1      44.476 -19.292   4.372  1.00  0.00     0.047 C 
ENDROOT
BRANCH   6  14
HETATM   14  N   UNL     1      41.209 -15.560   2.005  1.00  0.00    -0.340 N 
HETATM   15  H   UNL     1      41.457 -16.447   1.595  1.00  0.00     0.167 HD
BRANCH  14  16
HETATM   16  C   UNL     1      40.848 -14.568   1.077  1.00  0.00     0.036 A 
HETATM   17  C   UNL     1      39.932 -14.896   0.064  1.00  0.00     0.069 A 
HETATM   18  C   UNL     1      39.563 -13.962  -0.906  1.00  0.00     0.104 A 
HETATM   19  C   UNL     1      40.128 -12.685  -0.897  1.00  0.00     0.102 A 
HETATM   20  O   UNL     1      38.652 -14.374  -1.845  1.00  0.00    -0.346 OA
HETATM   21  O   UNL     1      39.843 -11.728  -1.836  1.00  0.00    -0.346 OA
HETATM   22  C   UNL     1      41.026 -12.336   0.104  1.00  0.00     0.042 A 
HETATM   23  C   UNL     1      39.222 -12.306  -2.989  1.00  0.00     0.202 C 
HETATM   24  C   UNL     1      38.117 -13.265  -2.577  1.00  0.00     0.202 C 
HETATM   25  C   UNL     1      41.387 -13.276   1.077  1.00  0.00     0.032 A 
ENDBRANCH  14  16
ENDBRANCH   6  14
TORSDOF 2
ENDMDL
MODEL 4
REMARK VINA RESULT:      -8.1      2.077      2.776
REMARK  2 active torsions:
REMARK  status: ('A' for Active; 'I' for Inactive)
REMARK    1  A    between atoms: C_6  and  N_7 
REMARK    2  A    between atoms: N_7  and  C_8 
ROOT
HETATM    1  C   UNL     1      41.722 -11.767   6.340  1.00  0.00     0.093 C 
HETATM    2  C   UNL     1      42.095 -12.946   5.496  1.00  0.00     0.125 A 
HETATM    3  N   UNL     1      42.435 -14.072   6.130  1.00  0.00    -0.226 NA
HETATM    4  C   UNL     1      42.760 -15.066   5.290  1.00  0.00     0.114 A 
HETATM    5  C   UNL     1      42.768 -15.008   3.896  1.00  0.00     0.053 A 
HETATM    6  C   UNL     1      42.399 -13.772   3.322  1.00  0.00     0.143 A 
HETATM    7  N   UNL     1      42.064 -12.763   4.163  1.00  0.00    -0.215 NA
HETATM    8  S   UNL     1      43.231 -16.601   5.911  1.00  0.00    -0.073 SA
HETATM    9  C   UNL     1      43.431 -17.187   4.360  1.00  0.00    -0.008 A 
HETATM   10  C   UNL     1      43.160 -16.276   3.376  1.00  0.00    -0.028 A 
HETATM   11  C   UNL     1      43.351 -16.884   2.034  1.00  0.00     0.041 C 
HETATM   12  C   UNL     1      43.445 -18.407   2.364  1.00  0.00     0.010 C 
HETATM   13  C   UNL     1      43.845 -18.520   3.865  1.00  0.00     0.047 C 
ENDROOT
BRANCH   6  14
HETATM   14  N   UNL     1      42.421 -13.575   1.933  1.00  0.00    -0.340 N 
HETATM   15  H   UNL     1      43.321 -13.288   1.579  1.00  0.00     0.167 HD
BRANCH  14  16
HETATM   16  C   UNL     1      41.409 -13.652   0.960  1.00  0.00     0.036 A 
HETATM   17  C   UNL     1      40.994 -12.468   0.327  1.00  0.00     0.069 A 
HETATM   18  C   UNL     1      39.970 -12.479  -0.622  1.00  0.00     0.104 A 
HETATM   19  C   UNL     1      39.321 -13.674  -0.937  1.00  0.00     0.102 A 
HETATM   20  O   UNL     1      39.645 -11.275  -1.193  1.00  0.00    -0.346 OA
HETATM   21  O   UNL     1      38.285 -13.757  -1.831  1.00  0.00    -0.346 OA
HETATM   22  C   UNL     1      39.726 -14.858  -0.333  1.00  0.00     0.042 A 
HETATM   23  C   UNL     1      37.726 -12.465  -2.093  1.00  0.00     0.202 C 
HETATM   24  C   UNL     1      38.827 -11.450  -2.355  1.00  0.00     0.202 C 
HETATM   25  C   UNL     1      40.757 -14.842   0.614  1.00  0.00     0.032 A 
ENDBRANCH  14  16
ENDBRANCH   6  14
TORSDOF 2
ENDMDL
MODEL 5
REMARK VINA RESULT:      -7.9      4.183      7.425
REMARK  2 active torsions:
REMARK  status: ('A' for Active; 'I' for Inactive)
REMARK    1  A    between atoms: C_6  and  N_7 
REMARK    2  A    between atoms: N_7  and  C_8 
ROOT
HETATM    1  C   UNL     1      39.103 -10.315   4.444  1.00  0.00     0.093 C 
HETATM    2  C   UNL     1      39.202 -11.141   3.198  1.00  0.00     0.125 A 
HETATM    3  N   UNL     1      39.154 -10.496   2.029  1.00  0.00    -0.226 NA
HETATM    4  C   UNL     1      39.242 -11.321   0.975  1.00  0.00     0.114 A 
HETATM    5  C   UNL     1      39.369 -12.710   1.013  1.00  0.00     0.053 A 
HETATM    6  C   UNL     1      39.404 -13.296   2.297  1.00  0.00     0.143 A 
HETATM    7  N   UNL     1      39.321 -12.471   3.368  1.00  0.00    -0.215 NA
HETATM    8  S   UNL     1      39.197 -10.685  -0.625  1.00  0.00    -0.073 SA
HETATM    9  C   UNL     1      39.356 -12.221  -1.259  1.00  0.00    -0.008 A 
HETATM   10  C   UNL     1      39.442 -13.211  -0.319  1.00  0.00    -0.028 A 
HETATM   11  C   UNL     1      39.594 -14.538  -0.970  1.00  0.00     0.041 C 
HETATM   12  C   UNL     1      39.934 -14.154  -2.444  1.00  0.00     0.010 C 
HETATM   13  C   UNL     1      39.426 -12.697  -2.660  1.00  0.00     0.047 C 
ENDROOT
BRANCH   6  14
HETATM   14  N   UNL     1      39.475 -14.688   2.463  1.00  0.00    -0.340 N 
HETATM   15  H   UNL     1      38.589 -15.155   2.347  1.00  0.00     0.167 HD
BRANCH  14  16
HETATM   16  C   UNL     1      40.540 -15.537   2.813  1.00  0.00     0.036 A 
HETATM   17  C   UNL     1      40.866 -15.681   4.172  1.00  0.00     0.069 A 
HETATM   18  C   UNL     1      41.935 -16.484   4.576  1.00  0.00     0.104 A 
HETATM   19  C   UNL     1      42.718 -17.137   3.622  1.00  0.00     0.102 A 
HETATM   20  O   UNL     1      42.165 -16.571   5.925  1.00  0.00    -0.346 OA
HETATM   21  O   UNL     1      43.803 -17.911   3.941  1.00  0.00    -0.346 OA
HETATM   22  C   UNL     1      42.404 -17.018   2.274  1.00  0.00     0.042 A 
HETATM   23  C   UNL     1      44.241 -17.660   5.281  1.00  0.00     0.202 C 
HETATM   24  C   UNL     1      43.058 -17.646   6.236  1.00  0.00     0.202 C 
HETATM   25  C   UNL     1      41.328 -16.216   1.876  1.00  0.00     0.032 A 
ENDBRANCH  14  16
ENDBRANCH   6  14
TORSDOF 2
ENDMDL
MODEL 6
REMARK VINA RESULT:      -7.9      2.673      3.646
REMARK  2 active torsions:
REMARK  status: ('A' for Active; 'I' for Inactive)
REMARK    1  A    between atoms: C_6  and  N_7 
REMARK    2  A    between atoms: N_7  and  C_8 
ROOT
HETATM    1  C   UNL     1      39.793 -11.701   6.101  1.00  0.00     0.093 C 
HETATM    2  C   UNL     1      40.335 -12.847   5.304  1.00  0.00     0.125 A 
HETATM    3  N   UNL     1      41.361 -13.525   5.825  1.00  0.00    -0.226 NA
HETATM    4  C   UNL     1      41.779 -14.526   5.035  1.00  0.00     0.114 A 
HETATM    5  C   UNL     1      41.254 -14.880   3.792  1.00  0.00     0.053 A 
HETATM    6  C   UNL     1      40.175 -14.097   3.327  1.00  0.00     0.143 A 
HETATM    7  N   UNL     1      39.742 -13.088   4.120  1.00  0.00    -0.215 NA
HETATM    8  S   UNL     1      43.096 -15.520   5.527  1.00  0.00    -0.073 SA
HETATM    9  C   UNL     1      42.968 -16.415   4.123  1.00  0.00    -0.008 A 
HETATM   10  C   UNL     1      41.970 -16.002   3.283  1.00  0.00    -0.028 A 
HETATM   11  C   UNL     1      41.920 -16.859   2.071  1.00  0.00     0.041 C 
HETATM   12  C   UNL     1      42.820 -18.069   2.475  1.00  0.00     0.010 C 
HETATM   13  C   UNL     1      43.740 -17.580   3.633  1.00  0.00     0.047 C 
ENDROOT
BRANCH   6  14
HETATM   14  N   UNL     1      39.598 -14.323   2.067  1.00  0.00    -0.340 N 
HETATM   15  H   UNL     1      38.846 -14.995   2.082  1.00  0.00     0.167 HD
BRANCH  14  16
HETATM   16  C   UNL     1      39.913 -13.827   0.790  1.00  0.00     0.036 A 
HETATM   17  C   UNL     1      40.281 -12.477   0.664  1.00  0.00     0.069 A 
HETATM   18  C   UNL     1      40.571 -11.923  -0.584  1.00  0.00     0.104 A 
HETATM   19  C   UNL     1      40.470 -12.704  -1.737  1.00  0.00     0.102 A 
HETATM   20  O   UNL     1      40.933 -10.600  -0.602  1.00  0.00    -0.346 OA
HETATM   21  O   UNL     1      40.704 -12.220  -2.998  1.00  0.00    -0.346 OA
HETATM   22  C   UNL     1      40.121 -14.044  -1.633  1.00  0.00     0.042 A 
HETATM   23  C   UNL     1      40.684 -10.788  -3.013  1.00  0.00     0.202 C 
HETATM   24  C   UNL     1      41.505 -10.230  -1.862  1.00  0.00     0.202 C 
HETATM   25  C   UNL     1      39.837 -14.596  -0.378  1.00  0.00     0.032 A 
ENDBRANCH  14  16
ENDBRANCH   6  14
TORSDOF 2
ENDMDL
MODEL 7
REMARK VINA RESULT:      -7.6      3.888      6.151
REMARK  2 active torsions:
REMARK  status: ('A' for Active; 'I' for Inactive)
REMARK    1  A    between atoms: C_6  and  N_7 
REMARK    2  A    between atoms: N_7  and  C_8 
ROOT
HETATM    1  C   UNL     1      39.953 -13.989   0.322  1.00  0.00     0.093 C 
HETATM    2  C   UNL     1      40.661 -14.589   1.498  1.00  0.00     0.125 A 
HETATM    3  N   UNL     1      41.345 -15.718   1.292  1.00  0.00    -0.226 NA
HETATM    4  C   UNL     1      41.936 -16.180   2.404  1.00  0.00     0.114 A 
HETATM    5  C   UNL     1      41.887 -15.602   3.673  1.00  0.00     0.053 A 
HETATM    6  C   UNL     1      41.134 -14.415   3.788  1.00  0.00     0.143 A 
HETATM    7  N   UNL     1      40.538 -13.937   2.669  1.00  0.00    -0.215 NA
HETATM    8  S   UNL     1      42.865 -17.628   2.349  1.00  0.00    -0.073 SA
HETATM    9  C   UNL     1      43.209 -17.491   3.977  1.00  0.00    -0.008 A 
HETATM   10  C   UNL     1      42.654 -16.394   4.577  1.00  0.00    -0.028 A 
HETATM   11  C   UNL     1      43.021 -16.344   6.016  1.00  0.00     0.041 C 
HETATM   12  C   UNL     1      44.171 -17.396   6.108  1.00  0.00     0.010 C 
HETATM   13  C   UNL     1      44.014 -18.343   4.881  1.00  0.00     0.047 C 
ENDROOT
BRANCH   6  14
HETATM   14  N   UNL     1      40.967 -13.771   5.024  1.00  0.00    -0.340 N 
HETATM   15  H   UNL     1      40.195 -14.130   5.566  1.00  0.00     0.167 HD
BRANCH  14  16
HETATM   16  C   UNL     1      41.641 -12.689   5.616  1.00  0.00     0.036 A 
HETATM   17  C   UNL     1      42.964 -12.876   6.049  1.00  0.00     0.069 A 
HETATM   18  C   UNL     1      43.670 -11.846   6.675  1.00  0.00     0.104 A 
HETATM   19  C   UNL     1      43.054 -10.615   6.904  1.00  0.00     0.102 A 
HETATM   20  O   UNL     1      44.961 -12.123   7.049  1.00  0.00    -0.346 OA
HETATM   21  O   UNL     1      43.671  -9.571   7.543  1.00  0.00    -0.346 OA
HETATM   22  C   UNL     1      41.751 -10.405   6.472  1.00  0.00     0.042 A 
HETATM   23  C   UNL     1      44.832 -10.015   8.254  1.00  0.00     0.202 C 
HETATM   24  C   UNL     1      45.677 -10.927   7.380  1.00  0.00     0.202 C 
HETATM   25  C   UNL     1      41.050 -11.439   5.840  1.00  0.00     0.032 A 
ENDBRANCH  14  16
ENDBRANCH   6  14
TORSDOF 2
ENDMDL
MODEL 8
REMARK VINA RESULT:      -7.5      4.484      6.936
REMARK  2 active torsions:
REMARK  status: ('A' for Active; 'I' for Inactive)
REMARK    1  A    between atoms: C_6  and  N_7 
REMARK    2  A    between atoms: N_7  and  C_8 
ROOT
HETATM    1  C   UNL     1      41.041 -11.731   0.798  1.00  0.00     0.093 C 
HETATM    2  C   UNL     1      41.580 -12.716   1.789  1.00  0.00     0.125 A 
HETATM    3  N   UNL     1      41.954 -13.911   1.325  1.00  0.00    -0.226 NA
HETATM    4  C   UNL     1      42.416 -14.723   2.287  1.00  0.00     0.114 A 
HETATM    5  C   UNL     1      42.522 -14.426   3.647  1.00  0.00     0.053 A 
HETATM    6  C   UNL     1      42.095 -13.139   4.037  1.00  0.00     0.143 A 
HETATM    7  N   UNL     1      41.633 -12.309   3.071  1.00  0.00    -0.215 NA
HETATM    8  S   UNL     1      42.946 -16.313   1.894  1.00  0.00    -0.073 SA
HETATM    9  C   UNL     1      43.324 -16.603   3.494  1.00  0.00    -0.008 A 
HETATM   10  C   UNL     1      43.068 -15.551   4.331  1.00  0.00    -0.028 A 
HETATM   11  C   UNL     1      43.445 -15.890   5.727  1.00  0.00     0.041 C 
HETATM   12  C   UNL     1      44.290 -17.189   5.543  1.00  0.00     0.010 C 
HETATM   13  C   UNL     1      43.892 -17.795   4.165  1.00  0.00     0.047 C 
ENDROOT
BRANCH   6  14
HETATM   14  N   UNL     1      42.103 -12.743   5.384  1.00  0.00    -0.340 N 
HETATM   15  H   UNL     1      41.261 -12.987   5.883  1.00  0.00     0.167 HD
BRANCH  14  16
HETATM   16  C   UNL     1      43.043 -12.024   6.143  1.00  0.00     0.036 A 
HETATM   17  C   UNL     1      42.598 -10.928   6.902  1.00  0.00     0.069 A 
HETATM   18  C   UNL     1      43.492 -10.158   7.648  1.00  0.00     0.104 A 
HETATM   19  C   UNL     1      44.856 -10.453   7.627  1.00  0.00     0.102 A 
HETATM   20  O   UNL     1      42.959  -9.117   8.365  1.00  0.00    -0.346 OA
HETATM   21  O   UNL     1      45.797  -9.721   8.305  1.00  0.00    -0.346 OA
HETATM   22  C   UNL     1      45.315 -11.541   6.895  1.00  0.00     0.042 A 
HETATM   23  C   UNL     1      45.273  -8.448   8.700  1.00  0.00     0.202 C 
HETATM   24  C   UNL     1      43.895  -8.607   9.322  1.00  0.00     0.202 C 
HETATM   25  C   UNL     1      44.413 -12.314   6.153  1.00  0.00     0.032 A 
ENDBRANCH  14  16
ENDBRANCH   6  14
TORSDOF 2
ENDMDL
MODEL 9
REMARK VINA RESULT:      -7.5      4.327      7.328
REMARK  2 active torsions:
REMARK  status: ('A' for Active; 'I' for Inactive)
REMARK    1  A    between atoms: C_6  and  N_7 
REMARK    2  A    between atoms: N_7  and  C_8 
ROOT
HETATM    1  C   UNL     1      39.053 -13.083   2.672  1.00  0.00     0.093 C 
HETATM    2  C   UNL     1      40.228 -12.824   3.563  1.00  0.00     0.125 A 
HETATM    3  N   UNL     1      40.241 -11.675   4.243  1.00  0.00    -0.226 NA
HETATM    4  C   UNL     1      41.335 -11.532   5.006  1.00  0.00     0.114 A 
HETATM    5  C   UNL     1      42.388 -12.439   5.128  1.00  0.00     0.053 A 
HETATM    6  C   UNL     1      42.283 -13.621   4.364  1.00  0.00     0.143 A 
HETATM    7  N   UNL     1      41.178 -13.777   3.595  1.00  0.00    -0.215 NA
HETATM    8  S   UNL     1      41.543 -10.114   5.960  1.00  0.00    -0.073 SA
HETATM    9  C   UNL     1      42.998 -10.694   6.537  1.00  0.00    -0.008 A 
HETATM   10  C   UNL     1      43.349 -11.920   6.044  1.00  0.00    -0.028 A 
HETATM   11  C   UNL     1      44.646 -12.363   6.618  1.00  0.00     0.041 C 
HETATM   12  C   UNL     1      44.850 -11.364   7.800  1.00  0.00     0.010 C 
HETATM   13  C   UNL     1      43.971 -10.116   7.493  1.00  0.00     0.047 C 
ENDROOT
BRANCH   6  14
HETATM   14  N   UNL     1      43.304 -14.584   4.362  1.00  0.00    -0.340 N 
HETATM   15  H   UNL     1      44.202 -14.221   4.643  1.00  0.00     0.167 HD
BRANCH  14  16
HETATM   16  C   UNL     1      43.314 -15.940   3.990  1.00  0.00     0.036 A 
HETATM   17  C   UNL     1      43.667 -16.900   4.953  1.00  0.00     0.069 A 
HETATM   18  C   UNL     1      43.727 -18.256   4.630  1.00  0.00     0.104 A 
HETATM   19  C   UNL     1      43.460 -18.677   3.326  1.00  0.00     0.102 A 
HETATM   20  O   UNL     1      44.070 -19.117   5.642  1.00  0.00    -0.346 OA
HETATM   21  O   UNL     1      43.533 -19.987   2.926  1.00  0.00    -0.346 OA
HETATM   22  C   UNL     1      43.095 -17.745   2.362  1.00  0.00     0.042 A 
HETATM   23  C   UNL     1      44.261 -20.775   3.874  1.00  0.00     0.202 C 
HETATM   24  C   UNL     1      43.792 -20.477   5.289  1.00  0.00     0.202 C 
HETATM   25  C   UNL     1      43.031 -16.387   2.693  1.00  0.00     0.032 A 
ENDBRANCH  14  16
ENDBRANCH   6  14
TORSDOF 2
ENDMDL
MODEL 10
REMARK VINA RESULT:      -7.4      4.644      7.133
REMARK  2 active torsions:
REMARK  status: ('A' for Active; 'I' for Inactive)
REMARK    1  A    between atoms: C_6  and  N_7 
REMARK    2  A    between atoms: N_7  and  C_8 
ROOT
HETATM    1  C   UNL     1      46.223 -10.678   7.795  1.00  0.00     0.093 C 
HETATM    2  C   UNL     1      44.875 -11.081   7.281  1.00  0.00     0.125 A 
HETATM    3  N   UNL     1      44.022 -10.103   6.964  1.00  0.00    -0.226 NA
HETATM    4  C   UNL     1      42.842 -10.563   6.522  1.00  0.00     0.114 A 
HETATM    5  C   UNL     1      42.470 -11.901   6.383  1.00  0.00     0.053 A 
HETATM    6  C   UNL     1      43.440 -12.858   6.750  1.00  0.00     0.143 A 
HETATM    7  N   UNL     1      44.637 -12.403   7.192  1.00  0.00    -0.215 NA
HETATM    8  S   UNL     1      41.602  -9.459   6.065  1.00  0.00    -0.073 SA
HETATM    9  C   UNL     1      40.591 -10.729   5.675  1.00  0.00    -0.008 A 
HETATM   10  C   UNL     1      41.141 -11.966   5.873  1.00  0.00    -0.028 A 
HETATM   11  C   UNL     1      40.180 -13.032   5.490  1.00  0.00     0.041 C 
HETATM   12  C   UNL     1      39.091 -12.239   4.702  1.00  0.00     0.010 C 
HETATM   13  C   UNL     1      39.208 -10.751   5.146  1.00  0.00     0.047 C 
ENDROOT
BRANCH   6  14
HETATM   14  N   UNL     1      43.164 -14.233   6.704  1.00  0.00    -0.340 N 
HETATM   15  H   UNL     1      42.922 -14.627   7.601  1.00  0.00     0.167 HD
BRANCH  14  16
HETATM   16  C   UNL     1      43.217 -15.165   5.653  1.00  0.00     0.036 A 
HETATM   17  C   UNL     1      43.654 -16.471   5.933  1.00  0.00     0.069 A 
HETATM   18  C   UNL     1      43.759 -17.428   4.922  1.00  0.00     0.104 A 
HETATM   19  C   UNL     1      43.455 -17.088   3.603  1.00  0.00     0.102 A 
HETATM   20  O   UNL     1      44.182 -18.678   5.298  1.00  0.00    -0.346 OA
HETATM   21  O   UNL     1      43.569 -17.963   2.554  1.00  0.00    -0.346 OA
HETATM   22  C   UNL     1      43.008 -15.806   3.307  1.00  0.00     0.042 A 
HETATM   23  C   UNL     1      44.370 -19.095   2.911  1.00  0.00     0.202 C 
HETATM   24  C   UNL     1      43.950 -19.642   4.265  1.00  0.00     0.202 C 
HETATM   25  C   UNL     1      42.900 -14.852   4.326  1.00  0.00     0.032 A 
ENDBRANCH  14  16
ENDBRANCH   6  14
TORSDOF 2
ENDMDL
