MODEL 1
REMARK VINA RESULT:      -7.7      0.000      0.000
REMARK  6 active torsions:
REMARK  status: ('A' for Active; 'I' for Inactive)
REMARK    1  A    between atoms: C_6  and  C_7 
REMARK       I    between atoms: C_7  and  N_8 
REMARK    2  A    between atoms: N_8  and  C_9 
REMARK    3  A    between atoms: C_9  and  C_10 
REMARK    4  A    between atoms: C_10  and  O_11 
REMARK    5  A    between atoms: C_10  and  C_12 
REMARK    6  A    between atoms: C_15  and  O_16 
ROOT
HETATM    1  C   UNL     1      42.963 -16.011   2.478  1.00  0.00     0.258 C 
HETATM    2  N   UNL     1      41.658 -15.579   2.562  1.00  0.00    -0.350 N 
HETATM    3  O   UNL     1      43.741 -15.613   1.618  1.00  0.00    -0.267 OA
HETATM    4  H   UNL     1      41.084 -15.977   3.304  1.00  0.00     0.163 HD
ENDROOT
BRANCH   2   5
HETATM    5  C   UNL     1      41.039 -14.626   1.629  1.00  0.00     0.114 C 
HETATM    6  C   UNL     1      39.965 -15.304   0.776  1.00  0.00     0.035 C 
BRANCH   5   7
HETATM    7  C   UNL     1      40.533 -13.359   2.374  1.00  0.00     0.173 C 
BRANCH   7   8
HETATM    8  O   UNL     1      39.391 -13.723   3.169  1.00  0.00    -0.389 OA
HETATM    9  H   UNL     1      39.571 -14.629   3.477  1.00  0.00     0.210 HD
ENDBRANCH   7   8
BRANCH   7  10
HETATM   10  C   UNL     1      41.560 -12.729   3.290  1.00  0.00    -0.028 A 
HETATM   11  C   UNL     1      41.296 -12.620   4.662  1.00  0.00     0.012 A 
HETATM   12  C   UNL     1      42.232 -12.038   5.521  1.00  0.00     0.037 A 
HETATM   13  C   UNL     1      43.449 -11.560   5.030  1.00  0.00     0.068 A 
HETATM   14  C   UNL     1      43.715 -11.654   3.664  1.00  0.00     0.037 A 
HETATM   15  C   UNL     1      42.777 -12.233   2.802  1.00  0.00     0.012 A 
BRANCH  13  16
HETATM   16  O   UNL     1      44.279 -11.027   5.978  1.00  0.00    -0.356 OA
HETATM   17  C   UNL     1      44.931 -11.947   6.844  1.00  0.00     0.210 C 
ENDBRANCH  13  16
ENDBRANCH   7  10
ENDBRANCH   5   7
ENDBRANCH   2   5
BRANCH   1  18
HETATM   18  C   UNL     1      43.347 -16.999   3.471  1.00  0.00     0.105 A 
HETATM   19  C   UNL     1      43.680 -16.780   4.835  1.00  0.00     0.071 A 
HETATM   20  C   UNL     1      43.698 -15.489   5.571  1.00  0.00     0.073 C 
HETATM   21  N   UNL     1      44.004 -17.912   5.470  1.00  0.00    -0.170 NA
HETATM   22  N   UNL     1      43.896 -18.878   4.531  1.00  0.00    -0.225 N 
HETATM   23  C   UNL     1      43.490 -18.365   3.296  1.00  0.00     0.168 A 
HETATM   24  C   UNL     1      44.145 -20.238   4.685  1.00  0.00     0.122 A 
HETATM   25  N   UNL     1      43.316 -19.172   2.195  1.00  0.00    -0.240 NA
HETATM   26  C   UNL     1      43.560 -20.437   2.380  1.00  0.00     0.120 A 
HETATM   27  C   UNL     1      43.999 -21.075   3.650  1.00  0.00     0.038 A 
ENDBRANCH   1  18
TORSDOF 6
ENDMDL
MODEL 2
REMARK VINA RESULT:      -7.5      3.803      7.999
REMARK  6 active torsions:
REMARK  status: ('A' for Active; 'I' for Inactive)
REMARK    1  A    between atoms: C_6  and  C_7 
REMARK       I    between atoms: C_7  and  N_8 
REMARK    2  A    between atoms: N_8  and  C_9 
REMARK    3  A    between atoms: C_9  and  C_10 
REMARK    4  A    between atoms: C_10  and  O_11 
REMARK    5  A    between atoms: C_10  and  C_12 
REMARK    6  A    between atoms: C_15  and  O_16 
ROOT
HETATM    1  C   UNL     1      40.321 -13.443   0.180  1.00  0.00     0.258 C 
HETATM    2  N   UNL     1      41.254 -14.454   0.255  1.00  0.00    -0.350 N 
HETATM    3  O   UNL     1      39.652 -13.084   1.143  1.00  0.00    -0.267 OA
HETATM    4  H   UNL     1      41.752 -14.690  -0.602  1.00  0.00     0.163 HD
ENDROOT
BRANCH   2   5
HETATM    5  C   UNL     1      41.537 -15.232   1.469  1.00  0.00     0.114 C 
HETATM    6  C   UNL     1      40.403 -16.214   1.775  1.00  0.00     0.035 C 
BRANCH   5   7
HETATM    7  C   UNL     1      42.937 -15.904   1.393  1.00  0.00     0.173 C 
BRANCH   7   8
HETATM    8  O   UNL     1      43.937 -14.870   1.361  1.00  0.00    -0.389 OA
HETATM    9  H   UNL     1      44.096 -14.696   0.416  1.00  0.00     0.210 HD
ENDBRANCH   7   8
BRANCH   7  10
HETATM   10  C   UNL     1      43.248 -16.818   2.558  1.00  0.00    -0.028 A 
HETATM   11  C   UNL     1      43.375 -18.198   2.348  1.00  0.00     0.012 A 
HETATM   12  C   UNL     1      43.658 -19.056   3.414  1.00  0.00     0.037 A 
HETATM   13  C   UNL     1      43.824 -18.555   4.706  1.00  0.00     0.068 A 
HETATM   14  C   UNL     1      43.687 -17.185   4.928  1.00  0.00     0.037 A 
HETATM   15  C   UNL     1      43.400 -16.324   3.862  1.00  0.00     0.012 A 
BRANCH  13  16
HETATM   16  O   UNL     1      44.110 -19.500   5.653  1.00  0.00    -0.356 OA
HETATM   17  C   UNL     1      44.088 -20.856   5.227  1.00  0.00     0.210 C 
ENDBRANCH  13  16
ENDBRANCH   7  10
ENDBRANCH   5   7
ENDBRANCH   2   5
BRANCH   1  18
HETATM   18  C   UNL     1      40.166 -12.848  -1.136  1.00  0.00     0.105 A 
HETATM   19  C   UNL     1      39.572 -13.428  -2.290  1.00  0.00     0.071 A 
HETATM   20  C   UNL     1      38.956 -14.774  -2.417  1.00  0.00     0.073 C 
HETATM   21  N   UNL     1      39.606 -12.609  -3.347  1.00  0.00    -0.170 NA
HETATM   22  N   UNL     1      40.227 -11.494  -2.902  1.00  0.00    -0.225 N 
HETATM   23  C   UNL     1      40.580 -11.595  -1.553  1.00  0.00     0.168 A 
HETATM   24  C   UNL     1      40.525 -10.346  -3.628  1.00  0.00     0.122 A 
HETATM   25  N   UNL     1      41.224 -10.575  -0.892  1.00  0.00    -0.240 NA
HETATM   26  C   UNL     1      41.487  -9.518  -1.606  1.00  0.00     0.120 A 
HETATM   27  C   UNL     1      41.156  -9.320  -3.043  1.00  0.00     0.038 A 
ENDBRANCH   1  18
TORSDOF 6
ENDMDL
MODEL 3
REMARK VINA RESULT:      -7.3      3.354      7.349
REMARK  6 active torsions:
REMARK  status: ('A' for Active; 'I' for Inactive)
REMARK    1  A    between atoms: C_6  and  C_7 
REMARK       I    between atoms: C_7  and  N_8 
REMARK    2  A    between atoms: N_8  and  C_9 
REMARK    3  A    between atoms: C_9  and  C_10 
REMARK    4  A    between atoms: C_10  and  O_11 
REMARK    5  A    between atoms: C_10  and  C_12 
REMARK    6  A    between atoms: C_15  and  O_16 
ROOT
HETATM    1  C   UNL     1      40.347 -13.000   1.317  1.00  0.00     0.258 C 
HETATM    2  N   UNL     1      40.298 -14.303   1.758  1.00  0.00    -0.350 N 
HETATM    3  O   UNL     1      41.168 -12.189   1.730  1.00  0.00    -0.267 OA
HETATM    4  H   UNL     1      39.570 -14.899   1.366  1.00  0.00     0.163 HD
ENDROOT
BRANCH   2   5
HETATM    5  C   UNL     1      41.190 -14.865   2.783  1.00  0.00     0.114 C 
HETATM    6  C   UNL     1      40.458 -15.889   3.653  1.00  0.00     0.035 C 
BRANCH   5   7
HETATM    7  C   UNL     1      42.500 -15.411   2.148  1.00  0.00     0.173 C 
BRANCH   7   8
HETATM    8  O   UNL     1      43.492 -14.370   2.184  1.00  0.00    -0.389 OA
HETATM    9  H   UNL     1      44.307 -14.803   2.492  1.00  0.00     0.210 HD
ENDBRANCH   7   8
BRANCH   7  10
HETATM   10  C   UNL     1      43.069 -16.623   2.854  1.00  0.00    -0.028 A 
HETATM   11  C   UNL     1      43.567 -16.501   4.158  1.00  0.00     0.012 A 
HETATM   12  C   UNL     1      44.100 -17.610   4.821  1.00  0.00     0.037 A 
HETATM   13  C   UNL     1      44.140 -18.860   4.201  1.00  0.00     0.068 A 
HETATM   14  C   UNL     1      43.658 -18.989   2.898  1.00  0.00     0.037 A 
HETATM   15  C   UNL     1      43.128 -17.878   2.230  1.00  0.00     0.012 A 
BRANCH  13  16
HETATM   16  O   UNL     1      44.673 -19.861   4.964  1.00  0.00    -0.356 OA
HETATM   17  C   UNL     1      43.897 -21.045   5.096  1.00  0.00     0.210 C 
ENDBRANCH  13  16
ENDBRANCH   7  10
ENDBRANCH   5   7
ENDBRANCH   2   5
BRANCH   1  18
HETATM   18  C   UNL     1      39.331 -12.644   0.340  1.00  0.00     0.105 A 
HETATM   19  C   UNL     1      38.430 -11.545   0.381  1.00  0.00     0.071 A 
HETATM   20  C   UNL     1      38.326 -10.493   1.425  1.00  0.00     0.073 C 
HETATM   21  N   UNL     1      37.611 -11.518  -0.675  1.00  0.00    -0.170 NA
HETATM   22  N   UNL     1      37.958 -12.597  -1.411  1.00  0.00    -0.225 N 
HETATM   23  C   UNL     1      39.010 -13.310  -0.830  1.00  0.00     0.168 A 
HETATM   24  C   UNL     1      37.388 -13.024  -2.605  1.00  0.00     0.122 A 
HETATM   25  N   UNL     1      39.526 -14.446  -1.409  1.00  0.00    -0.240 NA
HETATM   26  C   UNL     1      38.965 -14.814  -2.525  1.00  0.00     0.120 A 
HETATM   27  C   UNL     1      37.841 -14.127  -3.216  1.00  0.00     0.038 A 
ENDBRANCH   1  18
TORSDOF 6
ENDMDL
MODEL 4
REMARK VINA RESULT:      -7.2      1.172      2.704
REMARK  6 active torsions:
REMARK  status: ('A' for Active; 'I' for Inactive)
REMARK    1  A    between atoms: C_6  and  C_7 
REMARK       I    between atoms: C_7  and  N_8 
REMARK    2  A    between atoms: N_8  and  C_9 
REMARK    3  A    between atoms: C_9  and  C_10 
REMARK    4  A    between atoms: C_10  and  O_11 
REMARK    5  A    between atoms: C_10  and  C_12 
REMARK    6  A    between atoms: C_15  and  O_16 
ROOT
HETATM    1  C   UNL     1      42.762 -16.039   2.552  1.00  0.00     0.258 C 
HETATM    2  N   UNL     1      41.464 -15.578   2.570  1.00  0.00    -0.350 N 
HETATM    3  O   UNL     1      43.503 -15.899   1.586  1.00  0.00    -0.267 OA
HETATM    4  H   UNL     1      40.921 -15.754   3.414  1.00  0.00     0.163 HD
ENDROOT
BRANCH   2   5
HETATM    5  C   UNL     1      40.811 -14.898   1.443  1.00  0.00     0.114 C 
HETATM    6  C   UNL     1      39.816 -15.824   0.738  1.00  0.00     0.035 C 
BRANCH   5   7
HETATM    7  C   UNL     1      40.191 -13.543   1.887  1.00  0.00     0.173 C 
BRANCH   7   8
HETATM    8  O   UNL     1      38.927 -13.806   2.521  1.00  0.00    -0.389 OA
HETATM    9  H   UNL     1      38.316 -13.138   2.163  1.00  0.00     0.210 HD
ENDBRANCH   7   8
BRANCH   7  10
HETATM   10  C   UNL     1      41.048 -12.761   2.859  1.00  0.00    -0.028 A 
HETATM   11  C   UNL     1      40.576 -12.503   4.153  1.00  0.00     0.012 A 
HETATM   12  C   UNL     1      41.354 -11.779   5.061  1.00  0.00     0.037 A 
HETATM   13  C   UNL     1      42.616 -11.305   4.699  1.00  0.00     0.068 A 
HETATM   14  C   UNL     1      43.089 -11.546   3.409  1.00  0.00     0.037 A 
HETATM   15  C   UNL     1      42.310 -12.268   2.497  1.00  0.00     0.012 A 
BRANCH  13  16
HETATM   16  O   UNL     1      43.276 -10.624   5.684  1.00  0.00    -0.356 OA
HETATM   17  C   UNL     1      44.392 -11.279   6.273  1.00  0.00     0.210 C 
ENDBRANCH  13  16
ENDBRANCH   7  10
ENDBRANCH   5   7
ENDBRANCH   2   5
BRANCH   1  18
HETATM   18  C   UNL     1      43.183 -16.734   3.756  1.00  0.00     0.105 A 
HETATM   19  C   UNL     1      43.693 -18.057   3.866  1.00  0.00     0.071 A 
HETATM   20  C   UNL     1      43.929 -19.034   2.772  1.00  0.00     0.073 C 
HETATM   21  N   UNL     1      43.971 -18.392   5.130  1.00  0.00    -0.170 NA
HETATM   22  N   UNL     1      43.640 -17.304   5.859  1.00  0.00    -0.225 N 
HETATM   23  C   UNL     1      43.160 -16.263   5.058  1.00  0.00     0.168 A 
HETATM   24  C   UNL     1      43.726 -17.152   7.239  1.00  0.00     0.122 A 
HETATM   25  N   UNL     1      42.764 -15.059   5.590  1.00  0.00    -0.240 NA
HETATM   26  C   UNL     1      42.859 -14.956   6.884  1.00  0.00     0.120 A 
HETATM   27  C   UNL     1      43.351 -16.005   7.819  1.00  0.00     0.038 A 
ENDBRANCH   1  18
TORSDOF 6
ENDMDL
MODEL 5
REMARK VINA RESULT:      -7.0      3.951      8.258
REMARK  6 active torsions:
REMARK  status: ('A' for Active; 'I' for Inactive)
REMARK    1  A    between atoms: C_6  and  C_7 
REMARK       I    between atoms: C_7  and  N_8 
REMARK    2  A    between atoms: N_8  and  C_9 
REMARK    3  A    between atoms: C_9  and  C_10 
REMARK    4  A    between atoms: C_10  and  O_11 
REMARK    5  A    between atoms: C_10  and  C_12 
REMARK    6  A    between atoms: C_15  and  O_16 
ROOT
HETATM    1  C   UNL     1      43.890 -12.223   6.987  1.00  0.00     0.258 C 
HETATM    2  N   UNL     1      42.902 -13.176   6.877  1.00  0.00    -0.350 N 
HETATM    3  O   UNL     1      45.062 -12.444   6.704  1.00  0.00    -0.267 OA
HETATM    4  H   UNL     1      41.959 -12.900   7.149  1.00  0.00     0.163 HD
ENDROOT
BRANCH   2   5
HETATM    5  C   UNL     1      43.132 -14.560   6.441  1.00  0.00     0.114 C 
HETATM    6  C   UNL     1      42.639 -15.561   7.489  1.00  0.00     0.035 C 
BRANCH   5   7
HETATM    7  C   UNL     1      42.545 -14.807   5.022  1.00  0.00     0.173 C 
BRANCH   7   8
HETATM    8  O   UNL     1      42.981 -13.744   4.158  1.00  0.00    -0.389 OA
HETATM    9  H   UNL     1      42.245 -13.599   3.537  1.00  0.00     0.210 HD
ENDBRANCH   7   8
BRANCH   7  10
HETATM   10  C   UNL     1      42.968 -16.120   4.399  1.00  0.00    -0.028 A 
HETATM   11  C   UNL     1      42.415 -16.521   3.175  1.00  0.00     0.012 A 
HETATM   12  C   UNL     1      42.792 -17.733   2.590  1.00  0.00     0.037 A 
HETATM   13  C   UNL     1      43.730 -18.561   3.207  1.00  0.00     0.068 A 
HETATM   14  C   UNL     1      44.277 -18.176   4.431  1.00  0.00     0.037 A 
HETATM   15  C   UNL     1      43.897 -16.966   5.023  1.00  0.00     0.012 A 
BRANCH  13  16
HETATM   16  O   UNL     1      44.019 -19.709   2.522  1.00  0.00    -0.356 OA
HETATM   17  C   UNL     1      43.899 -20.929   3.242  1.00  0.00     0.210 C 
ENDBRANCH  13  16
ENDBRANCH   7  10
ENDBRANCH   5   7
ENDBRANCH   2   5
BRANCH   1  18
HETATM   18  C   UNL     1      43.447 -10.935   7.494  1.00  0.00     0.105 A 
HETATM   19  C   UNL     1      42.695  -9.941   6.810  1.00  0.00     0.071 A 
HETATM   20  C   UNL     1      42.172  -9.992   5.420  1.00  0.00     0.073 C 
HETATM   21  N   UNL     1      42.469  -8.862   7.566  1.00  0.00    -0.170 NA
HETATM   22  N   UNL     1      43.075  -9.131   8.744  1.00  0.00    -0.225 N 
HETATM   23  C   UNL     1      43.679 -10.391   8.746  1.00  0.00     0.168 A 
HETATM   24  C   UNL     1      43.144  -8.312   9.866  1.00  0.00     0.122 A 
HETATM   25  N   UNL     1      44.354 -10.873   9.843  1.00  0.00    -0.240 NA
HETATM   26  C   UNL     1      44.398 -10.076  10.872  1.00  0.00     0.120 A 
HETATM   27  C   UNL     1      43.791  -8.720  10.964  1.00  0.00     0.038 A 
ENDBRANCH   1  18
TORSDOF 6
ENDMDL
MODEL 6
REMARK VINA RESULT:      -7.0      2.949      6.735
REMARK  6 active torsions:
REMARK  status: ('A' for Active; 'I' for Inactive)
REMARK    1  A    between atoms: C_6  and  C_7 
REMARK       I    between atoms: C_7  and  N_8 
REMARK    2  A    between atoms: N_8  and  C_9 
REMARK    3  A    between atoms: C_9  and  C_10 
REMARK    4  A    between atoms: C_10  and  O_11 
REMARK    5  A    between atoms: C_10  and  C_12 
REMARK    6  A    between atoms: C_15  and  O_16 
ROOT
HETATM    1  C   UNL     1      39.962 -13.267   4.940  1.00  0.00     0.258 C 
HETATM    2  N   UNL     1      41.000 -14.163   5.069  1.00  0.00    -0.350 N 
HETATM    3  O   UNL     1      39.260 -12.924   5.885  1.00  0.00    -0.267 OA
HETATM    4  H   UNL     1      41.518 -14.397   4.223  1.00  0.00     0.163 HD
ENDROOT
BRANCH   2   5
HETATM    5  C   UNL     1      41.370 -14.828   6.326  1.00  0.00     0.114 C 
HETATM    6  C   UNL     1      40.403 -15.967   6.656  1.00  0.00     0.035 C 
BRANCH   5   7
HETATM    7  C   UNL     1      42.862 -15.264   6.313  1.00  0.00     0.173 C 
BRANCH   7   8
HETATM    8  O   UNL     1      43.219 -15.706   7.635  1.00  0.00    -0.389 OA
HETATM    9  H   UNL     1      43.540 -16.618   7.523  1.00  0.00     0.210 HD
ENDBRANCH   7   8
BRANCH   7  10
HETATM   10  C   UNL     1      43.169 -16.387   5.346  1.00  0.00    -0.028 A 
HETATM   11  C   UNL     1      43.618 -17.623   5.831  1.00  0.00     0.012 A 
HETATM   12  C   UNL     1      43.910 -18.667   4.950  1.00  0.00     0.037 A 
HETATM   13  C   UNL     1      43.754 -18.502   3.573  1.00  0.00     0.068 A 
HETATM   14  C   UNL     1      43.320 -17.272   3.080  1.00  0.00     0.037 A 
HETATM   15  C   UNL     1      43.031 -16.223   3.960  1.00  0.00     0.012 A 
BRANCH  13  16
HETATM   16  O   UNL     1      44.061 -19.606   2.826  1.00  0.00    -0.356 OA
HETATM   17  C   UNL     1      43.893 -20.869   3.457  1.00  0.00     0.210 C 
ENDBRANCH  13  16
ENDBRANCH   7  10
ENDBRANCH   5   7
ENDBRANCH   2   5
BRANCH   1  18
HETATM   18  C   UNL     1      39.738 -12.776   3.591  1.00  0.00     0.105 A 
HETATM   19  C   UNL     1      39.311 -11.480   3.196  1.00  0.00     0.071 A 
HETATM   20  C   UNL     1      39.009 -10.315   4.068  1.00  0.00     0.073 C 
HETATM   21  N   UNL     1      39.189 -11.365   1.868  1.00  0.00    -0.170 NA
HETATM   22  N   UNL     1      39.524 -12.582   1.384  1.00  0.00    -0.225 N 
HETATM   23  C   UNL     1      39.873 -13.473   2.403  1.00  0.00     0.168 A 
HETATM   24  C   UNL     1      39.540 -12.986   0.054  1.00  0.00     0.122 A 
HETATM   25  N   UNL     1      40.248 -14.770   2.137  1.00  0.00    -0.240 NA
HETATM   26  C   UNL     1      40.249 -15.110   0.881  1.00  0.00     0.120 A 
HETATM   27  C   UNL     1      39.891 -14.237  -0.270  1.00  0.00     0.038 A 
ENDBRANCH   1  18
TORSDOF 6
ENDMDL
MODEL 7
REMARK VINA RESULT:      -6.8      3.260      7.160
REMARK  6 active torsions:
REMARK  status: ('A' for Active; 'I' for Inactive)
REMARK    1  A    between atoms: C_6  and  C_7 
REMARK       I    between atoms: C_7  and  N_8 
REMARK    2  A    between atoms: N_8  and  C_9 
REMARK    3  A    between atoms: C_9  and  C_10 
REMARK    4  A    between atoms: C_10  and  O_11 
REMARK    5  A    between atoms: C_10  and  C_12 
REMARK    6  A    between atoms: C_15  and  O_16 
ROOT
HETATM    1  C   UNL     1      41.754 -11.406   4.965  1.00  0.00     0.258 C 
HETATM    2  N   UNL     1      42.120 -12.713   4.730  1.00  0.00    -0.350 N 
HETATM    3  O   UNL     1      41.021 -10.775   4.212  1.00  0.00    -0.267 OA
HETATM    4  H   UNL     1      42.744 -13.149   5.407  1.00  0.00     0.163 HD
ENDROOT
BRANCH   2   5
HETATM    5  C   UNL     1      41.707 -13.489   3.553  1.00  0.00     0.114 C 
HETATM    6  C   UNL     1      42.868 -13.669   2.572  1.00  0.00     0.035 C 
BRANCH   5   7
HETATM    7  C   UNL     1      41.033 -14.827   3.970  1.00  0.00     0.173 C 
BRANCH   7   8
HETATM    8  O   UNL     1      39.781 -14.944   3.271  1.00  0.00    -0.389 OA
HETATM    9  H   UNL     1      39.417 -14.042   3.244  1.00  0.00     0.210 HD
ENDBRANCH   7   8
BRANCH   7  10
HETATM   10  C   UNL     1      41.859 -16.057   3.660  1.00  0.00    -0.028 A 
HETATM   11  C   UNL     1      42.822 -16.500   4.576  1.00  0.00     0.012 A 
HETATM   12  C   UNL     1      43.595 -17.631   4.303  1.00  0.00     0.037 A 
HETATM   13  C   UNL     1      43.418 -18.345   3.117  1.00  0.00     0.068 A 
HETATM   14  C   UNL     1      42.470 -17.906   2.193  1.00  0.00     0.037 A 
HETATM   15  C   UNL     1      41.698 -16.770   2.463  1.00  0.00     0.012 A 
BRANCH  13  16
HETATM   16  O   UNL     1      44.228 -19.438   2.980  1.00  0.00    -0.356 OA
HETATM   17  C   UNL     1      43.819 -20.422   2.039  1.00  0.00     0.210 C 
ENDBRANCH  13  16
ENDBRANCH   7  10
ENDBRANCH   5   7
ENDBRANCH   2   5
BRANCH   1  18
HETATM   18  C   UNL     1      42.325 -10.814   6.163  1.00  0.00     0.105 A 
HETATM   19  C   UNL     1      41.659 -10.053   7.161  1.00  0.00     0.071 A 
HETATM   20  C   UNL     1      40.218  -9.695   7.223  1.00  0.00     0.073 C 
HETATM   21  N   UNL     1      42.488  -9.643   8.128  1.00  0.00    -0.170 NA
HETATM   22  N   UNL     1      43.700 -10.122   7.771  1.00  0.00    -0.225 N 
HETATM   23  C   UNL     1      43.645 -10.850   6.579  1.00  0.00     0.168 A 
HETATM   24  C   UNL     1      44.906  -9.953   8.442  1.00  0.00     0.122 A 
HETATM   25  N   UNL     1      44.765 -11.428   6.028  1.00  0.00    -0.240 NA
HETATM   26  C   UNL     1      45.874 -11.247   6.685  1.00  0.00     0.120 A 
HETATM   27  C   UNL     1      46.033 -10.487   7.954  1.00  0.00     0.038 A 
ENDBRANCH   1  18
TORSDOF 6
ENDMDL
MODEL 8
REMARK VINA RESULT:      -6.8      4.148      8.175
REMARK  6 active torsions:
REMARK  status: ('A' for Active; 'I' for Inactive)
REMARK    1  A    between atoms: C_6  and  C_7 
REMARK       I    between atoms: C_7  and  N_8 
REMARK    2  A    between atoms: N_8  and  C_9 
REMARK    3  A    between atoms: C_9  and  C_10 
REMARK    4  A    between atoms: C_10  and  O_11 
REMARK    5  A    between atoms: C_10  and  C_12 
REMARK    6  A    between atoms: C_15  and  O_16 
ROOT
HETATM    1  C   UNL     1      39.602 -13.375  -0.165  1.00  0.00     0.258 C 
HETATM    2  N   UNL     1      39.222 -13.465   1.156  1.00  0.00    -0.350 N 
HETATM    3  O   UNL     1      40.706 -13.726  -0.564  1.00  0.00    -0.267 OA
HETATM    4  H   UNL     1      38.288 -13.136   1.394  1.00  0.00     0.163 HD
ENDROOT
BRANCH   2   5
HETATM    5  C   UNL     1      40.090 -13.956   2.235  1.00  0.00     0.114 C 
HETATM    6  C   UNL     1      39.925 -13.117   3.505  1.00  0.00     0.035 C 
BRANCH   5   7
HETATM    7  C   UNL     1      39.890 -15.481   2.468  1.00  0.00     0.173 C 
BRANCH   7   8
HETATM    8  O   UNL     1      39.573 -16.096   1.206  1.00  0.00    -0.389 OA
HETATM    9  H   UNL     1      39.786 -15.426   0.533  1.00  0.00     0.210 HD
ENDBRANCH   7   8
BRANCH   7  10
HETATM   10  C   UNL     1      41.103 -16.183   3.039  1.00  0.00    -0.028 A 
HETATM   11  C   UNL     1      41.297 -16.224   4.426  1.00  0.00     0.012 A 
HETATM   12  C   UNL     1      42.414 -16.864   4.968  1.00  0.00     0.037 A 
HETATM   13  C   UNL     1      43.354 -17.481   4.140  1.00  0.00     0.068 A 
HETATM   14  C   UNL     1      43.176 -17.435   2.758  1.00  0.00     0.037 A 
HETATM   15  C   UNL     1      42.060 -16.790   2.212  1.00  0.00     0.012 A 
BRANCH  13  16
HETATM   16  O   UNL     1      44.390 -18.082   4.799  1.00  0.00    -0.356 OA
HETATM   17  C   UNL     1      44.429 -19.503   4.764  1.00  0.00     0.210 C 
ENDBRANCH  13  16
ENDBRANCH   7  10
ENDBRANCH   5   7
ENDBRANCH   2   5
BRANCH   1  18
HETATM   18  C   UNL     1      38.603 -12.806  -1.053  1.00  0.00     0.105 A 
HETATM   19  C   UNL     1      38.092 -13.359  -2.259  1.00  0.00     0.071 A 
HETATM   20  C   UNL     1      38.447 -14.658  -2.886  1.00  0.00     0.073 C 
HETATM   21  N   UNL     1      37.189 -12.563  -2.843  1.00  0.00    -0.170 NA
HETATM   22  N   UNL     1      37.107 -11.483  -2.036  1.00  0.00    -0.225 N 
HETATM   23  C   UNL     1      37.949 -11.592  -0.926  1.00  0.00     0.168 A 
HETATM   24  C   UNL     1      36.314 -10.354  -2.214  1.00  0.00     0.122 A 
HETATM   25  N   UNL     1      38.027 -10.605   0.029  1.00  0.00    -0.240 NA
HETATM   26  C   UNL     1      37.271  -9.564  -0.174  1.00  0.00     0.120 A 
HETATM   27  C   UNL     1      36.348  -9.355  -1.323  1.00  0.00     0.038 A 
ENDBRANCH   1  18
TORSDOF 6
ENDMDL
MODEL 9
REMARK VINA RESULT:      -6.8      5.192      7.827
REMARK  6 active torsions:
REMARK  status: ('A' for Active; 'I' for Inactive)
REMARK    1  A    between atoms: C_6  and  C_7 
REMARK       I    between atoms: C_7  and  N_8 
REMARK    2  A    between atoms: N_8  and  C_9 
REMARK    3  A    between atoms: C_9  and  C_10 
REMARK    4  A    between atoms: C_10  and  O_11 
REMARK    5  A    between atoms: C_10  and  C_12 
REMARK    6  A    between atoms: C_15  and  O_16 
ROOT
HETATM    1  C   UNL     1      44.061 -11.684   7.311  1.00  0.00     0.258 C 
HETATM    2  N   UNL     1      43.069 -11.081   8.052  1.00  0.00    -0.350 N 
HETATM    3  O   UNL     1      45.245 -11.383   7.415  1.00  0.00    -0.267 OA
HETATM    4  H   UNL     1      42.112 -11.390   7.885  1.00  0.00     0.163 HD
ENDROOT
BRANCH   2   5
HETATM    5  C   UNL     1      43.300 -10.001   9.021  1.00  0.00     0.114 C 
HETATM    6  C   UNL     1      42.084  -9.076   9.121  1.00  0.00     0.035 C 
BRANCH   5   7
HETATM    7  C   UNL     1      43.765 -10.566  10.393  1.00  0.00     0.173 C 
BRANCH   7   8
HETATM    8  O   UNL     1      45.203 -10.589  10.412  1.00  0.00    -0.389 OA
HETATM    9  H   UNL     1      45.441 -11.136  11.182  1.00  0.00     0.210 HD
ENDBRANCH   7   8
BRANCH   7  10
HETATM   10  C   UNL     1      43.294  -9.761  11.585  1.00  0.00    -0.028 A 
HETATM   11  C   UNL     1      43.862  -8.507  11.848  1.00  0.00     0.012 A 
HETATM   12  C   UNL     1      43.441  -7.754  12.947  1.00  0.00     0.037 A 
HETATM   13  C   UNL     1      42.443  -8.232  13.798  1.00  0.00     0.068 A 
HETATM   14  C   UNL     1      41.880  -9.484  13.551  1.00  0.00     0.037 A 
HETATM   15  C   UNL     1      42.303 -10.242  12.453  1.00  0.00     0.012 A 
BRANCH  13  16
HETATM   16  O   UNL     1      42.116  -7.390  14.825  1.00  0.00    -0.356 OA
HETATM   17  C   UNL     1      41.491  -6.164  14.470  1.00  0.00     0.210 C 
ENDBRANCH  13  16
ENDBRANCH   7  10
ENDBRANCH   5   7
ENDBRANCH   2   5
BRANCH   1  18
HETATM   18  C   UNL     1      43.599 -12.690   6.370  1.00  0.00     0.105 A 
HETATM   19  C   UNL     1      43.359 -12.536   4.977  1.00  0.00     0.071 A 
HETATM   20  C   UNL     1      43.539 -11.313   4.153  1.00  0.00     0.073 C 
HETATM   21  N   UNL     1      42.922 -13.664   4.407  1.00  0.00    -0.170 NA
HETATM   22  N   UNL     1      42.862 -14.561   5.415  1.00  0.00    -0.225 N 
HETATM   23  C   UNL     1      43.274 -14.010   6.632  1.00  0.00     0.168 A 
HETATM   24  C   UNL     1      42.448 -15.887   5.343  1.00  0.00     0.122 A 
HETATM   25  N   UNL     1      43.294 -14.745   7.794  1.00  0.00    -0.240 NA
HETATM   26  C   UNL     1      42.898 -15.981   7.686  1.00  0.00     0.120 A 
HETATM   27  C   UNL     1      42.439 -16.655   6.441  1.00  0.00     0.038 A 
ENDBRANCH   1  18
TORSDOF 6
ENDMDL
MODEL 10
REMARK VINA RESULT:      -6.8      1.805      2.918
REMARK  6 active torsions:
REMARK  status: ('A' for Active; 'I' for Inactive)
REMARK    1  A    between atoms: C_6  and  C_7 
REMARK       I    between atoms: C_7  and  N_8 
REMARK    2  A    between atoms: N_8  and  C_9 
REMARK    3  A    between atoms: C_9  and  C_10 
REMARK    4  A    between atoms: C_10  and  O_11 
REMARK    5  A    between atoms: C_10  and  C_12 
REMARK    6  A    between atoms: C_15  and  O_16 
ROOT
HETATM    1  C   UNL     1      42.080 -14.737   3.884  1.00  0.00     0.258 C 
HETATM    2  N   UNL     1      42.579 -13.503   4.238  1.00  0.00    -0.350 N 
HETATM    3  O   UNL     1      41.052 -14.875   3.231  1.00  0.00    -0.267 OA
HETATM    4  H   UNL     1      43.433 -13.490   4.794  1.00  0.00     0.163 HD
ENDROOT
BRANCH   2   5
HETATM    5  C   UNL     1      41.937 -12.223   3.906  1.00  0.00     0.114 C 
HETATM    6  C   UNL     1      40.626 -12.045   4.675  1.00  0.00     0.035 C 
BRANCH   5   7
HETATM    7  C   UNL     1      42.926 -11.036   4.081  1.00  0.00     0.173 C 
BRANCH   7   8
HETATM    8  O   UNL     1      42.192  -9.807   3.937  1.00  0.00    -0.389 OA
HETATM    9  H   UNL     1      41.563  -9.967   3.212  1.00  0.00     0.210 HD
ENDBRANCH   7   8
BRANCH   7  10
HETATM   10  C   UNL     1      43.627 -11.008   5.422  1.00  0.00    -0.028 A 
HETATM   11  C   UNL     1      42.953 -10.525   6.552  1.00  0.00     0.012 A 
HETATM   12  C   UNL     1      43.588 -10.489   7.796  1.00  0.00     0.037 A 
HETATM   13  C   UNL     1      44.902 -10.939   7.938  1.00  0.00     0.068 A 
HETATM   14  C   UNL     1      45.585 -11.410   6.817  1.00  0.00     0.037 A 
HETATM   15  C   UNL     1      44.952 -11.443   5.569  1.00  0.00     0.012 A 
BRANCH  13  16
HETATM   16  O   UNL     1      45.398 -10.861   9.210  1.00  0.00    -0.356 OA
HETATM   17  C   UNL     1      44.608 -10.160  10.161  1.00  0.00     0.210 C 
ENDBRANCH  13  16
ENDBRANCH   7  10
ENDBRANCH   5   7
ENDBRANCH   2   5
BRANCH   1  18
HETATM   18  C   UNL     1      42.848 -15.871   4.368  1.00  0.00     0.105 A 
HETATM   19  C   UNL     1      43.570 -15.978   5.587  1.00  0.00     0.071 A 
HETATM   20  C   UNL     1      43.697 -14.960   6.662  1.00  0.00     0.073 C 
HETATM   21  N   UNL     1      44.182 -17.161   5.715  1.00  0.00    -0.170 NA
HETATM   22  N   UNL     1      43.876 -17.833   4.584  1.00  0.00    -0.225 N 
HETATM   23  C   UNL     1      43.057 -17.085   3.735  1.00  0.00     0.168 A 
HETATM   24  C   UNL     1      44.289 -19.112   4.223  1.00  0.00     0.122 A 
HETATM   25  N   UNL     1      42.623 -17.574   2.525  1.00  0.00    -0.240 NA
HETATM   26  C   UNL     1      43.030 -18.773   2.223  1.00  0.00     0.120 A 
HETATM   27  C   UNL     1      43.904 -19.643   3.056  1.00  0.00     0.038 A 
ENDBRANCH   1  18
TORSDOF 6
ENDMDL
