MODEL 1
REMARK VINA RESULT:      -7.5      0.000      0.000
REMARK  4 active torsions:
REMARK  status: ('A' for Active; 'I' for Inactive)
REMARK    1  A    between atoms: N_2  and  C_4 
REMARK    2  A    between atoms: C_4  and  C_5 
REMARK    3  A    between atoms: C_8  and  C_9 
REMARK       I    between atoms: C_9  and  N_10 
REMARK    4  A    between atoms: N_10  and  C_11 
ROOT
HETATM    1  C   UNL     1      42.913  -8.663  11.730  1.00  0.00     0.269 C 
HETATM    2  N   UNL     1      44.141  -9.272  11.559  1.00  0.00    -0.153 N 
HETATM    3  O   UNL     1      42.108  -8.336  10.867  1.00  0.00    -0.267 OA
HETATM    4  H   UNL     1      44.803  -9.298  12.318  1.00  0.00     0.187 HD
ENDROOT
BRANCH   1   5
HETATM    5  C   UNL     1      42.543  -8.364  13.141  1.00  0.00     0.032 A 
HETATM    6  C   UNL     1      43.217  -7.328  13.800  1.00  0.00     0.017 A 
HETATM    7  C   UNL     1      42.811  -6.917  15.072  1.00  0.00     0.010 A 
HETATM    8  C   UNL     1      41.714  -7.528  15.696  1.00  0.00    -0.033 A 
HETATM    9  C   UNL     1      41.059  -8.586  15.045  1.00  0.00     0.010 A 
HETATM   10  C   UNL     1      41.468  -9.000  13.772  1.00  0.00     0.017 A 
BRANCH   8  11
HETATM   11  C   UNL     1      41.194  -6.995  17.007  1.00  0.00     0.272 C 
BRANCH  11  12
HETATM   12  N   UNL     1      41.170  -8.044  18.100  1.00  0.00    -0.075 N 
HETATM   13  C   UNL     1      39.824  -8.182  18.762  1.00  0.00     0.269 C 
HETATM   14  H   UNL     1      41.360  -8.946  17.645  1.00  0.00     0.279 HD
HETATM   15  C   UNL     1      42.258  -7.819  19.109  1.00  0.00     0.269 C 
ENDBRANCH  11  12
ENDBRANCH   8  11
ENDBRANCH   1   5
BRANCH   2  16
HETATM   16  C   UNL     1      44.487  -9.847  10.360  1.00  0.00     0.708 A 
HETATM   17  N   UNL     1      45.587  -9.681   9.665  1.00  0.00    -0.062 NA
HETATM   18  C   UNL     1      45.426 -10.404   8.512  1.00  0.00     0.103 A 
HETATM   19  C   UNL     1      44.190 -11.038   8.498  1.00  0.00     0.078 A 
HETATM   20  C   UNL     1      46.290 -10.559   7.421  1.00  0.00     0.034 A 
HETATM   21  N   UNL     1      43.619 -10.677   9.692  1.00  0.00    -0.187 N 
HETATM   22  C   UNL     1      43.747 -11.833   7.440  1.00  0.00     0.032 A 
HETATM   23  H   UNL     1      42.711 -10.971  10.014  1.00  0.00     0.184 HD
HETATM   24  C   UNL     1      44.621 -11.974   6.355  1.00  0.00     0.002 A 
HETATM   25  C   UNL     1      45.872 -11.351   6.343  1.00  0.00     0.002 A 
ENDBRANCH   2  16
TORSDOF 4
ENDMDL
MODEL 2
REMARK VINA RESULT:      -7.5      5.878      9.386
REMARK  4 active torsions:
REMARK  status: ('A' for Active; 'I' for Inactive)
REMARK    1  A    between atoms: N_2  and  C_4 
REMARK    2  A    between atoms: C_4  and  C_5 
REMARK    3  A    between atoms: C_8  and  C_9 
REMARK       I    between atoms: C_9  and  N_10 
REMARK    4  A    between atoms: N_10  and  C_11 
ROOT
HETATM    1  C   UNL     1      42.823 -14.528   5.046  1.00  0.00     0.269 C 
HETATM    2  N   UNL     1      43.850 -15.416   5.297  1.00  0.00    -0.153 N 
HETATM    3  O   UNL     1      41.904 -14.646   4.244  1.00  0.00    -0.267 OA
HETATM    4  H   UNL     1      44.659 -15.119   5.819  1.00  0.00     0.187 HD
ENDROOT
BRANCH   1   5
HETATM    5  C   UNL     1      42.857 -13.272   5.845  1.00  0.00     0.032 A 
HETATM    6  C   UNL     1      43.864 -13.124   6.808  1.00  0.00     0.017 A 
HETATM    7  C   UNL     1      44.024 -11.912   7.483  1.00  0.00     0.010 A 
HETATM    8  C   UNL     1      43.188 -10.824   7.192  1.00  0.00    -0.033 A 
HETATM    9  C   UNL     1      42.161 -10.985   6.247  1.00  0.00     0.010 A 
HETATM   10  C   UNL     1      41.999 -12.201   5.573  1.00  0.00     0.017 A 
BRANCH   8  11
HETATM   11  C   UNL     1      43.446  -9.479   7.821  1.00  0.00     0.272 C 
BRANCH  11  12
HETATM   12  N   UNL     1      44.535  -9.522   8.873  1.00  0.00    -0.075 N 
HETATM   13  C   UNL     1      44.101  -8.963  10.202  1.00  0.00     0.269 C 
HETATM   14  H   UNL     1      44.749 -10.514   9.034  1.00  0.00     0.279 HD
HETATM   15  C   UNL     1      45.799  -8.871   8.391  1.00  0.00     0.269 C 
ENDBRANCH  11  12
ENDBRANCH   8  11
ENDBRANCH   1   5
BRANCH   2  16
HETATM   16  C   UNL     1      43.795 -16.712   4.844  1.00  0.00     0.708 A 
HETATM   17  N   UNL     1      44.090 -17.813   5.493  1.00  0.00    -0.062 NA
HETATM   18  C   UNL     1      43.952 -18.838   4.593  1.00  0.00     0.103 A 
HETATM   19  C   UNL     1      43.557 -18.353   3.352  1.00  0.00     0.078 A 
HETATM   20  C   UNL     1      44.158 -20.213   4.758  1.00  0.00     0.034 A 
HETATM   21  N   UNL     1      43.451 -16.999   3.545  1.00  0.00    -0.187 N 
HETATM   22  C   UNL     1      43.352 -19.168   2.239  1.00  0.00     0.032 A 
HETATM   23  H   UNL     1      43.174 -16.331   2.843  1.00  0.00     0.184 HD
HETATM   24  C   UNL     1      43.567 -20.540   2.420  1.00  0.00     0.002 A 
HETATM   25  C   UNL     1      43.962 -21.057   3.657  1.00  0.00     0.002 A 
ENDBRANCH   2  16
TORSDOF 4
ENDMDL
MODEL 3
REMARK VINA RESULT:      -7.3     12.152     14.182
REMARK  4 active torsions:
REMARK  status: ('A' for Active; 'I' for Inactive)
REMARK    1  A    between atoms: N_2  and  C_4 
REMARK    2  A    between atoms: C_4  and  C_5 
REMARK    3  A    between atoms: C_8  and  C_9 
REMARK       I    between atoms: C_9  and  N_10 
REMARK    4  A    between atoms: N_10  and  C_11 
ROOT
HETATM    1  C   UNL     1      40.822 -14.808   1.869  1.00  0.00     0.269 C 
HETATM    2  N   UNL     1      41.000 -14.500   0.535  1.00  0.00    -0.153 N 
HETATM    3  O   UNL     1      39.922 -14.438   2.614  1.00  0.00    -0.267 OA
HETATM    4  H   UNL     1      41.883 -14.685   0.087  1.00  0.00     0.187 HD
ENDROOT
BRANCH   1   5
HETATM    5  C   UNL     1      41.867 -15.686   2.465  1.00  0.00     0.032 A 
HETATM    6  C   UNL     1      41.790 -15.978   3.832  1.00  0.00     0.017 A 
HETATM    7  C   UNL     1      42.661 -16.906   4.407  1.00  0.00     0.010 A 
HETATM    8  C   UNL     1      43.613 -17.567   3.617  1.00  0.00    -0.033 A 
HETATM    9  C   UNL     1      43.706 -17.249   2.252  1.00  0.00     0.010 A 
HETATM   10  C   UNL     1      42.835 -16.317   1.676  1.00  0.00     0.017 A 
BRANCH   8  11
HETATM   11  C   UNL     1      44.461 -18.664   4.209  1.00  0.00     0.272 C 
BRANCH  11  12
HETATM   12  N   UNL     1      43.735 -19.992   4.283  1.00  0.00    -0.075 N 
HETATM   13  C   UNL     1      44.201 -20.861   5.421  1.00  0.00     0.269 C 
HETATM   14  H   UNL     1      42.748 -19.777   4.471  1.00  0.00     0.279 HD
HETATM   15  C   UNL     1      43.786 -20.726   2.974  1.00  0.00     0.269 C 
ENDBRANCH  11  12
ENDBRANCH   8  11
ENDBRANCH   1   5
BRANCH   2  16
HETATM   16  C   UNL     1      39.988 -13.938  -0.205  1.00  0.00     0.708 A 
HETATM   17  N   UNL     1      39.353 -14.449  -1.233  1.00  0.00    -0.062 NA
HETATM   18  C   UNL     1      38.491 -13.478  -1.673  1.00  0.00     0.103 A 
HETATM   19  C   UNL     1      38.596 -12.336  -0.889  1.00  0.00     0.078 A 
HETATM   20  C   UNL     1      37.591 -13.494  -2.746  1.00  0.00     0.034 A 
HETATM   21  N   UNL     1      39.546 -12.662   0.045  1.00  0.00    -0.187 N 
HETATM   22  C   UNL     1      37.846 -11.179  -1.112  1.00  0.00     0.032 A 
HETATM   23  H   UNL     1      39.866 -12.057   0.785  1.00  0.00     0.184 HD
HETATM   24  C   UNL     1      36.956 -11.211  -2.192  1.00  0.00     0.002 A 
HETATM   25  C   UNL     1      36.826 -12.346  -2.996  1.00  0.00     0.002 A 
ENDBRANCH   2  16
TORSDOF 4
ENDMDL
MODEL 4
REMARK VINA RESULT:      -7.3     11.648     13.692
REMARK  4 active torsions:
REMARK  status: ('A' for Active; 'I' for Inactive)
REMARK    1  A    between atoms: N_2  and  C_4 
REMARK    2  A    between atoms: C_4  and  C_5 
REMARK    3  A    between atoms: C_8  and  C_9 
REMARK       I    between atoms: C_9  and  N_10 
REMARK    4  A    between atoms: N_10  and  C_11 
ROOT
HETATM    1  C   UNL     1      41.909 -14.333   1.602  1.00  0.00     0.269 C 
HETATM    2  N   UNL     1      41.328 -14.730   0.414  1.00  0.00    -0.153 N 
HETATM    3  O   UNL     1      42.035 -13.194   2.035  1.00  0.00    -0.267 OA
HETATM    4  H   UNL     1      41.473 -15.665   0.067  1.00  0.00     0.187 HD
ENDROOT
BRANCH   1   5
HETATM    5  C   UNL     1      42.459 -15.434   2.440  1.00  0.00     0.032 A 
HETATM    6  C   UNL     1      42.718 -16.668   1.831  1.00  0.00     0.017 A 
HETATM    7  C   UNL     1      43.363 -17.685   2.539  1.00  0.00     0.010 A 
HETATM    8  C   UNL     1      43.771 -17.475   3.865  1.00  0.00    -0.033 A 
HETATM    9  C   UNL     1      43.483 -16.246   4.481  1.00  0.00     0.010 A 
HETATM   10  C   UNL     1      42.834 -15.228   3.773  1.00  0.00     0.017 A 
BRANCH   8  11
HETATM   11  C   UNL     1      44.584 -18.521   4.583  1.00  0.00     0.272 C 
BRANCH  11  12
HETATM   12  N   UNL     1      43.725 -19.538   5.306  1.00  0.00    -0.075 N 
HETATM   13  C   UNL     1      43.380 -19.131   6.714  1.00  0.00     0.269 C 
HETATM   14  H   UNL     1      42.836 -19.588   4.795  1.00  0.00     0.279 HD
HETATM   15  C   UNL     1      44.336 -20.909   5.265  1.00  0.00     0.269 C 
ENDBRANCH  11  12
ENDBRANCH   8  11
ENDBRANCH   1   5
BRANCH   2  16
HETATM   16  C   UNL     1      40.547 -13.867  -0.318  1.00  0.00     0.708 A 
HETATM   17  N   UNL     1      39.277 -13.982  -0.624  1.00  0.00    -0.062 NA
HETATM   18  C   UNL     1      38.979 -12.914  -1.430  1.00  0.00     0.103 A 
HETATM   19  C   UNL     1      40.099 -12.115  -1.622  1.00  0.00     0.078 A 
HETATM   20  C   UNL     1      37.771 -12.563  -2.046  1.00  0.00     0.034 A 
HETATM   21  N   UNL     1      41.079 -12.738  -0.893  1.00  0.00    -0.187 N 
HETATM   22  C   UNL     1      40.095 -10.964  -2.411  1.00  0.00     0.032 A 
HETATM   23  H   UNL     1      42.030 -12.418  -0.804  1.00  0.00     0.184 HD
HETATM   24  C   UNL     1      38.881 -10.630  -3.024  1.00  0.00     0.002 A 
HETATM   25  C   UNL     1      37.736 -11.413  -2.846  1.00  0.00     0.002 A 
ENDBRANCH   2  16
TORSDOF 4
ENDMDL
MODEL 5
REMARK VINA RESULT:      -7.2      6.078     11.572
REMARK  4 active torsions:
REMARK  status: ('A' for Active; 'I' for Inactive)
REMARK    1  A    between atoms: N_2  and  C_4 
REMARK    2  A    between atoms: C_4  and  C_5 
REMARK    3  A    between atoms: C_8  and  C_9 
REMARK       I    between atoms: C_9  and  N_10 
REMARK    4  A    between atoms: N_10  and  C_11 
ROOT
HETATM    1  C   UNL     1      42.832 -13.148   4.514  1.00  0.00     0.269 C 
HETATM    2  N   UNL     1      43.211 -13.197   5.841  1.00  0.00    -0.153 N 
HETATM    3  O   UNL     1      42.650 -12.157   3.819  1.00  0.00    -0.267 OA
HETATM    4  H   UNL     1      43.121 -14.054   6.362  1.00  0.00     0.187 HD
ENDROOT
BRANCH   1   5
HETATM    5  C   UNL     1      42.607 -14.471   3.868  1.00  0.00     0.032 A 
HETATM    6  C   UNL     1      43.294 -14.757   2.682  1.00  0.00     0.017 A 
HETATM    7  C   UNL     1      43.226 -16.032   2.115  1.00  0.00     0.010 A 
HETATM    8  C   UNL     1      42.480 -17.044   2.737  1.00  0.00    -0.033 A 
HETATM    9  C   UNL     1      41.769 -16.745   3.911  1.00  0.00     0.010 A 
HETATM   10  C   UNL     1      41.835 -15.467   4.477  1.00  0.00     0.017 A 
BRANCH   8  11
HETATM   11  C   UNL     1      42.516 -18.452   2.200  1.00  0.00     0.272 C 
BRANCH  11  12
HETATM   12  N   UNL     1      43.821 -19.161   2.498  1.00  0.00    -0.075 N 
HETATM   13  C   UNL     1      43.886 -20.553   1.926  1.00  0.00     0.269 C 
HETATM   14  H   UNL     1      44.561 -18.624   2.029  1.00  0.00     0.279 HD
HETATM   15  C   UNL     1      44.133 -19.156   3.966  1.00  0.00     0.269 C 
ENDBRANCH  11  12
ENDBRANCH   8  11
ENDBRANCH   1   5
BRANCH   2  16
HETATM   16  C   UNL     1      43.713 -12.086   6.477  1.00  0.00     0.708 A 
HETATM   17  N   UNL     1      44.958 -11.827   6.797  1.00  0.00    -0.062 NA
HETATM   18  C   UNL     1      44.938 -10.640   7.484  1.00  0.00     0.103 A 
HETATM   19  C   UNL     1      43.641 -10.153   7.586  1.00  0.00     0.078 A 
HETATM   20  C   UNL     1      45.990  -9.918   8.062  1.00  0.00     0.034 A 
HETATM   21  N   UNL     1      42.884 -11.086   6.925  1.00  0.00    -0.187 N 
HETATM   22  C   UNL     1      43.316  -8.966   8.245  1.00  0.00     0.032 A 
HETATM   23  H   UNL     1      41.885 -11.042   6.799  1.00  0.00     0.184 HD
HETATM   24  C   UNL     1      44.379  -8.260   8.822  1.00  0.00     0.002 A 
HETATM   25  C   UNL     1      45.694  -8.724   8.733  1.00  0.00     0.002 A 
ENDBRANCH   2  16
TORSDOF 4
ENDMDL
MODEL 6
REMARK VINA RESULT:      -7.1      3.617      6.087
REMARK  4 active torsions:
REMARK  status: ('A' for Active; 'I' for Inactive)
REMARK    1  A    between atoms: N_2  and  C_4 
REMARK    2  A    between atoms: C_4  and  C_5 
REMARK    3  A    between atoms: C_8  and  C_9 
REMARK       I    between atoms: C_9  and  N_10 
REMARK    4  A    between atoms: N_10  and  C_11 
ROOT
HETATM    1  C   UNL     1      44.362 -11.865   7.279  1.00  0.00     0.269 C 
HETATM    2  N   UNL     1      43.539 -12.958   7.462  1.00  0.00    -0.153 N 
HETATM    3  O   UNL     1      45.241 -11.716   6.440  1.00  0.00    -0.267 OA
HETATM    4  H   UNL     1      43.005 -13.054   8.311  1.00  0.00     0.187 HD
ENDROOT
BRANCH   1   5
HETATM    5  C   UNL     1      44.152 -10.744   8.237  1.00  0.00     0.032 A 
HETATM    6  C   UNL     1      42.955 -10.021   8.162  1.00  0.00     0.017 A 
HETATM    7  C   UNL     1      42.651  -9.056   9.124  1.00  0.00     0.010 A 
HETATM    8  C   UNL     1      43.534  -8.811  10.185  1.00  0.00    -0.033 A 
HETATM    9  C   UNL     1      44.747  -9.517  10.241  1.00  0.00     0.010 A 
HETATM   10  C   UNL     1      45.054 -10.482   9.274  1.00  0.00     0.017 A 
BRANCH   8  11
HETATM   11  C   UNL     1      43.145  -7.868  11.295  1.00  0.00     0.272 C 
BRANCH  11  12
HETATM   12  N   UNL     1      43.143  -8.532  12.656  1.00  0.00    -0.075 N 
HETATM   13  C   UNL     1      42.057  -9.564  12.813  1.00  0.00     0.269 C 
HETATM   14  H   UNL     1      44.033  -9.038  12.738  1.00  0.00     0.279 HD
HETATM   15  C   UNL     1      43.105  -7.522  13.767  1.00  0.00     0.269 C 
ENDBRANCH  11  12
ENDBRANCH   8  11
ENDBRANCH   1   5
BRANCH   2  16
HETATM   16  C   UNL     1      43.431 -13.934   6.500  1.00  0.00     0.708 A 
HETATM   17  N   UNL     1      43.694 -15.215   6.609  1.00  0.00    -0.062 NA
HETATM   18  C   UNL     1      43.508 -15.752   5.361  1.00  0.00     0.103 A 
HETATM   19  C   UNL     1      43.116 -14.772   4.457  1.00  0.00     0.078 A 
HETATM   20  C   UNL     1      43.666 -17.071   4.918  1.00  0.00     0.034 A 
HETATM   21  N   UNL     1      43.062 -13.628   5.212  1.00  0.00    -0.187 N 
HETATM   22  C   UNL     1      42.868 -15.027   3.108  1.00  0.00     0.032 A 
HETATM   23  H   UNL     1      42.801 -12.717   4.870  1.00  0.00     0.184 HD
HETATM   24  C   UNL     1      43.036 -16.350   2.681  1.00  0.00     0.002 A 
HETATM   25  C   UNL     1      43.426 -17.357   3.567  1.00  0.00     0.002 A 
ENDBRANCH   2  16
TORSDOF 4
ENDMDL
MODEL 7
REMARK VINA RESULT:      -6.9      3.164      9.796
REMARK  4 active torsions:
REMARK  status: ('A' for Active; 'I' for Inactive)
REMARK    1  A    between atoms: N_2  and  C_4 
REMARK    2  A    between atoms: C_4  and  C_5 
REMARK    3  A    between atoms: C_8  and  C_9 
REMARK       I    between atoms: C_9  and  N_10 
REMARK    4  A    between atoms: N_10  and  C_11 
ROOT
HETATM    1  C   UNL     1      43.918 -11.096   8.067  1.00  0.00     0.269 C 
HETATM    2  N   UNL     1      42.838 -10.286   8.356  1.00  0.00    -0.153 N 
HETATM    3  O   UNL     1      44.979 -11.181   8.672  1.00  0.00    -0.267 OA
HETATM    4  H   UNL     1      42.113 -10.146   7.671  1.00  0.00     0.187 HD
ENDROOT
BRANCH   1   5
HETATM    5  C   UNL     1      43.763 -11.956   6.862  1.00  0.00     0.032 A 
HETATM    6  C   UNL     1      43.630 -13.339   7.043  1.00  0.00     0.017 A 
HETATM    7  C   UNL     1      43.342 -14.170   5.959  1.00  0.00     0.010 A 
HETATM    8  C   UNL     1      43.168 -13.627   4.677  1.00  0.00    -0.033 A 
HETATM    9  C   UNL     1      43.331 -12.244   4.494  1.00  0.00     0.010 A 
HETATM   10  C   UNL     1      43.622 -11.411   5.580  1.00  0.00     0.017 A 
BRANCH   8  11
HETATM   11  C   UNL     1      42.725 -14.505   3.535  1.00  0.00     0.272 C 
BRANCH  11  12
HETATM   12  N   UNL     1      42.215 -15.855   3.995  1.00  0.00    -0.075 N 
HETATM   13  C   UNL     1      43.044 -17.008   3.493  1.00  0.00     0.269 C 
HETATM   14  H   UNL     1      42.298 -15.867   5.019  1.00  0.00     0.279 HD
HETATM   15  C   UNL     1      40.761 -16.040   3.667  1.00  0.00     0.269 C 
ENDBRANCH  11  12
ENDBRANCH   8  11
ENDBRANCH   1   5
BRANCH   2  16
HETATM   16  C   UNL     1      42.730  -9.654   9.572  1.00  0.00     0.708 A 
HETATM   17  N   UNL     1      42.838  -8.374   9.835  1.00  0.00    -0.062 NA
HETATM   18  C   UNL     1      42.731  -8.252  11.197  1.00  0.00     0.103 A 
HETATM   19  C   UNL     1      42.547  -9.496  11.789  1.00  0.00     0.078 A 
HETATM   20  C   UNL     1      42.791  -7.109  12.004  1.00  0.00     0.034 A 
HETATM   21  N   UNL     1      42.537 -10.368  10.730  1.00  0.00    -0.187 N 
HETATM   22  C   UNL     1      42.420  -9.678  13.167  1.00  0.00     0.032 A 
HETATM   23  H   UNL     1      42.414 -11.365  10.800  1.00  0.00     0.184 HD
HETATM   24  C   UNL     1      42.488  -8.526  13.959  1.00  0.00     0.002 A 
HETATM   25  C   UNL     1      42.669  -7.262  13.392  1.00  0.00     0.002 A 
ENDBRANCH   2  16
TORSDOF 4
ENDMDL
MODEL 8
REMARK VINA RESULT:      -6.9      6.152      9.517
REMARK  4 active torsions:
REMARK  status: ('A' for Active; 'I' for Inactive)
REMARK    1  A    between atoms: N_2  and  C_4 
REMARK    2  A    between atoms: C_4  and  C_5 
REMARK    3  A    between atoms: C_8  and  C_9 
REMARK       I    between atoms: C_9  and  N_10 
REMARK    4  A    between atoms: N_10  and  C_11 
ROOT
HETATM    1  C   UNL     1      41.799 -14.598   4.621  1.00  0.00     0.269 C 
HETATM    2  N   UNL     1      43.061 -15.037   4.273  1.00  0.00    -0.153 N 
HETATM    3  O   UNL     1      40.737 -15.201   4.519  1.00  0.00    -0.267 OA
HETATM    4  H   UNL     1      43.823 -14.382   4.203  1.00  0.00     0.187 HD
ENDROOT
BRANCH   1   5
HETATM    5  C   UNL     1      41.736 -13.217   5.174  1.00  0.00     0.032 A 
HETATM    6  C   UNL     1      40.484 -12.700   5.530  1.00  0.00     0.017 A 
HETATM    7  C   UNL     1      40.387 -11.468   6.181  1.00  0.00     0.010 A 
HETATM    8  C   UNL     1      41.544 -10.743   6.499  1.00  0.00    -0.033 A 
HETATM    9  C   UNL     1      42.796 -11.251   6.115  1.00  0.00     0.010 A 
HETATM   10  C   UNL     1      42.893 -12.484   5.459  1.00  0.00     0.017 A 
BRANCH   8  11
HETATM   11  C   UNL     1      41.448  -9.482   7.320  1.00  0.00     0.272 C 
BRANCH  11  12
HETATM   12  N   UNL     1      41.196  -9.754   8.788  1.00  0.00    -0.075 N 
HETATM   13  C   UNL     1      39.868  -9.232   9.271  1.00  0.00     0.269 C 
HETATM   14  H   UNL     1      41.160 -10.775   8.895  1.00  0.00     0.279 HD
HETATM   15  C   UNL     1      42.325  -9.259   9.646  1.00  0.00     0.269 C 
ENDBRANCH  11  12
ENDBRANCH   8  11
ENDBRANCH   1   5
BRANCH   2  16
HETATM   16  C   UNL     1      43.305 -16.365   4.014  1.00  0.00     0.708 A 
HETATM   17  N   UNL     1      43.168 -17.010   2.881  1.00  0.00    -0.062 NA
HETATM   18  C   UNL     1      43.457 -18.323   3.150  1.00  0.00     0.103 A 
HETATM   19  C   UNL     1      43.786 -18.490   4.489  1.00  0.00     0.078 A 
HETATM   20  C   UNL     1      43.450 -19.437   2.301  1.00  0.00     0.034 A 
HETATM   21  N   UNL     1      43.694 -17.225   5.013  1.00  0.00    -0.187 N 
HETATM   22  C   UNL     1      44.113 -19.725   5.052  1.00  0.00     0.032 A 
HETATM   23  H   UNL     1      43.876 -16.978   5.972  1.00  0.00     0.184 HD
HETATM   24  C   UNL     1      44.096 -20.828   4.190  1.00  0.00     0.002 A 
HETATM   25  C   UNL     1      43.772 -20.690   2.837  1.00  0.00     0.002 A 
ENDBRANCH   2  16
TORSDOF 4
ENDMDL
MODEL 9
REMARK VINA RESULT:      -6.7      2.484      9.567
REMARK  4 active torsions:
REMARK  status: ('A' for Active; 'I' for Inactive)
REMARK    1  A    between atoms: N_2  and  C_4 
REMARK    2  A    between atoms: C_4  and  C_5 
REMARK    3  A    between atoms: C_8  and  C_9 
REMARK       I    between atoms: C_9  and  N_10 
REMARK    4  A    between atoms: N_10  and  C_11 
ROOT
HETATM    1  C   UNL     1      44.028 -10.003   9.244  1.00  0.00     0.269 C 
HETATM    2  N   UNL     1      42.814  -9.500   9.668  1.00  0.00    -0.153 N 
HETATM    3  O   UNL     1      45.093 -10.009   9.850  1.00  0.00    -0.267 OA
HETATM    4  H   UNL     1      42.067  -9.358   9.007  1.00  0.00     0.187 HD
ENDROOT
BRANCH   1   5
HETATM    5  C   UNL     1      44.030 -10.594   7.878  1.00  0.00     0.032 A 
HETATM    6  C   UNL     1      42.864 -10.495   7.109  1.00  0.00     0.017 A 
HETATM    7  C   UNL     1      42.860 -10.906   5.774  1.00  0.00     0.010 A 
HETATM    8  C   UNL     1      44.029 -11.410   5.185  1.00  0.00    -0.033 A 
HETATM    9  C   UNL     1      45.188 -11.535   5.968  1.00  0.00     0.010 A 
HETATM   10  C   UNL     1      45.192 -11.125   7.306  1.00  0.00     0.017 A 
BRANCH   8  11
HETATM   11  C   UNL     1      44.060 -11.727   3.712  1.00  0.00     0.272 C 
BRANCH  11  12
HETATM   12  N   UNL     1      42.724 -12.209   3.186  1.00  0.00    -0.075 N 
HETATM   13  C   UNL     1      42.775 -13.604   2.620  1.00  0.00     0.269 C 
HETATM   14  H   UNL     1      42.089 -12.250   3.992  1.00  0.00     0.279 HD
HETATM   15  C   UNL     1      42.131 -11.240   2.205  1.00  0.00     0.269 C 
ENDBRANCH  11  12
ENDBRANCH   8  11
ENDBRANCH   1   5
BRANCH   2  16
HETATM   16  C   UNL     1      42.599  -9.181  10.988  1.00  0.00     0.708 A 
HETATM   17  N   UNL     1      41.666  -9.634  11.791  1.00  0.00    -0.062 NA
HETATM   18  C   UNL     1      41.820  -8.960  12.975  1.00  0.00     0.103 A 
HETATM   19  C   UNL     1      42.882  -8.068  12.899  1.00  0.00     0.078 A 
HETATM   20  C   UNL     1      41.082  -9.049  14.162  1.00  0.00     0.034 A 
HETATM   21  N   UNL     1      43.367  -8.239  11.627  1.00  0.00    -0.187 N 
HETATM   22  C   UNL     1      43.263  -7.236  13.953  1.00  0.00     0.032 A 
HETATM   23  H   UNL     1      44.153  -7.747  11.234  1.00  0.00     0.184 HD
HETATM   24  C   UNL     1      42.511  -7.334  15.130  1.00  0.00     0.002 A 
HETATM   25  C   UNL     1      41.439  -8.225  15.237  1.00  0.00     0.002 A 
ENDBRANCH   2  16
TORSDOF 4
ENDMDL
MODEL 10
REMARK VINA RESULT:      -6.7     22.813     24.089
REMARK  4 active torsions:
REMARK  status: ('A' for Active; 'I' for Inactive)
REMARK    1  A    between atoms: N_2  and  C_4 
REMARK    2  A    between atoms: C_4  and  C_5 
REMARK    3  A    between atoms: C_8  and  C_9 
REMARK       I    between atoms: C_9  and  N_10 
REMARK    4  A    between atoms: N_10  and  C_11 
ROOT
HETATM    1  C   UNL     1      42.158 -29.846   2.183  1.00  0.00     0.269 C 
HETATM    2  N   UNL     1      43.489 -30.136   2.407  1.00  0.00    -0.153 N 
HETATM    3  O   UNL     1      41.688 -28.998   1.435  1.00  0.00    -0.267 OA
HETATM    4  H   UNL     1      43.757 -30.702   3.196  1.00  0.00     0.187 HD
ENDROOT
BRANCH   1   5
HETATM    5  C   UNL     1      41.188 -30.663   2.963  1.00  0.00     0.032 A 
HETATM    6  C   UNL     1      40.478 -31.669   2.297  1.00  0.00     0.017 A 
HETATM    7  C   UNL     1      39.664 -32.552   3.011  1.00  0.00     0.010 A 
HETATM    8  C   UNL     1      39.562 -32.450   4.405  1.00  0.00    -0.033 A 
HETATM    9  C   UNL     1      40.253 -31.422   5.067  1.00  0.00     0.010 A 
HETATM   10  C   UNL     1      41.066 -30.535   4.352  1.00  0.00     0.017 A 
BRANCH   8  11
HETATM   11  C   UNL     1      38.793 -33.483   5.188  1.00  0.00     0.272 C 
BRANCH  11  12
HETATM   12  N   UNL     1      37.598 -34.024   4.430  1.00  0.00    -0.075 N 
HETATM   13  C   UNL     1      36.314 -33.308   4.755  1.00  0.00     0.269 C 
HETATM   14  H   UNL     1      37.779 -33.851   3.434  1.00  0.00     0.279 HD
HETATM   15  C   UNL     1      37.457 -35.509   4.602  1.00  0.00     0.269 C 
ENDBRANCH  11  12
ENDBRANCH   8  11
ENDBRANCH   1   5
BRANCH   2  16
HETATM   16  C   UNL     1      44.470 -29.664   1.569  1.00  0.00     0.708 A 
HETATM   17  N   UNL     1      45.635 -29.152   1.888  1.00  0.00    -0.062 NA
HETATM   18  C   UNL     1      46.216 -28.757   0.710  1.00  0.00     0.103 A 
HETATM   19  C   UNL     1      45.385 -29.039  -0.367  1.00  0.00     0.078 A 
HETATM   20  C   UNL     1      47.452 -28.140   0.481  1.00  0.00     0.034 A 
HETATM   21  N   UNL     1      44.287 -29.627   0.207  1.00  0.00    -0.187 N 
HETATM   22  C   UNL     1      45.712 -28.734  -1.689  1.00  0.00     0.032 A 
HETATM   23  H   UNL     1      43.481 -29.966  -0.293  1.00  0.00     0.184 HD
HETATM   24  C   UNL     1      46.949 -28.112  -1.899  1.00  0.00     0.002 A 
HETATM   25  C   UNL     1      47.807 -27.820  -0.836  1.00  0.00     0.002 A 
ENDBRANCH   2  16
TORSDOF 4
ENDMDL
