MODEL 1
REMARK VINA RESULT:      -9.0      0.000      0.000
REMARK  7 active torsions:
REMARK  status: ('A' for Active; 'I' for Inactive)
REMARK    1  A    between atoms: C_3  and  C_4 
REMARK       I    between atoms: C_4  and  N_5 
REMARK    2  A    between atoms: N_5  and  C_6 
REMARK    3  A    between atoms: C_6  and  C_7 
REMARK    4  A    between atoms: C_7  and  O_8 
REMARK    5  A    between atoms: C_7  and  C_9 
REMARK    6  A    between atoms: C_18  and  N_19 
REMARK       I    between atoms: N_19  and  C_20 
REMARK    7  A    between atoms: C_20  and  C_21 
ROOT
HETATM    1  C   UNL     1      39.697 -11.044   6.043  1.00  0.00     0.050 C 
HETATM    2  C   UNL     1      41.004 -11.747   5.864  1.00  0.00    -0.037 A 
HETATM    3  C   UNL     1      42.222 -11.314   6.375  1.00  0.00     0.080 A 
HETATM    4  S   UNL     1      43.493 -12.378   5.931  1.00  0.00    -0.066 SA
HETATM    5  C   UNL     1      42.451 -13.444   5.139  1.00  0.00     0.078 A 
HETATM    6  C   UNL     1      41.153 -12.987   5.151  1.00  0.00     0.045 A 
ENDROOT
BRANCH   3   7
HETATM    7  C   UNL     1      42.486 -10.152   7.222  1.00  0.00     0.259 C 
HETATM    8  N   UNL     1      42.823 -10.437   8.525  1.00  0.00    -0.354 N 
HETATM    9  H   UNL     1      43.043 -11.398   8.759  1.00  0.00     0.162 HD
HETATM   10  O   UNL     1      42.416  -8.992   6.822  1.00  0.00    -0.267 OA
BRANCH   8  11
HETATM   11  C   UNL     1      43.086  -9.410   9.515  1.00  0.00     0.159 C 
BRANCH  11  12
HETATM   12  C   UNL     1      43.689  -9.968  10.819  1.00  0.00     0.169 C 
BRANCH  12  13
HETATM   13  O   UNL     1      43.527 -11.390  10.850  1.00  0.00    -0.389 OA
HETATM   14  H   UNL     1      43.341 -11.671   9.937  1.00  0.00     0.210 HD
ENDBRANCH  12  13
BRANCH  12  15
HETATM   15  C   UNL     1      43.111  -9.339  12.076  1.00  0.00    -0.028 A 
HETATM   16  C   UNL     1      43.618  -8.113  12.541  1.00  0.00     0.013 A 
HETATM   17  C   UNL     1      43.086  -7.514  13.685  1.00  0.00     0.043 A 
HETATM   18  C   UNL     1      42.044  -8.132  14.365  1.00  0.00     0.116 A 
HETATM   19  F   UNL     1      41.537  -7.554  15.462  1.00  0.00    -0.206 F 
HETATM   20  C   UNL     1      41.519  -9.338  13.921  1.00  0.00     0.043 A 
HETATM   21  C   UNL     1      42.050  -9.940  12.780  1.00  0.00     0.013 A 
ENDBRANCH  12  15
ENDBRANCH  11  12
ENDBRANCH   8  11
ENDBRANCH   3   7
BRANCH   5  22
HETATM   22  N   UNL     1      42.880 -14.642   4.598  1.00  0.00    -0.317 N 
HETATM   23  C   UNL     1      42.642 -15.910   5.092  1.00  0.00     0.258 C 
HETATM   24  O   UNL     1      42.101 -16.192   6.157  1.00  0.00    -0.267 OA
HETATM   25  H   UNL     1      43.426 -14.560   3.748  1.00  0.00     0.169 HD
BRANCH  23  26
HETATM   26  C   UNL     1      43.041 -17.048   4.205  1.00  0.00     0.054 A 
HETATM   27  C   UNL     1      42.500 -17.334   2.942  1.00  0.00     0.049 A 
HETATM   28 CL   UNL     1      41.309 -16.352   2.161  1.00  0.00    -0.083 Cl
HETATM   29  C   UNL     1      42.941 -18.457   2.227  1.00  0.00     0.025 A 
HETATM   30  C   UNL     1      43.925 -19.294   2.753  1.00  0.00     0.002 A 
HETATM   31  C   UNL     1      44.482 -19.012   3.994  1.00  0.00     0.001 A 
HETATM   32  C   UNL     1      44.045 -17.896   4.713  1.00  0.00     0.019 A 
ENDBRANCH  23  26
ENDBRANCH   5  22
TORSDOF 7
ENDMDL
MODEL 2
REMARK VINA RESULT:      -8.9      4.397     10.690
REMARK  7 active torsions:
REMARK  status: ('A' for Active; 'I' for Inactive)
REMARK    1  A    between atoms: C_3  and  C_4 
REMARK       I    between atoms: C_4  and  N_5 
REMARK    2  A    between atoms: N_5  and  C_6 
REMARK    3  A    between atoms: C_6  and  C_7 
REMARK    4  A    between atoms: C_7  and  O_8 
REMARK    5  A    between atoms: C_7  and  C_9 
REMARK    6  A    between atoms: C_18  and  N_19 
REMARK       I    between atoms: N_19  and  C_20 
REMARK    7  A    between atoms: C_20  and  C_21 
ROOT
HETATM    1  C   UNL     1      46.669 -10.829   7.178  1.00  0.00     0.050 C 
HETATM    2  C   UNL     1      45.291 -10.535   7.681  1.00  0.00    -0.037 A 
HETATM    3  C   UNL     1      44.112 -10.851   7.016  1.00  0.00     0.080 A 
HETATM    4  S   UNL     1      42.741 -10.328   7.905  1.00  0.00    -0.066 SA
HETATM    5  C   UNL     1      43.675  -9.758   9.190  1.00  0.00     0.078 A 
HETATM    6  C   UNL     1      45.021  -9.903   8.943  1.00  0.00     0.045 A 
ENDROOT
BRANCH   3   7
HETATM    7  C   UNL     1      43.950 -11.569   5.753  1.00  0.00     0.259 C 
HETATM    8  N   UNL     1      43.264 -12.759   5.834  1.00  0.00    -0.354 N 
HETATM    9  H   UNL     1      42.770 -12.964   6.694  1.00  0.00     0.162 HD
HETATM   10  O   UNL     1      44.390 -11.161   4.679  1.00  0.00    -0.267 OA
BRANCH   8  11
HETATM   11  C   UNL     1      43.038 -13.619   4.688  1.00  0.00     0.159 C 
BRANCH  11  12
HETATM   12  C   UNL     1      42.302 -14.925   5.050  1.00  0.00     0.169 C 
BRANCH  12  13
HETATM   13  O   UNL     1      42.366 -15.133   6.465  1.00  0.00    -0.389 OA
HETATM   14  H   UNL     1      41.723 -14.524   6.867  1.00  0.00     0.210 HD
ENDBRANCH  12  13
BRANCH  12  15
HETATM   15  C   UNL     1      42.824 -16.144   4.308  1.00  0.00    -0.028 A 
HETATM   16  C   UNL     1      43.690 -17.040   4.959  1.00  0.00     0.013 A 
HETATM   17  C   UNL     1      44.166 -18.174   4.297  1.00  0.00     0.043 A 
HETATM   18  C   UNL     1      43.776 -18.420   2.987  1.00  0.00     0.116 A 
HETATM   19  F   UNL     1      44.235 -19.508   2.354  1.00  0.00    -0.206 F 
HETATM   20  C   UNL     1      42.915 -17.556   2.325  1.00  0.00     0.043 A 
HETATM   21  C   UNL     1      42.439 -16.421   2.983  1.00  0.00     0.013 A 
ENDBRANCH  12  15
ENDBRANCH  11  12
ENDBRANCH   8  11
ENDBRANCH   3   7
BRANCH   5  22
HETATM   22  N   UNL     1      43.117  -9.256  10.352  1.00  0.00    -0.317 N 
HETATM   23  C   UNL     1      43.102  -9.858  11.594  1.00  0.00     0.258 C 
HETATM   24  O   UNL     1      43.484 -10.993  11.864  1.00  0.00    -0.267 OA
HETATM   25  H   UNL     1      42.676  -8.347  10.261  1.00  0.00     0.169 HD
BRANCH  23  26
HETATM   26  C   UNL     1      42.617  -9.012  12.731  1.00  0.00     0.054 A 
HETATM   27  C   UNL     1      41.402  -9.173  13.414  1.00  0.00     0.049 A 
HETATM   28 CL   UNL     1      40.279 -10.448  13.091  1.00  0.00    -0.083 Cl
HETATM   29  C   UNL     1      41.051  -8.286  14.442  1.00  0.00     0.025 A 
HETATM   30  C   UNL     1      41.905  -7.244  14.805  1.00  0.00     0.002 A 
HETATM   31  C   UNL     1      43.120  -7.085  14.148  1.00  0.00     0.001 A 
HETATM   32  C   UNL     1      43.473  -7.964  13.122  1.00  0.00     0.019 A 
ENDBRANCH  23  26
ENDBRANCH   5  22
TORSDOF 7
ENDMDL
MODEL 3
REMARK VINA RESULT:      -8.8      1.436      1.954
REMARK  7 active torsions:
REMARK  status: ('A' for Active; 'I' for Inactive)
REMARK    1  A    between atoms: C_3  and  C_4 
REMARK       I    between atoms: C_4  and  N_5 
REMARK    2  A    between atoms: N_5  and  C_6 
REMARK    3  A    between atoms: C_6  and  C_7 
REMARK    4  A    between atoms: C_7  and  O_8 
REMARK    5  A    between atoms: C_7  and  C_9 
REMARK    6  A    between atoms: C_18  and  N_19 
REMARK       I    between atoms: N_19  and  C_20 
REMARK    7  A    between atoms: C_20  and  C_21 
ROOT
HETATM    1  C   UNL     1      41.689  -9.198   6.705  1.00  0.00     0.050 C 
HETATM    2  C   UNL     1      42.511 -10.444   6.622  1.00  0.00    -0.037 A 
HETATM    3  C   UNL     1      43.524 -10.795   7.507  1.00  0.00     0.080 A 
HETATM    4  S   UNL     1      44.248 -12.286   7.060  1.00  0.00    -0.066 SA
HETATM    5  C   UNL     1      43.196 -12.514   5.760  1.00  0.00     0.078 A 
HETATM    6  C   UNL     1      42.332 -11.454   5.614  1.00  0.00     0.045 A 
ENDROOT
BRANCH   3   7
HETATM    7  C   UNL     1      43.960 -10.087   8.709  1.00  0.00     0.259 C 
HETATM    8  N   UNL     1      43.307 -10.435   9.869  1.00  0.00    -0.354 N 
HETATM    9  H   UNL     1      42.719 -11.260   9.852  1.00  0.00     0.162 HD
HETATM   10  O   UNL     1      44.846  -9.234   8.710  1.00  0.00    -0.267 OA
BRANCH   8  11
HETATM   11  C   UNL     1      43.585  -9.812  11.149  1.00  0.00     0.159 C 
BRANCH  11  12
HETATM   12  C   UNL     1      42.483 -10.067  12.197  1.00  0.00     0.169 C 
BRANCH  12  13
HETATM   13  O   UNL     1      41.218 -10.194  11.538  1.00  0.00    -0.389 OA
HETATM   14  H   UNL     1      40.546  -9.850  12.151  1.00  0.00     0.210 HD
ENDBRANCH  12  13
BRANCH  12  15
HETATM   15  C   UNL     1      42.414  -9.002  13.279  1.00  0.00    -0.028 A 
HETATM   16  C   UNL     1      41.474  -9.120  14.317  1.00  0.00     0.013 A 
HETATM   17  C   UNL     1      41.409  -8.159  15.328  1.00  0.00     0.043 A 
HETATM   18  C   UNL     1      42.284  -7.081  15.310  1.00  0.00     0.116 A 
HETATM   19  F   UNL     1      42.219  -6.161  16.281  1.00  0.00    -0.206 F 
HETATM   20  C   UNL     1      43.228  -6.946  14.301  1.00  0.00     0.043 A 
HETATM   21  C   UNL     1      43.294  -7.904  13.288  1.00  0.00     0.013 A 
ENDBRANCH  12  15
ENDBRANCH  11  12
ENDBRANCH   8  11
ENDBRANCH   3   7
BRANCH   5  22
HETATM   22  N   UNL     1      43.204 -13.662   4.988  1.00  0.00    -0.317 N 
HETATM   23  C   UNL     1      42.741 -14.911   5.352  1.00  0.00     0.258 C 
HETATM   24  O   UNL     1      42.341 -15.250   6.461  1.00  0.00    -0.267 OA
HETATM   25  H   UNL     1      43.595 -13.554   4.059  1.00  0.00     0.169 HD
BRANCH  23  26
HETATM   26  C   UNL     1      42.675 -15.933   4.259  1.00  0.00     0.054 A 
HETATM   27  C   UNL     1      41.714 -15.982   3.237  1.00  0.00     0.049 A 
HETATM   28 CL   UNL     1      40.469 -14.800   3.031  1.00  0.00    -0.083 Cl
HETATM   29  C   UNL     1      41.746 -17.018   2.292  1.00  0.00     0.025 A 
HETATM   30  C   UNL     1      42.733 -18.002   2.348  1.00  0.00     0.002 A 
HETATM   31  C   UNL     1      43.701 -17.954   3.345  1.00  0.00     0.001 A 
HETATM   32  C   UNL     1      43.673 -16.927   4.290  1.00  0.00     0.019 A 
ENDBRANCH  23  26
ENDBRANCH   5  22
TORSDOF 7
ENDMDL
MODEL 4
REMARK VINA RESULT:      -8.6      6.898      9.837
REMARK  7 active torsions:
REMARK  status: ('A' for Active; 'I' for Inactive)
REMARK    1  A    between atoms: C_3  and  C_4 
REMARK       I    between atoms: C_4  and  N_5 
REMARK    2  A    between atoms: N_5  and  C_6 
REMARK    3  A    between atoms: C_6  and  C_7 
REMARK    4  A    between atoms: C_7  and  O_8 
REMARK    5  A    between atoms: C_7  and  C_9 
REMARK    6  A    between atoms: C_18  and  N_19 
REMARK       I    between atoms: N_19  and  C_20 
REMARK    7  A    between atoms: C_20  and  C_21 
ROOT
HETATM    1  C   UNL     1      43.305 -16.236   1.980  1.00  0.00     0.050 C 
HETATM    2  C   UNL     1      42.078 -15.398   2.146  1.00  0.00    -0.037 A 
HETATM    3  C   UNL     1      41.602 -14.905   3.355  1.00  0.00     0.080 A 
HETATM    4  S   UNL     1      40.155 -14.010   3.133  1.00  0.00    -0.066 SA
HETATM    5  C   UNL     1      40.186 -14.197   1.456  1.00  0.00     0.078 A 
HETATM    6  C   UNL     1      41.245 -14.976   1.052  1.00  0.00     0.045 A 
ENDROOT
BRANCH   3   7
HETATM    7  C   UNL     1      42.200 -15.035   4.683  1.00  0.00     0.259 C 
HETATM    8  N   UNL     1      41.874 -16.184   5.367  1.00  0.00    -0.354 N 
HETATM    9  H   UNL     1      41.410 -16.924   4.855  1.00  0.00     0.162 HD
HETATM   10  O   UNL     1      42.945 -14.190   5.177  1.00  0.00    -0.267 OA
BRANCH   8  11
HETATM   11  C   UNL     1      42.349 -16.464   6.708  1.00  0.00     0.159 C 
BRANCH  11  12
HETATM   12  C   UNL     1      43.734 -17.142   6.729  1.00  0.00     0.169 C 
BRANCH  12  13
HETATM   13  O   UNL     1      44.743 -16.175   6.419  1.00  0.00    -0.389 OA
HETATM   14  H   UNL     1      45.554 -16.460   6.875  1.00  0.00     0.210 HD
ENDBRANCH  12  13
BRANCH  12  15
HETATM   15  C   UNL     1      43.840 -18.340   5.800  1.00  0.00    -0.028 A 
HETATM   16  C   UNL     1      43.546 -19.626   6.282  1.00  0.00     0.013 A 
HETATM   17  C   UNL     1      43.624 -20.736   5.437  1.00  0.00     0.043 A 
HETATM   18  C   UNL     1      43.989 -20.564   4.107  1.00  0.00     0.116 A 
HETATM   19  F   UNL     1      44.062 -21.630   3.300  1.00  0.00    -0.206 F 
HETATM   20  C   UNL     1      44.275 -19.302   3.605  1.00  0.00     0.043 A 
HETATM   21  C   UNL     1      44.201 -18.192   4.448  1.00  0.00     0.013 A 
ENDBRANCH  12  15
ENDBRANCH  11  12
ENDBRANCH   8  11
ENDBRANCH   3   7
BRANCH   5  22
HETATM   22  N   UNL     1      39.266 -13.588   0.621  1.00  0.00    -0.317 N 
HETATM   23  C   UNL     1      39.524 -12.634  -0.343  1.00  0.00     0.258 C 
HETATM   24  O   UNL     1      40.597 -12.076  -0.554  1.00  0.00    -0.267 OA
HETATM   25  H   UNL     1      38.306 -13.889   0.745  1.00  0.00     0.169 HD
BRANCH  23  26
HETATM   26  C   UNL     1      38.384 -12.289  -1.251  1.00  0.00     0.054 A 
HETATM   27  C   UNL     1      37.887 -13.094  -2.287  1.00  0.00     0.049 A 
HETATM   28 CL   UNL     1      38.480 -14.680  -2.641  1.00  0.00    -0.083 Cl
HETATM   29  C   UNL     1      36.832 -12.636  -3.089  1.00  0.00     0.025 A 
HETATM   30  C   UNL     1      36.258 -11.385  -2.863  1.00  0.00     0.002 A 
HETATM   31  C   UNL     1      36.729 -10.585  -1.828  1.00  0.00     0.001 A 
HETATM   32  C   UNL     1      37.781 -11.035  -1.028  1.00  0.00     0.019 A 
ENDBRANCH  23  26
ENDBRANCH   5  22
TORSDOF 7
ENDMDL
MODEL 5
REMARK VINA RESULT:      -8.6      6.952      9.960
REMARK  7 active torsions:
REMARK  status: ('A' for Active; 'I' for Inactive)
REMARK    1  A    between atoms: C_3  and  C_4 
REMARK       I    between atoms: C_4  and  N_5 
REMARK    2  A    between atoms: N_5  and  C_6 
REMARK    3  A    between atoms: C_6  and  C_7 
REMARK    4  A    between atoms: C_7  and  O_8 
REMARK    5  A    between atoms: C_7  and  C_9 
REMARK    6  A    between atoms: C_18  and  N_19 
REMARK       I    between atoms: N_19  and  C_20 
REMARK    7  A    between atoms: C_20  and  C_21 
ROOT
HETATM    1  C   UNL     1      39.852 -11.787   4.688  1.00  0.00     0.050 C 
HETATM    2  C   UNL     1      40.035 -12.938   3.751  1.00  0.00    -0.037 A 
HETATM    3  C   UNL     1      39.633 -12.959   2.421  1.00  0.00     0.080 A 
HETATM    4  S   UNL     1      39.997 -14.468   1.688  1.00  0.00    -0.066 SA
HETATM    5  C   UNL     1      40.745 -15.068   3.078  1.00  0.00     0.078 A 
HETATM    6  C   UNL     1      40.681 -14.169   4.117  1.00  0.00     0.045 A 
ENDROOT
BRANCH   3   7
HETATM    7  C   UNL     1      39.020 -11.884   1.644  1.00  0.00     0.259 C 
HETATM    8  N   UNL     1      39.879 -11.175   0.836  1.00  0.00    -0.354 N 
HETATM    9  H   UNL     1      40.810 -11.547   0.693  1.00  0.00     0.162 HD
HETATM   10  O   UNL     1      37.822 -11.610   1.693  1.00  0.00    -0.267 OA
BRANCH   8  11
HETATM   11  C   UNL     1      39.452 -10.054   0.022  1.00  0.00     0.159 C 
BRANCH  11  12
HETATM   12  C   UNL     1      39.676 -10.283  -1.487  1.00  0.00     0.169 C 
BRANCH  12  13
HETATM   13  O   UNL     1      38.881  -9.355  -2.233  1.00  0.00    -0.389 OA
HETATM   14  H   UNL     1      38.846  -9.687  -3.147  1.00  0.00     0.210 HD
ENDBRANCH  12  13
BRANCH  12  15
HETATM   15  C   UNL     1      39.392 -11.707  -1.935  1.00  0.00    -0.028 A 
HETATM   16  C   UNL     1      40.459 -12.566  -2.249  1.00  0.00     0.013 A 
HETATM   17  C   UNL     1      40.216 -13.883  -2.647  1.00  0.00     0.043 A 
HETATM   18  C   UNL     1      38.909 -14.348  -2.727  1.00  0.00     0.116 A 
HETATM   19  F   UNL     1      38.680 -15.611  -3.110  1.00  0.00    -0.206 F 
HETATM   20  C   UNL     1      37.839 -13.522  -2.414  1.00  0.00     0.043 A 
HETATM   21  C   UNL     1      38.078 -12.205  -2.018  1.00  0.00     0.013 A 
ENDBRANCH  12  15
ENDBRANCH  11  12
ENDBRANCH   8  11
ENDBRANCH   3   7
BRANCH   5  22
HETATM   22  N   UNL     1      41.374 -16.300   3.112  1.00  0.00    -0.317 N 
HETATM   23  C   UNL     1      42.696 -16.566   2.817  1.00  0.00     0.258 C 
HETATM   24  O   UNL     1      43.520 -15.776   2.365  1.00  0.00    -0.267 OA
HETATM   25  H   UNL     1      40.784 -17.077   3.387  1.00  0.00     0.169 HD
BRANCH  23  26
HETATM   26  C   UNL     1      43.177 -17.948   3.133  1.00  0.00     0.054 A 
HETATM   27  C   UNL     1      43.844 -18.338   4.304  1.00  0.00     0.049 A 
HETATM   28 CL   UNL     1      44.160 -17.274   5.630  1.00  0.00    -0.083 Cl
HETATM   29  C   UNL     1      44.273 -19.665   4.459  1.00  0.00     0.025 A 
HETATM   30  C   UNL     1      44.035 -20.611   3.463  1.00  0.00     0.002 A 
HETATM   31  C   UNL     1      43.359 -20.242   2.306  1.00  0.00     0.001 A 
HETATM   32  C   UNL     1      42.931 -18.922   2.144  1.00  0.00     0.019 A 
ENDBRANCH  23  26
ENDBRANCH   5  22
TORSDOF 7
ENDMDL
MODEL 6
REMARK VINA RESULT:      -8.4      4.395     10.495
REMARK  7 active torsions:
REMARK  status: ('A' for Active; 'I' for Inactive)
REMARK    1  A    between atoms: C_3  and  C_4 
REMARK       I    between atoms: C_4  and  N_5 
REMARK    2  A    between atoms: N_5  and  C_6 
REMARK    3  A    between atoms: C_6  and  C_7 
REMARK    4  A    between atoms: C_7  and  O_8 
REMARK    5  A    between atoms: C_7  and  C_9 
REMARK    6  A    between atoms: C_18  and  N_19 
REMARK       I    between atoms: N_19  and  C_20 
REMARK    7  A    between atoms: C_20  and  C_21 
ROOT
HETATM    1  C   UNL     1      41.259  -9.478   3.786  1.00  0.00     0.050 C 
HETATM    2  C   UNL     1      41.959  -9.856   5.052  1.00  0.00    -0.037 A 
HETATM    3  C   UNL     1      42.906 -10.868   5.171  1.00  0.00     0.080 A 
HETATM    4  S   UNL     1      43.457 -11.012   6.790  1.00  0.00    -0.066 SA
HETATM    5  C   UNL     1      42.522  -9.710   7.323  1.00  0.00     0.078 A 
HETATM    6  C   UNL     1      41.749  -9.192   6.309  1.00  0.00     0.045 A 
ENDROOT
BRANCH   3   7
HETATM    7  C   UNL     1      43.458 -11.718   4.119  1.00  0.00     0.259 C 
HETATM    8  N   UNL     1      42.751 -12.870   3.859  1.00  0.00    -0.354 N 
HETATM    9  H   UNL     1      41.828 -12.961   4.265  1.00  0.00     0.162 HD
HETATM   10  O   UNL     1      44.483 -11.447   3.495  1.00  0.00    -0.267 OA
BRANCH   8  11
HETATM   11  C   UNL     1      43.169 -13.847   2.872  1.00  0.00     0.159 C 
BRANCH  11  12
HETATM   12  C   UNL     1      42.257 -15.089   2.827  1.00  0.00     0.169 C 
BRANCH  12  13
HETATM   13  O   UNL     1      41.066 -14.833   3.579  1.00  0.00    -0.389 OA
HETATM   14  H   UNL     1      40.674 -14.020   3.217  1.00  0.00     0.210 HD
ENDBRANCH  12  13
BRANCH  12  15
HETATM   15  C   UNL     1      42.933 -16.359   3.315  1.00  0.00    -0.028 A 
HETATM   16  C   UNL     1      43.099 -17.444   2.437  1.00  0.00     0.013 A 
HETATM   17  C   UNL     1      43.733 -18.613   2.866  1.00  0.00     0.043 A 
HETATM   18  C   UNL     1      44.207 -18.700   4.169  1.00  0.00     0.116 A 
HETATM   19  F   UNL     1      44.814 -19.823   4.577  1.00  0.00    -0.206 F 
HETATM   20  C   UNL     1      44.063 -17.640   5.053  1.00  0.00     0.043 A 
HETATM   21  C   UNL     1      43.428 -16.472   4.628  1.00  0.00     0.013 A 
ENDBRANCH  12  15
ENDBRANCH  11  12
ENDBRANCH   8  11
ENDBRANCH   3   7
BRANCH   5  22
HETATM   22  N   UNL     1      42.589  -9.226   8.616  1.00  0.00    -0.317 N 
HETATM   23  C   UNL     1      43.296  -8.124   9.055  1.00  0.00     0.258 C 
HETATM   24  O   UNL     1      44.079  -7.445   8.397  1.00  0.00    -0.267 OA
HETATM   25  H   UNL     1      42.054  -9.748   9.301  1.00  0.00     0.169 HD
BRANCH  23  26
HETATM   26  C   UNL     1      43.034  -7.691  10.465  1.00  0.00     0.054 A 
HETATM   27  C   UNL     1      42.356  -6.527  10.854  1.00  0.00     0.049 A 
HETATM   28 CL   UNL     1      41.634  -5.417   9.741  1.00  0.00    -0.083 Cl
HETATM   29  C   UNL     1      42.208  -6.220  12.215  1.00  0.00     0.025 A 
HETATM   30  C   UNL     1      42.723  -7.069  13.195  1.00  0.00     0.002 A 
HETATM   31  C   UNL     1      43.382  -8.236  12.823  1.00  0.00     0.001 A 
HETATM   32  C   UNL     1      43.534  -8.544  11.469  1.00  0.00     0.019 A 
ENDBRANCH  23  26
ENDBRANCH   5  22
TORSDOF 7
ENDMDL
MODEL 7
REMARK VINA RESULT:      -8.4      2.753      3.611
REMARK  7 active torsions:
REMARK  status: ('A' for Active; 'I' for Inactive)
REMARK    1  A    between atoms: C_3  and  C_4 
REMARK       I    between atoms: C_4  and  N_5 
REMARK    2  A    between atoms: N_5  and  C_6 
REMARK    3  A    between atoms: C_6  and  C_7 
REMARK    4  A    between atoms: C_7  and  O_8 
REMARK    5  A    between atoms: C_7  and  C_9 
REMARK    6  A    between atoms: C_18  and  N_19 
REMARK       I    between atoms: N_19  and  C_20 
REMARK    7  A    between atoms: C_20  and  C_21 
ROOT
HETATM    1  C   UNL     1      39.064 -11.517   3.258  1.00  0.00     0.050 C 
HETATM    2  C   UNL     1      39.784 -12.581   4.023  1.00  0.00    -0.037 A 
HETATM    3  C   UNL     1      39.998 -12.574   5.397  1.00  0.00     0.080 A 
HETATM    4  S   UNL     1      40.885 -13.957   5.893  1.00  0.00    -0.066 SA
HETATM    5  C   UNL     1      40.926 -14.605   4.334  1.00  0.00     0.078 A 
HETATM    6  C   UNL     1      40.327 -13.768   3.421  1.00  0.00     0.045 A 
ENDROOT
BRANCH   3   7
HETATM    7  C   UNL     1      39.535 -11.595   6.379  1.00  0.00     0.259 C 
HETATM    8  N   UNL     1      40.484 -10.696   6.809  1.00  0.00    -0.354 N 
HETATM    9  H   UNL     1      41.358 -10.650   6.300  1.00  0.00     0.162 HD
HETATM   10  O   UNL     1      38.383 -11.558   6.808  1.00  0.00    -0.267 OA
BRANCH   8  11
HETATM   11  C   UNL     1      40.211  -9.677   7.804  1.00  0.00     0.159 C 
BRANCH  11  12
HETATM   12  C   UNL     1      41.352  -8.649   7.944  1.00  0.00     0.169 C 
BRANCH  12  13
HETATM   13  O   UNL     1      41.771  -8.221   6.644  1.00  0.00    -0.389 OA
HETATM   14  H   UNL     1      42.356  -7.455   6.775  1.00  0.00     0.210 HD
ENDBRANCH  12  13
BRANCH  12  15
HETATM   15  C   UNL     1      42.539  -9.161   8.744  1.00  0.00    -0.028 A 
HETATM   16  C   UNL     1      43.589  -9.826   8.088  1.00  0.00     0.013 A 
HETATM   17  C   UNL     1      44.694 -10.288   8.807  1.00  0.00     0.043 A 
HETATM   18  C   UNL     1      44.757 -10.083  10.179  1.00  0.00     0.116 A 
HETATM   19  F   UNL     1      45.819 -10.528  10.865  1.00  0.00    -0.206 F 
HETATM   20  C   UNL     1      43.737  -9.421  10.849  1.00  0.00     0.043 A 
HETATM   21  C   UNL     1      42.631  -8.961  10.134  1.00  0.00     0.013 A 
ENDBRANCH  12  15
ENDBRANCH  11  12
ENDBRANCH   8  11
ENDBRANCH   3   7
BRANCH   5  22
HETATM   22  N   UNL     1      41.465 -15.848   4.059  1.00  0.00    -0.317 N 
HETATM   23  C   UNL     1      42.671 -16.112   3.439  1.00  0.00     0.258 C 
HETATM   24  O   UNL     1      43.427 -15.292   2.925  1.00  0.00    -0.267 OA
HETATM   25  H   UNL     1      40.900 -16.637   4.350  1.00  0.00     0.169 HD
BRANCH  23  26
HETATM   26  C   UNL     1      43.118 -17.541   3.447  1.00  0.00     0.054 A 
HETATM   27  C   UNL     1      43.784 -18.188   4.499  1.00  0.00     0.049 A 
HETATM   28 CL   UNL     1      44.139 -17.438   6.017  1.00  0.00    -0.083 Cl
HETATM   29  C   UNL     1      44.179 -19.527   4.364  1.00  0.00     0.025 A 
HETATM   30  C   UNL     1      43.907 -20.233   3.192  1.00  0.00     0.002 A 
HETATM   31  C   UNL     1      43.231 -19.610   2.150  1.00  0.00     0.001 A 
HETATM   32  C   UNL     1      42.838 -18.276   2.278  1.00  0.00     0.019 A 
ENDBRANCH  23  26
ENDBRANCH   5  22
TORSDOF 7
ENDMDL
MODEL 8
REMARK VINA RESULT:      -8.3      2.467      2.927
REMARK  7 active torsions:
REMARK  status: ('A' for Active; 'I' for Inactive)
REMARK    1  A    between atoms: C_3  and  C_4 
REMARK       I    between atoms: C_4  and  N_5 
REMARK    2  A    between atoms: N_5  and  C_6 
REMARK    3  A    between atoms: C_6  and  C_7 
REMARK    4  A    between atoms: C_7  and  O_8 
REMARK    5  A    between atoms: C_7  and  C_9 
REMARK    6  A    between atoms: C_18  and  N_19 
REMARK       I    between atoms: N_19  and  C_20 
REMARK    7  A    between atoms: C_20  and  C_21 
ROOT
HETATM    1  C   UNL     1      39.757 -10.523   3.528  1.00  0.00     0.050 C 
HETATM    2  C   UNL     1      40.179 -11.741   4.285  1.00  0.00    -0.037 A 
HETATM    3  C   UNL     1      40.031 -11.923   5.656  1.00  0.00     0.080 A 
HETATM    4  S   UNL     1      40.662 -13.440   6.151  1.00  0.00    -0.066 SA
HETATM    5  C   UNL     1      41.060 -13.894   4.574  1.00  0.00     0.078 A 
HETATM    6  C   UNL     1      40.776 -12.896   3.671  1.00  0.00     0.045 A 
ENDROOT
BRANCH   3   7
HETATM    7  C   UNL     1      39.398 -11.028   6.623  1.00  0.00     0.259 C 
HETATM    8  N   UNL     1      40.244 -10.141   7.248  1.00  0.00    -0.354 N 
HETATM    9  H   UNL     1      41.181 -10.039   6.877  1.00  0.00     0.162 HD
HETATM   10  O   UNL     1      38.196 -11.048   6.880  1.00  0.00    -0.267 OA
BRANCH   8  11
HETATM   11  C   UNL     1      39.797  -9.203   8.259  1.00  0.00     0.159 C 
BRANCH  11  12
HETATM   12  C   UNL     1      39.736  -9.820   9.671  1.00  0.00     0.169 C 
BRANCH  12  13
HETATM   13  O   UNL     1      38.427  -9.630  10.219  1.00  0.00    -0.389 OA
HETATM   14  H   UNL     1      38.310  -8.672  10.339  1.00  0.00     0.210 HD
ENDBRANCH  12  13
BRANCH  12  15
HETATM   15  C   UNL     1      40.794  -9.279  10.619  1.00  0.00    -0.028 A 
HETATM   16  C   UNL     1      40.414  -8.455  11.692  1.00  0.00     0.013 A 
HETATM   17  C   UNL     1      41.372  -7.962  12.581  1.00  0.00     0.043 A 
HETATM   18  C   UNL     1      42.710  -8.295  12.406  1.00  0.00     0.116 A 
HETATM   19  F   UNL     1      43.625  -7.820  13.261  1.00  0.00    -0.206 F 
HETATM   20  C   UNL     1      43.109  -9.114  11.359  1.00  0.00     0.043 A 
HETATM   21  C   UNL     1      42.155  -9.606  10.468  1.00  0.00     0.013 A 
ENDBRANCH  12  15
ENDBRANCH  11  12
ENDBRANCH   8  11
ENDBRANCH   3   7
BRANCH   5  22
HETATM   22  N   UNL     1      41.565 -15.144   4.264  1.00  0.00    -0.317 N 
HETATM   23  C   UNL     1      42.677 -15.423   3.495  1.00  0.00     0.258 C 
HETATM   24  O   UNL     1      43.350 -14.617   2.859  1.00  0.00    -0.267 OA
HETATM   25  H   UNL     1      41.050 -15.926   4.653  1.00  0.00     0.169 HD
BRANCH  23  26
HETATM   26  C   UNL     1      43.130 -16.850   3.484  1.00  0.00     0.054 A 
HETATM   27  C   UNL     1      43.947 -17.460   4.448  1.00  0.00     0.049 A 
HETATM   28 CL   UNL     1      44.515 -16.660   5.872  1.00  0.00    -0.083 Cl
HETATM   29  C   UNL     1      44.328 -18.802   4.299  1.00  0.00     0.025 A 
HETATM   30  C   UNL     1      43.893 -19.547   3.204  1.00  0.00     0.002 A 
HETATM   31  C   UNL     1      43.068 -18.960   2.251  1.00  0.00     0.001 A 
HETATM   32  C   UNL     1      42.688 -17.624   2.392  1.00  0.00     0.019 A 
ENDBRANCH  23  26
ENDBRANCH   5  22
TORSDOF 7
ENDMDL
MODEL 9
REMARK VINA RESULT:      -8.2      2.314      3.113
REMARK  7 active torsions:
REMARK  status: ('A' for Active; 'I' for Inactive)
REMARK    1  A    between atoms: C_3  and  C_4 
REMARK       I    between atoms: C_4  and  N_5 
REMARK    2  A    between atoms: N_5  and  C_6 
REMARK    3  A    between atoms: C_6  and  C_7 
REMARK    4  A    between atoms: C_7  and  O_8 
REMARK    5  A    between atoms: C_7  and  C_9 
REMARK    6  A    between atoms: C_18  and  N_19 
REMARK       I    between atoms: N_19  and  C_20 
REMARK    7  A    between atoms: C_20  and  C_21 
ROOT
HETATM    1  C   UNL     1      44.360 -11.877   7.398  1.00  0.00     0.050 C 
HETATM    2  C   UNL     1      43.469 -12.799   6.629  1.00  0.00    -0.037 A 
HETATM    3  C   UNL     1      42.254 -12.443   6.054  1.00  0.00     0.080 A 
HETATM    4  S   UNL     1      41.518 -13.787   5.281  1.00  0.00    -0.066 SA
HETATM    5  C   UNL     1      42.813 -14.814   5.626  1.00  0.00     0.078 A 
HETATM    6  C   UNL     1      43.781 -14.178   6.370  1.00  0.00     0.045 A 
ENDROOT
BRANCH   3   7
HETATM    7  C   UNL     1      41.623 -11.125   6.017  1.00  0.00     0.259 C 
HETATM    8  N   UNL     1      40.762 -10.854   7.056  1.00  0.00    -0.354 N 
HETATM    9  H   UNL     1      40.764 -11.484   7.849  1.00  0.00     0.162 HD
HETATM   10  O   UNL     1      41.828 -10.300   5.129  1.00  0.00    -0.267 OA
BRANCH   8  11
HETATM   11  C   UNL     1      40.023  -9.611   7.164  1.00  0.00     0.159 C 
BRANCH  11  12
HETATM   12  C   UNL     1      40.767  -8.534   7.980  1.00  0.00     0.169 C 
BRANCH  12  13
HETATM   13  O   UNL     1      41.827  -7.985   7.190  1.00  0.00    -0.389 OA
HETATM   14  H   UNL     1      42.576  -8.603   7.256  1.00  0.00     0.210 HD
ENDBRANCH  12  13
BRANCH  12  15
HETATM   15  C   UNL     1      41.301  -9.039   9.310  1.00  0.00    -0.028 A 
HETATM   16  C   UNL     1      42.685  -9.206   9.489  1.00  0.00     0.013 A 
HETATM   17  C   UNL     1      43.193  -9.654  10.711  1.00  0.00     0.043 A 
HETATM   18  C   UNL     1      42.324  -9.929  11.758  1.00  0.00     0.116 A 
HETATM   19  F   UNL     1      42.815 -10.358  12.928  1.00  0.00    -0.206 F 
HETATM   20  C   UNL     1      40.953  -9.763  11.610  1.00  0.00     0.043 A 
HETATM   21  C   UNL     1      40.443  -9.318  10.390  1.00  0.00     0.013 A 
ENDBRANCH  12  15
ENDBRANCH  11  12
ENDBRANCH   8  11
ENDBRANCH   3   7
BRANCH   5  22
HETATM   22  N   UNL     1      42.876 -16.115   5.161  1.00  0.00    -0.317 N 
HETATM   23  C   UNL     1      43.220 -16.526   3.888  1.00  0.00     0.258 C 
HETATM   24  O   UNL     1      43.423 -15.807   2.915  1.00  0.00    -0.267 OA
HETATM   25  H   UNL     1      42.643 -16.828   5.842  1.00  0.00     0.169 HD
BRANCH  23  26
HETATM   26  C   UNL     1      43.413 -17.999   3.702  1.00  0.00     0.054 A 
HETATM   27  C   UNL     1      43.682 -18.928   4.719  1.00  0.00     0.049 A 
HETATM   28 CL   UNL     1      43.761 -18.519   6.397  1.00  0.00    -0.083 Cl
HETATM   29  C   UNL     1      43.876 -20.280   4.403  1.00  0.00     0.025 A 
HETATM   30  C   UNL     1      43.796 -20.721   3.082  1.00  0.00     0.002 A 
HETATM   31  C   UNL     1      43.513 -19.814   2.066  1.00  0.00     0.001 A 
HETATM   32  C   UNL     1      43.321 -18.466   2.375  1.00  0.00     0.019 A 
ENDBRANCH  23  26
ENDBRANCH   5  22
TORSDOF 7
ENDMDL
MODEL 10
REMARK VINA RESULT:      -8.2      4.433     10.335
REMARK  7 active torsions:
REMARK  status: ('A' for Active; 'I' for Inactive)
REMARK    1  A    between atoms: C_3  and  C_4 
REMARK       I    between atoms: C_4  and  N_5 
REMARK    2  A    between atoms: N_5  and  C_6 
REMARK    3  A    between atoms: C_6  and  C_7 
REMARK    4  A    between atoms: C_7  and  O_8 
REMARK    5  A    between atoms: C_7  and  C_9 
REMARK    6  A    between atoms: C_18  and  N_19 
REMARK       I    between atoms: N_19  and  C_20 
REMARK    7  A    between atoms: C_20  and  C_21 
ROOT
HETATM    1  C   UNL     1      43.664 -13.921   5.444  1.00  0.00     0.050 C 
HETATM    2  C   UNL     1      43.292 -12.539   5.878  1.00  0.00    -0.037 A 
HETATM    3  C   UNL     1      42.732 -11.567   5.057  1.00  0.00     0.080 A 
HETATM    4  S   UNL     1      42.475 -10.104   5.918  1.00  0.00    -0.066 SA
HETATM    5  C   UNL     1      43.020 -10.757   7.376  1.00  0.00     0.078 A 
HETATM    6  C   UNL     1      43.451 -12.055   7.222  1.00  0.00     0.045 A 
ENDROOT
BRANCH   3   7
HETATM    7  C   UNL     1      42.336 -11.684   3.655  1.00  0.00     0.259 C 
HETATM    8  N   UNL     1      41.081 -12.205   3.438  1.00  0.00    -0.354 N 
HETATM    9  H   UNL     1      40.462 -12.296   4.234  1.00  0.00     0.162 HD
HETATM   10  O   UNL     1      43.057 -11.350   2.717  1.00  0.00    -0.267 OA
BRANCH   8  11
HETATM   11  C   UNL     1      40.537 -12.425   2.112  1.00  0.00     0.159 C 
BRANCH  11  12
HETATM   12  C   UNL     1      40.084 -13.880   1.878  1.00  0.00     0.169 C 
BRANCH  12  13
HETATM   13  O   UNL     1      38.900 -14.139   2.640  1.00  0.00    -0.389 OA
HETATM   14  H   UNL     1      38.327 -13.359   2.542  1.00  0.00     0.210 HD
ENDBRANCH  12  13
BRANCH  12  15
HETATM   15  C   UNL     1      41.156 -14.910   2.194  1.00  0.00    -0.028 A 
HETATM   16  C   UNL     1      40.978 -15.796   3.270  1.00  0.00     0.013 A 
HETATM   17  C   UNL     1      41.946 -16.759   3.564  1.00  0.00     0.043 A 
HETATM   18  C   UNL     1      43.091 -16.845   2.782  1.00  0.00     0.116 A 
HETATM   19  F   UNL     1      44.018 -17.769   3.066  1.00  0.00    -0.206 F 
HETATM   20  C   UNL     1      43.286 -15.987   1.708  1.00  0.00     0.043 A 
HETATM   21  C   UNL     1      42.322 -15.022   1.414  1.00  0.00     0.013 A 
ENDBRANCH  12  15
ENDBRANCH  11  12
ENDBRANCH   8  11
ENDBRANCH   3   7
BRANCH   5  22
HETATM   22  N   UNL     1      42.979 -10.056   8.568  1.00  0.00    -0.317 N 
HETATM   23  C   UNL     1      43.680  -8.908   8.880  1.00  0.00     0.258 C 
HETATM   24  O   UNL     1      44.545  -8.368   8.197  1.00  0.00    -0.267 OA
HETATM   25  H   UNL     1      42.364 -10.442   9.275  1.00  0.00     0.169 HD
BRANCH  23  26
HETATM   26  C   UNL     1      43.300  -8.232  10.161  1.00  0.00     0.054 A 
HETATM   27  C   UNL     1      42.634  -7.002  10.275  1.00  0.00     0.049 A 
HETATM   28 CL   UNL     1      42.068  -6.086   8.922  1.00  0.00    -0.083 Cl
HETATM   29  C   UNL     1      42.367  -6.462  11.542  1.00  0.00     0.025 A 
HETATM   30  C   UNL     1      42.750  -7.140  12.699  1.00  0.00     0.002 A 
HETATM   31  C   UNL     1      43.394  -8.368  12.600  1.00  0.00     0.001 A 
HETATM   32  C   UNL     1      43.664  -8.910  11.342  1.00  0.00     0.019 A 
ENDBRANCH  23  26
ENDBRANCH   5  22
TORSDOF 7
ENDMDL
