MODEL 1
REMARK VINA RESULT:      -8.6      0.000      0.000
REMARK  6 active torsions:
REMARK  status: ('A' for Active; 'I' for Inactive)
REMARK    1  A    between atoms: C_7  and  N_8 
REMARK    2  A    between atoms: N_8  and  C_9 
REMARK    3  A    between atoms: C_9  and  C_10 
REMARK    4  A    between atoms: C_12  and  N_13 
REMARK       I    between atoms: N_13  and  C_14 
REMARK    5  A    between atoms: C_14  and  C_15 
REMARK    6  A    between atoms: C_15  and  N_16 
ROOT
HETATM    1  C   UNL     1      44.286 -12.035   6.745  1.00  0.00    -0.038 A 
HETATM    2  C   UNL     1      43.741 -11.523   7.932  1.00  0.00     0.038 A 
HETATM    3  C   UNL     1      44.427 -10.583   8.698  1.00  0.00     0.035 A 
HETATM    4  C   UNL     1      45.734 -10.246   8.343  1.00  0.00     0.029 A 
HETATM    5  C   UNL     1      46.312 -10.788   7.191  1.00  0.00     0.003 A 
HETATM    6  C   UNL     1      45.583 -11.660   6.382  1.00  0.00     0.009 A 
ENDROOT
BRANCH   1   7
HETATM    7  C   UNL     1      43.450 -12.919   5.866  1.00  0.00     0.176 C 
BRANCH   7   8
HETATM    8  N   UNL     1      43.501 -14.288   6.366  1.00  0.00    -0.222 N 
HETATM    9  H   UNL     1      43.419 -14.455   7.357  1.00  0.00     0.178 HD
BRANCH   8  10
HETATM   10  C   UNL     1      43.525 -15.365   5.566  1.00  0.00     0.679 A 
HETATM   11  N   UNL     1      42.897 -15.430   4.400  1.00  0.00    -0.190 N 
HETATM   12  C   UNL     1      43.125 -16.652   3.798  1.00  0.00     0.076 A 
HETATM   13  H   UNL     1      42.330 -14.697   3.997  1.00  0.00     0.184 HD
HETATM   14  C   UNL     1      43.933 -17.361   4.683  1.00  0.00     0.076 A 
HETATM   15  C   UNL     1      42.698 -17.182   2.588  1.00  0.00     0.032 A 
HETATM   16  C   UNL     1      44.368 -18.656   4.436  1.00  0.00     0.032 A 
HETATM   17  N   UNL     1      44.149 -16.515   5.747  1.00  0.00    -0.190 N 
HETATM   18  C   UNL     1      43.948 -19.209   3.216  1.00  0.00     0.002 A 
HETATM   19  C   UNL     1      43.135 -18.489   2.313  1.00  0.00     0.002 A 
HETATM   20  H   UNL     1      44.665 -16.790   6.572  1.00  0.00     0.184 HD
ENDBRANCH   8  10
ENDBRANCH   7   8
ENDBRANCH   1   7
BRANCH   3  21
HETATM   21  N   UNL     1      43.850  -9.934   9.804  1.00  0.00    -0.326 N 
HETATM   22  C   UNL     1      43.795 -10.391  11.109  1.00  0.00     0.242 C 
HETATM   23  O   UNL     1      44.242 -11.483  11.482  1.00  0.00    -0.271 OA
HETATM   24  H   UNL     1      43.281  -9.103   9.603  1.00  0.00     0.169 HD
BRANCH  22  25
HETATM   25  C   UNL     1      43.030  -9.528  12.101  1.00  0.00     0.253 C 
BRANCH  25  26
HETATM   26  N   UNL     1      41.587  -9.694  12.127  1.00  0.00    -0.273 N 
HETATM   27  N   UNL     1      40.874  -9.642  10.977  1.00  0.00    -0.185 NA
HETATM   28  C   UNL     1      39.629  -9.941  11.363  1.00  0.00     0.140 A 
HETATM   29  C   UNL     1      39.540 -10.182  12.745  1.00  0.00     0.040 A 
HETATM   30  C   UNL     1      40.824 -10.017  13.213  1.00  0.00     0.114 A 
ENDBRANCH  25  26
ENDBRANCH  22  25
ENDBRANCH   3  21
TORSDOF 6
ENDMDL
MODEL 2
REMARK VINA RESULT:      -8.4      2.014      2.862
REMARK  6 active torsions:
REMARK  status: ('A' for Active; 'I' for Inactive)
REMARK    1  A    between atoms: C_7  and  N_8 
REMARK    2  A    between atoms: N_8  and  C_9 
REMARK    3  A    between atoms: C_9  and  C_10 
REMARK    4  A    between atoms: C_12  and  N_13 
REMARK       I    between atoms: N_13  and  C_14 
REMARK    5  A    between atoms: C_14  and  C_15 
REMARK    6  A    between atoms: C_15  and  N_16 
ROOT
HETATM    1  C   UNL     1      43.111 -13.921   6.132  1.00  0.00    -0.038 A 
HETATM    2  C   UNL     1      43.571 -13.070   7.147  1.00  0.00     0.038 A 
HETATM    3  C   UNL     1      43.828 -11.723   6.904  1.00  0.00     0.035 A 
HETATM    4  C   UNL     1      43.749 -11.247   5.594  1.00  0.00     0.029 A 
HETATM    5  C   UNL     1      43.343 -12.095   4.560  1.00  0.00     0.003 A 
HETATM    6  C   UNL     1      43.001 -13.421   4.831  1.00  0.00     0.009 A 
ENDROOT
BRANCH   1   7
HETATM    7  C   UNL     1      42.692 -15.321   6.471  1.00  0.00     0.176 C 
BRANCH   7   8
HETATM    8  N   UNL     1      43.823 -16.224   6.291  1.00  0.00    -0.222 N 
HETATM    9  H   UNL     1      44.633 -16.125   6.884  1.00  0.00     0.178 HD
BRANCH   8  10
HETATM   10  C   UNL     1      43.803 -17.275   5.457  1.00  0.00     0.679 A 
HETATM   11  N   UNL     1      43.541 -17.183   4.161  1.00  0.00    -0.190 N 
HETATM   12  C   UNL     1      43.616 -18.426   3.565  1.00  0.00     0.076 A 
HETATM   13  H   UNL     1      43.318 -16.330   3.666  1.00  0.00     0.184 HD
HETATM   14  C   UNL     1      43.929 -19.316   4.590  1.00  0.00     0.076 A 
HETATM   15  C   UNL     1      43.436 -18.835   2.250  1.00  0.00     0.032 A 
HETATM   16  C   UNL     1      44.075 -20.681   4.386  1.00  0.00     0.032 A 
HETATM   17  N   UNL     1      44.037 -18.547   5.727  1.00  0.00    -0.190 N 
HETATM   18  C   UNL     1      43.898 -21.114   3.063  1.00  0.00     0.002 A 
HETATM   19  C   UNL     1      43.588 -20.214   2.020  1.00  0.00     0.002 A 
HETATM   20  H   UNL     1      44.207 -18.942   6.642  1.00  0.00     0.184 HD
ENDBRANCH   8  10
ENDBRANCH   7   8
ENDBRANCH   1   7
BRANCH   3  21
HETATM   21  N   UNL     1      44.138 -10.808   7.925  1.00  0.00    -0.326 N 
HETATM   22  C   UNL     1      45.393 -10.355   8.291  1.00  0.00     0.242 C 
HETATM   23  O   UNL     1      46.447 -10.727   7.762  1.00  0.00    -0.271 OA
HETATM   24  H   UNL     1      43.375 -10.560   8.567  1.00  0.00     0.169 HD
BRANCH  22  25
HETATM   25  C   UNL     1      45.458  -9.429   9.497  1.00  0.00     0.253 C 
BRANCH  25  26
HETATM   26  N   UNL     1      44.484  -9.667  10.549  1.00  0.00    -0.273 N 
HETATM   27  N   UNL     1      44.222 -10.929  10.964  1.00  0.00    -0.185 NA
HETATM   28  C   UNL     1      43.384 -10.756  11.992  1.00  0.00     0.140 A 
HETATM   29  C   UNL     1      43.108  -9.400  12.235  1.00  0.00     0.040 A 
HETATM   30  C   UNL     1      43.835  -8.717  11.287  1.00  0.00     0.114 A 
ENDBRANCH  25  26
ENDBRANCH  22  25
ENDBRANCH   3  21
TORSDOF 6
ENDMDL
MODEL 3
REMARK VINA RESULT:      -8.2      4.428      9.878
REMARK  6 active torsions:
REMARK  status: ('A' for Active; 'I' for Inactive)
REMARK    1  A    between atoms: C_7  and  N_8 
REMARK    2  A    between atoms: N_8  and  C_9 
REMARK    3  A    between atoms: C_9  and  C_10 
REMARK    4  A    between atoms: C_12  and  N_13 
REMARK       I    between atoms: N_13  and  C_14 
REMARK    5  A    between atoms: C_14  and  C_15 
REMARK    6  A    between atoms: C_15  and  N_16 
ROOT
HETATM    1  C   UNL     1      43.181 -15.378   4.425  1.00  0.00    -0.038 A 
HETATM    2  C   UNL     1      42.830 -14.476   3.411  1.00  0.00     0.038 A 
HETATM    3  C   UNL     1      42.645 -14.898   2.095  1.00  0.00     0.035 A 
HETATM    4  C   UNL     1      42.943 -16.220   1.763  1.00  0.00     0.029 A 
HETATM    5  C   UNL     1      43.346 -17.121   2.752  1.00  0.00     0.003 A 
HETATM    6  C   UNL     1      43.441 -16.709   4.083  1.00  0.00     0.009 A 
ENDROOT
BRANCH   1   7
HETATM    7  C   UNL     1      43.211 -14.916   5.851  1.00  0.00     0.176 C 
BRANCH   7   8
HETATM    8  N   UNL     1      42.702 -13.552   5.930  1.00  0.00    -0.222 N 
HETATM    9  H   UNL     1      41.749 -13.365   5.658  1.00  0.00     0.178 HD
BRANCH   8  10
HETATM   10  C   UNL     1      43.392 -12.536   6.472  1.00  0.00     0.679 A 
HETATM   11  N   UNL     1      42.826 -11.471   7.022  1.00  0.00    -0.190 N 
HETATM   12  C   UNL     1      43.790 -10.613   7.511  1.00  0.00     0.076 A 
HETATM   13  H   UNL     1      41.832 -11.300   7.081  1.00  0.00     0.184 HD
HETATM   14  C   UNL     1      45.012 -11.211   7.213  1.00  0.00     0.076 A 
HETATM   15  C   UNL     1      43.696  -9.393   8.168  1.00  0.00     0.032 A 
HETATM   16  C   UNL     1      46.233 -10.635   7.535  1.00  0.00     0.032 A 
HETATM   17  N   UNL     1      44.701 -12.393   6.580  1.00  0.00    -0.190 N 
HETATM   18  C   UNL     1      46.160  -9.402   8.202  1.00  0.00     0.002 A 
HETATM   19  C   UNL     1      44.922  -8.797   8.513  1.00  0.00     0.002 A 
HETATM   20  H   UNL     1      45.403 -13.014   6.200  1.00  0.00     0.184 HD
ENDBRANCH   8  10
ENDBRANCH   7   8
ENDBRANCH   1   7
BRANCH   3  21
HETATM   21  N   UNL     1      42.142 -14.056   1.087  1.00  0.00    -0.326 N 
HETATM   22  C   UNL     1      40.819 -13.886   0.720  1.00  0.00     0.242 C 
HETATM   23  O   UNL     1      39.872 -14.492   1.235  1.00  0.00    -0.271 OA
HETATM   24  H   UNL     1      42.834 -13.632   0.457  1.00  0.00     0.169 HD
BRANCH  22  25
HETATM   25  C   UNL     1      40.555 -12.975  -0.469  1.00  0.00     0.253 C 
BRANCH  25  26
HETATM   26  N   UNL     1      39.560 -13.430  -1.426  1.00  0.00    -0.273 N 
HETATM   27  N   UNL     1      38.315 -12.896  -1.422  1.00  0.00    -0.185 NA
HETATM   28  C   UNL     1      37.726 -13.459  -2.482  1.00  0.00     0.140 A 
HETATM   29  C   UNL     1      38.580 -14.347  -3.160  1.00  0.00     0.040 A 
HETATM   30  C   UNL     1      39.761 -14.306  -2.455  1.00  0.00     0.114 A 
ENDBRANCH  25  26
ENDBRANCH  22  25
ENDBRANCH   3  21
TORSDOF 6
ENDMDL
MODEL 4
REMARK VINA RESULT:      -8.1      4.079      9.482
REMARK  6 active torsions:
REMARK  status: ('A' for Active; 'I' for Inactive)
REMARK    1  A    between atoms: C_7  and  N_8 
REMARK    2  A    between atoms: N_8  and  C_9 
REMARK    3  A    between atoms: C_9  and  C_10 
REMARK    4  A    between atoms: C_12  and  N_13 
REMARK       I    between atoms: N_13  and  C_14 
REMARK    5  A    between atoms: C_14  and  C_15 
REMARK    6  A    between atoms: C_15  and  N_16 
ROOT
HETATM    1  C   UNL     1      43.257 -15.656   4.580  1.00  0.00    -0.038 A 
HETATM    2  C   UNL     1      42.786 -14.955   3.460  1.00  0.00     0.038 A 
HETATM    3  C   UNL     1      42.589 -15.592   2.236  1.00  0.00     0.035 A 
HETATM    4  C   UNL     1      42.992 -16.920   2.094  1.00  0.00     0.029 A 
HETATM    5  C   UNL     1      43.514 -17.619   3.187  1.00  0.00     0.003 A 
HETATM    6  C   UNL     1      43.623 -16.997   4.432  1.00  0.00     0.009 A 
ENDROOT
BRANCH   1   7
HETATM    7  C   UNL     1      43.301 -14.974   5.916  1.00  0.00     0.176 C 
BRANCH   7   8
HETATM    8  N   UNL     1      42.833 -13.601   5.776  1.00  0.00    -0.222 N 
HETATM    9  H   UNL     1      41.981 -13.419   5.266  1.00  0.00     0.178 HD
BRANCH   8  10
HETATM   10  C   UNL     1      43.403 -12.559   6.401  1.00  0.00     0.679 A 
HETATM   11  N   UNL     1      44.714 -12.403   6.524  1.00  0.00    -0.190 N 
HETATM   12  C   UNL     1      44.997 -11.228   7.193  1.00  0.00     0.076 A 
HETATM   13  H   UNL     1      45.416 -13.044   6.183  1.00  0.00     0.184 HD
HETATM   14  C   UNL     1      43.762 -10.661   7.496  1.00  0.00     0.076 A 
HETATM   15  C   UNL     1      46.200 -10.633   7.551  1.00  0.00     0.032 A 
HETATM   16  C   UNL     1      43.630  -9.466   8.189  1.00  0.00     0.032 A 
HETATM   17  N   UNL     1      42.822 -11.523   6.978  1.00  0.00    -0.190 N 
HETATM   18  C   UNL     1      44.835  -8.848   8.559  1.00  0.00     0.002 A 
HETATM   19  C   UNL     1      46.089  -9.416   8.246  1.00  0.00     0.002 A 
HETATM   20  H   UNL     1      41.827 -11.387   7.099  1.00  0.00     0.184 HD
ENDBRANCH   8  10
ENDBRANCH   7   8
ENDBRANCH   1   7
BRANCH   3  21
HETATM   21  N   UNL     1      41.974 -14.963   1.139  1.00  0.00    -0.326 N 
HETATM   22  C   UNL     1      40.634 -15.003   0.794  1.00  0.00     0.242 C 
HETATM   23  O   UNL     1      39.776 -15.640   1.415  1.00  0.00    -0.271 OA
HETATM   24  H   UNL     1      42.599 -14.552   0.436  1.00  0.00     0.169 HD
BRANCH  22  25
HETATM   25  C   UNL     1      40.244 -14.304  -0.500  1.00  0.00     0.253 C 
BRANCH  25  26
HETATM   26  N   UNL     1      40.576 -12.892  -0.598  1.00  0.00    -0.273 N 
HETATM   27  N   UNL     1      40.754 -12.153   0.522  1.00  0.00    -0.185 NA
HETATM   28  C   UNL     1      41.148 -10.963   0.057  1.00  0.00     0.140 A 
HETATM   29  C   UNL     1      41.221 -10.935  -1.347  1.00  0.00     0.040 A 
HETATM   30  C   UNL     1      40.847 -12.198  -1.743  1.00  0.00     0.114 A 
ENDBRANCH  25  26
ENDBRANCH  22  25
ENDBRANCH   3  21
TORSDOF 6
ENDMDL
MODEL 5
REMARK VINA RESULT:      -7.9      5.896      8.875
REMARK  6 active torsions:
REMARK  status: ('A' for Active; 'I' for Inactive)
REMARK    1  A    between atoms: C_7  and  N_8 
REMARK    2  A    between atoms: N_8  and  C_9 
REMARK    3  A    between atoms: C_9  and  C_10 
REMARK    4  A    between atoms: C_12  and  N_13 
REMARK       I    between atoms: N_13  and  C_14 
REMARK    5  A    between atoms: C_14  and  C_15 
REMARK    6  A    between atoms: C_15  and  N_16 
ROOT
HETATM    1  C   UNL     1      41.633 -13.442   3.949  1.00  0.00    -0.038 A 
HETATM    2  C   UNL     1      40.820 -13.542   2.810  1.00  0.00     0.038 A 
HETATM    3  C   UNL     1      39.648 -12.798   2.688  1.00  0.00     0.035 A 
HETATM    4  C   UNL     1      39.212 -12.042   3.776  1.00  0.00     0.029 A 
HETATM    5  C   UNL     1      39.984 -11.974   4.940  1.00  0.00     0.003 A 
HETATM    6  C   UNL     1      41.201 -12.651   5.018  1.00  0.00     0.009 A 
ENDROOT
BRANCH   1   7
HETATM    7  C   UNL     1      42.965 -14.132   3.972  1.00  0.00     0.176 C 
BRANCH   7   8
HETATM    8  N   UNL     1      42.990 -15.172   2.950  1.00  0.00    -0.222 N 
HETATM    9  H   UNL     1      42.928 -14.911   1.978  1.00  0.00     0.178 HD
BRANCH   8  10
HETATM   10  C   UNL     1      43.223 -16.466   3.220  1.00  0.00     0.679 A 
HETATM   11  N   UNL     1      43.184 -17.427   2.308  1.00  0.00    -0.190 N 
HETATM   12  C   UNL     1      43.488 -18.646   2.881  1.00  0.00     0.076 A 
HETATM   13  H   UNL     1      42.964 -17.300   1.331  1.00  0.00     0.184 HD
HETATM   14  C   UNL     1      43.708 -18.383   4.231  1.00  0.00     0.076 A 
HETATM   15  C   UNL     1      43.583 -19.924   2.345  1.00  0.00     0.032 A 
HETATM   16  C   UNL     1      44.027 -19.372   5.151  1.00  0.00     0.032 A 
HETATM   17  N   UNL     1      43.536 -17.025   4.375  1.00  0.00    -0.190 N 
HETATM   18  C   UNL     1      44.129 -20.671   4.628  1.00  0.00     0.002 A 
HETATM   19  C   UNL     1      43.914 -20.940   3.258  1.00  0.00     0.002 A 
HETATM   20  H   UNL     1      43.584 -16.558   5.271  1.00  0.00     0.184 HD
ENDBRANCH   8  10
ENDBRANCH   7   8
ENDBRANCH   1   7
BRANCH   3  21
HETATM   21  N   UNL     1      38.893 -12.753   1.502  1.00  0.00    -0.326 N 
HETATM   22  C   UNL     1      39.021 -11.849   0.462  1.00  0.00     0.242 C 
HETATM   23  O   UNL     1      39.830 -10.914   0.450  1.00  0.00    -0.271 OA
HETATM   24  H   UNL     1      38.064 -13.357   1.463  1.00  0.00     0.169 HD
BRANCH  22  25
HETATM   25  C   UNL     1      38.013 -11.969  -0.671  1.00  0.00     0.253 C 
BRANCH  25  26
HETATM   26  N   UNL     1      38.241 -13.035  -1.632  1.00  0.00    -0.273 N 
HETATM   27  N   UNL     1      39.191 -13.972  -1.398  1.00  0.00    -0.185 NA
HETATM   28  C   UNL     1      39.043 -14.832  -2.410  1.00  0.00     0.140 A 
HETATM   29  C   UNL     1      38.011 -14.454  -3.287  1.00  0.00     0.040 A 
HETATM   30  C   UNL     1      37.508 -13.289  -2.756  1.00  0.00     0.114 A 
ENDBRANCH  25  26
ENDBRANCH  22  25
ENDBRANCH   3  21
TORSDOF 6
ENDMDL
MODEL 6
REMARK VINA RESULT:      -7.7      2.526      9.615
REMARK  6 active torsions:
REMARK  status: ('A' for Active; 'I' for Inactive)
REMARK    1  A    between atoms: C_7  and  N_8 
REMARK    2  A    between atoms: N_8  and  C_9 
REMARK    3  A    between atoms: C_9  and  C_10 
REMARK    4  A    between atoms: C_12  and  N_13 
REMARK       I    between atoms: N_13  and  C_14 
REMARK    5  A    between atoms: C_14  and  C_15 
REMARK    6  A    between atoms: C_15  and  N_16 
ROOT
HETATM    1  C   UNL     1      43.804 -10.217   7.961  1.00  0.00    -0.038 A 
HETATM    2  C   UNL     1      43.370 -10.929   6.833  1.00  0.00     0.038 A 
HETATM    3  C   UNL     1      44.269 -11.616   6.020  1.00  0.00     0.035 A 
HETATM    4  C   UNL     1      45.637 -11.482   6.262  1.00  0.00     0.029 A 
HETATM    5  C   UNL     1      46.089 -10.732   7.352  1.00  0.00     0.003 A 
HETATM    6  C   UNL     1      45.176 -10.122   8.213  1.00  0.00     0.009 A 
ENDROOT
BRANCH   1   7
HETATM    7  C   UNL     1      42.792  -9.629   8.900  1.00  0.00     0.176 C 
BRANCH   7   8
HETATM    8  N   UNL     1      42.859 -10.321  10.182  1.00  0.00    -0.222 N 
HETATM    9  H   UNL     1      43.169 -11.280  10.209  1.00  0.00     0.178 HD
BRANCH   8  10
HETATM   10  C   UNL     1      42.654  -9.712  11.360  1.00  0.00     0.679 A 
HETATM   11  N   UNL     1      43.381  -8.695  11.801  1.00  0.00    -0.190 N 
HETATM   12  C   UNL     1      42.917  -8.269  13.030  1.00  0.00     0.076 A 
HETATM   13  H   UNL     1      44.164  -8.281  11.316  1.00  0.00     0.184 HD
HETATM   14  C   UNL     1      41.849  -9.108  13.340  1.00  0.00     0.076 A 
HETATM   15  C   UNL     1      43.335  -7.249  13.875  1.00  0.00     0.032 A 
HETATM   16  C   UNL     1      41.125  -9.003  14.519  1.00  0.00     0.032 A 
HETATM   17  N   UNL     1      41.734  -9.969  12.272  1.00  0.00    -0.190 N 
HETATM   18  C   UNL     1      41.532  -7.977  15.386  1.00  0.00     0.002 A 
HETATM   19  C   UNL     1      42.609  -7.120  15.071  1.00  0.00     0.002 A 
HETATM   20  H   UNL     1      41.066 -10.729  12.250  1.00  0.00     0.184 HD
ENDBRANCH   8  10
ENDBRANCH   7   8
ENDBRANCH   1   7
BRANCH   3  21
HETATM   21  N   UNL     1      43.859 -12.465   4.976  1.00  0.00    -0.326 N 
HETATM   22  C   UNL     1      43.538 -12.103   3.680  1.00  0.00     0.242 C 
HETATM   23  O   UNL     1      43.549 -10.940   3.260  1.00  0.00    -0.271 OA
HETATM   24  H   UNL     1      43.629 -13.432   5.235  1.00  0.00     0.169 HD
BRANCH  22  25
HETATM   25  C   UNL     1      43.035 -13.213   2.769  1.00  0.00     0.253 C 
BRANCH  25  26
HETATM   26  N   UNL     1      42.484 -14.389   3.423  1.00  0.00    -0.273 N 
HETATM   27  N   UNL     1      41.464 -14.263   4.304  1.00  0.00    -0.185 NA
HETATM   28  C   UNL     1      41.152 -15.527   4.608  1.00  0.00     0.140 A 
HETATM   29  C   UNL     1      41.963 -16.456   3.933  1.00  0.00     0.040 A 
HETATM   30  C   UNL     1      42.814 -15.690   3.171  1.00  0.00     0.114 A 
ENDBRANCH  25  26
ENDBRANCH  22  25
ENDBRANCH   3  21
TORSDOF 6
ENDMDL
MODEL 7
REMARK VINA RESULT:      -7.7      5.077      8.318
REMARK  6 active torsions:
REMARK  status: ('A' for Active; 'I' for Inactive)
REMARK    1  A    between atoms: C_7  and  N_8 
REMARK    2  A    between atoms: N_8  and  C_9 
REMARK    3  A    between atoms: C_9  and  C_10 
REMARK    4  A    between atoms: C_12  and  N_13 
REMARK       I    between atoms: N_13  and  C_14 
REMARK    5  A    between atoms: C_14  and  C_15 
REMARK    6  A    between atoms: C_15  and  N_16 
ROOT
HETATM    1  C   UNL     1      41.450 -12.793   5.065  1.00  0.00    -0.038 A 
HETATM    2  C   UNL     1      40.972 -12.480   3.784  1.00  0.00     0.038 A 
HETATM    3  C   UNL     1      41.804 -11.922   2.816  1.00  0.00     0.035 A 
HETATM    4  C   UNL     1      43.101 -11.551   3.173  1.00  0.00     0.029 A 
HETATM    5  C   UNL     1      43.577 -11.808   4.462  1.00  0.00     0.003 A 
HETATM    6  C   UNL     1      42.763 -12.449   5.397  1.00  0.00     0.009 A 
ENDROOT
BRANCH   1   7
HETATM    7  C   UNL     1      40.569 -13.540   6.023  1.00  0.00     0.176 C 
BRANCH   7   8
HETATM    8  N   UNL     1      40.227 -14.839   5.457  1.00  0.00    -0.222 N 
HETATM    9  H   UNL     1      39.259 -15.063   5.283  1.00  0.00     0.178 HD
BRANCH   8  10
HETATM   10  C   UNL     1      41.144 -15.721   5.028  1.00  0.00     0.679 A 
HETATM   11  N   UNL     1      41.239 -16.131   3.771  1.00  0.00    -0.190 N 
HETATM   12  C   UNL     1      42.289 -17.017   3.632  1.00  0.00     0.076 A 
HETATM   13  H   UNL     1      40.636 -15.845   3.012  1.00  0.00     0.184 HD
HETATM   14  C   UNL     1      42.841 -17.147   4.905  1.00  0.00     0.076 A 
HETATM   15  C   UNL     1      42.786 -17.700   2.530  1.00  0.00     0.032 A 
HETATM   16  C   UNL     1      43.921 -17.976   5.178  1.00  0.00     0.032 A 
HETATM   17  N   UNL     1      42.097 -16.321   5.717  1.00  0.00    -0.190 N 
HETATM   18  C   UNL     1      44.438 -18.674   4.075  1.00  0.00     0.002 A 
HETATM   19  C   UNL     1      43.886 -18.538   2.783  1.00  0.00     0.002 A 
HETATM   20  H   UNL     1      42.244 -16.257   6.715  1.00  0.00     0.184 HD
ENDBRANCH   8  10
ENDBRANCH   7   8
ENDBRANCH   1   7
BRANCH   3  21
HETATM   21  N   UNL     1      41.405 -11.740   1.480  1.00  0.00    -0.326 N 
HETATM   22  C   UNL     1      41.182 -12.723   0.531  1.00  0.00     0.242 C 
HETATM   23  O   UNL     1      41.333 -13.933   0.736  1.00  0.00    -0.271 OA
HETATM   24  H   UNL     1      41.423 -10.777   1.123  1.00  0.00     0.169 HD
BRANCH  22  25
HETATM   25  C   UNL     1      40.842 -12.247  -0.874  1.00  0.00     0.253 C 
BRANCH  25  26
HETATM   26  N   UNL     1      39.833 -13.009  -1.590  1.00  0.00    -0.273 N 
HETATM   27  N   UNL     1      38.518 -12.760  -1.384  1.00  0.00    -0.185 NA
HETATM   28  C   UNL     1      37.904 -13.550  -2.272  1.00  0.00     0.140 A 
HETATM   29  C   UNL     1      38.813 -14.300  -3.039  1.00  0.00     0.040 A 
HETATM   30  C   UNL     1      40.054 -13.927  -2.577  1.00  0.00     0.114 A 
ENDBRANCH  25  26
ENDBRANCH  22  25
ENDBRANCH   3  21
TORSDOF 6
ENDMDL
MODEL 8
REMARK VINA RESULT:      -7.6      2.480      3.827
REMARK  6 active torsions:
REMARK  status: ('A' for Active; 'I' for Inactive)
REMARK    1  A    between atoms: C_7  and  N_8 
REMARK    2  A    between atoms: N_8  and  C_9 
REMARK    3  A    between atoms: C_9  and  C_10 
REMARK    4  A    between atoms: C_12  and  N_13 
REMARK       I    between atoms: N_13  and  C_14 
REMARK    5  A    between atoms: C_14  and  C_15 
REMARK    6  A    between atoms: C_15  and  N_16 
ROOT
HETATM    1  C   UNL     1      41.038 -12.656   5.320  1.00  0.00    -0.038 A 
HETATM    2  C   UNL     1      42.114 -12.222   6.108  1.00  0.00     0.038 A 
HETATM    3  C   UNL     1      42.760 -11.014   5.850  1.00  0.00     0.035 A 
HETATM    4  C   UNL     1      42.412 -10.293   4.707  1.00  0.00     0.029 A 
HETATM    5  C   UNL     1      41.376 -10.740   3.881  1.00  0.00     0.003 A 
HETATM    6  C   UNL     1      40.675 -11.904   4.200  1.00  0.00     0.009 A 
ENDROOT
BRANCH   1   7
HETATM    7  C   UNL     1      40.267 -13.877   5.728  1.00  0.00     0.176 C 
BRANCH   7   8
HETATM    8  N   UNL     1      40.185 -14.798   4.601  1.00  0.00    -0.222 N 
HETATM    9  H   UNL     1      39.432 -14.701   3.938  1.00  0.00     0.178 HD
BRANCH   8  10
HETATM   10  C   UNL     1      41.135 -15.702   4.316  1.00  0.00     0.679 A 
HETATM   11  N   UNL     1      42.045 -16.114   5.188  1.00  0.00    -0.190 N 
HETATM   12  C   UNL     1      42.870 -17.060   4.612  1.00  0.00     0.076 A 
HETATM   13  H   UNL     1      42.134 -15.790   6.141  1.00  0.00     0.184 HD
HETATM   14  C   UNL     1      42.420 -17.202   3.301  1.00  0.00     0.076 A 
HETATM   15  C   UNL     1      43.946 -17.780   5.115  1.00  0.00     0.032 A 
HETATM   16  C   UNL     1      43.014 -18.063   2.389  1.00  0.00     0.032 A 
HETATM   17  N   UNL     1      41.349 -16.346   3.183  1.00  0.00    -0.190 N 
HETATM   18  C   UNL     1      44.103 -18.802   2.879  1.00  0.00     0.002 A 
HETATM   19  C   UNL     1      44.556 -18.665   4.209  1.00  0.00     0.002 A 
HETATM   20  H   UNL     1      40.855 -16.203   2.312  1.00  0.00     0.184 HD
ENDBRANCH   8  10
ENDBRANCH   7   8
ENDBRANCH   1   7
BRANCH   3  21
HETATM   21  N   UNL     1      43.735 -10.472   6.706  1.00  0.00    -0.326 N 
HETATM   22  C   UNL     1      44.968 -11.016   7.023  1.00  0.00     0.242 C 
HETATM   23  O   UNL     1      45.378 -12.101   6.595  1.00  0.00    -0.271 OA
HETATM   24  H   UNL     1      43.449  -9.665   7.273  1.00  0.00     0.169 HD
BRANCH  22  25
HETATM   25  C   UNL     1      45.799 -10.264   8.052  1.00  0.00     0.253 C 
BRANCH  25  26
HETATM   26  N   UNL     1      45.069  -9.637   9.141  1.00  0.00    -0.273 N 
HETATM   27  N   UNL     1      44.296  -8.550   8.907  1.00  0.00    -0.185 NA
HETATM   28  C   UNL     1      43.705  -8.323  10.086  1.00  0.00     0.140 A 
HETATM   29  C   UNL     1      44.095  -9.251  11.067  1.00  0.00     0.040 A 
HETATM   30  C   UNL     1      44.976 -10.091  10.426  1.00  0.00     0.114 A 
ENDBRANCH  25  26
ENDBRANCH  22  25
ENDBRANCH   3  21
TORSDOF 6
ENDMDL
MODEL 9
REMARK VINA RESULT:      -7.6      1.699      2.229
REMARK  6 active torsions:
REMARK  status: ('A' for Active; 'I' for Inactive)
REMARK    1  A    between atoms: C_7  and  N_8 
REMARK    2  A    between atoms: N_8  and  C_9 
REMARK    3  A    between atoms: C_9  and  C_10 
REMARK    4  A    between atoms: C_12  and  N_13 
REMARK       I    between atoms: N_13  and  C_14 
REMARK    5  A    between atoms: C_14  and  C_15 
REMARK    6  A    between atoms: C_15  and  N_16 
ROOT
HETATM    1  C   UNL     1      44.557 -10.979   7.040  1.00  0.00    -0.038 A 
HETATM    2  C   UNL     1      43.568 -10.945   8.033  1.00  0.00     0.038 A 
HETATM    3  C   UNL     1      43.794 -10.327   9.262  1.00  0.00     0.035 A 
HETATM    4  C   UNL     1      45.073  -9.851   9.553  1.00  0.00     0.029 A 
HETATM    5  C   UNL     1      46.086  -9.925   8.593  1.00  0.00     0.003 A 
HETATM    6  C   UNL     1      45.824 -10.464   7.333  1.00  0.00     0.009 A 
ENDROOT
BRANCH   1   7
HETATM    7  C   UNL     1      44.221 -11.507   5.677  1.00  0.00     0.176 C 
BRANCH   7   8
HETATM    8  N   UNL     1      43.199 -12.540   5.795  1.00  0.00    -0.222 N 
HETATM    9  H   UNL     1      42.437 -12.408   6.441  1.00  0.00     0.178 HD
BRANCH   8  10
HETATM   10  C   UNL     1      43.140 -13.614   4.993  1.00  0.00     0.679 A 
HETATM   11  N   UNL     1      43.125 -13.545   3.669  1.00  0.00    -0.190 N 
HETATM   12  C   UNL     1      43.084 -14.812   3.121  1.00  0.00     0.076 A 
HETATM   13  H   UNL     1      43.142 -12.693   3.125  1.00  0.00     0.184 HD
HETATM   14  C   UNL     1      43.057 -15.688   4.203  1.00  0.00     0.076 A 
HETATM   15  C   UNL     1      43.064 -15.251   1.804  1.00  0.00     0.032 A 
HETATM   16  C   UNL     1      42.996 -17.067   4.057  1.00  0.00     0.032 A 
HETATM   17  N   UNL     1      43.099 -14.892   5.325  1.00  0.00    -0.190 N 
HETATM   18  C   UNL     1      42.977 -17.532   2.732  1.00  0.00     0.002 A 
HETATM   19  C   UNL     1      43.012 -16.646   1.633  1.00  0.00     0.002 A 
HETATM   20  H   UNL     1      43.039 -15.263   6.264  1.00  0.00     0.184 HD
ENDBRANCH   8  10
ENDBRANCH   7   8
ENDBRANCH   1   7
BRANCH   3  21
HETATM   21  N   UNL     1      42.780 -10.137  10.218  1.00  0.00    -0.326 N 
HETATM   22  C   UNL     1      41.667  -9.322  10.107  1.00  0.00     0.242 C 
HETATM   23  O   UNL     1      41.421  -8.612   9.125  1.00  0.00    -0.271 OA
HETATM   24  H   UNL     1      42.954 -10.523  11.154  1.00  0.00     0.169 HD
BRANCH  22  25
HETATM   25  C   UNL     1      40.768  -9.229  11.331  1.00  0.00     0.253 C 
BRANCH  25  26
HETATM   26  N   UNL     1      41.416  -8.893  12.588  1.00  0.00    -0.273 N 
HETATM   27  N   UNL     1      42.522  -8.112  12.597  1.00  0.00    -0.185 NA
HETATM   28  C   UNL     1      42.768  -7.927  13.898  1.00  0.00     0.140 A 
HETATM   29  C   UNL     1      41.832  -8.582  14.718  1.00  0.00     0.040 A 
HETATM   30  C   UNL     1      40.968  -9.197  13.842  1.00  0.00     0.114 A 
ENDBRANCH  25  26
ENDBRANCH  22  25
ENDBRANCH   3  21
TORSDOF 6
ENDMDL
MODEL 10
REMARK VINA RESULT:      -7.5      6.867      9.082
REMARK  6 active torsions:
REMARK  status: ('A' for Active; 'I' for Inactive)
REMARK    1  A    between atoms: C_7  and  N_8 
REMARK    2  A    between atoms: N_8  and  C_9 
REMARK    3  A    between atoms: C_9  and  C_10 
REMARK    4  A    between atoms: C_12  and  N_13 
REMARK       I    between atoms: N_13  and  C_14 
REMARK    5  A    between atoms: C_14  and  C_15 
REMARK    6  A    between atoms: C_15  and  N_16 
ROOT
HETATM    1  C   UNL     1      41.256 -14.519   1.967  1.00  0.00    -0.038 A 
HETATM    2  C   UNL     1      41.628 -13.480   1.102  1.00  0.00     0.038 A 
HETATM    3  C   UNL     1      41.003 -13.304  -0.131  1.00  0.00     0.035 A 
HETATM    4  C   UNL     1      40.082 -14.259  -0.563  1.00  0.00     0.029 A 
HETATM    5  C   UNL     1      39.739 -15.332   0.266  1.00  0.00     0.003 A 
HETATM    6  C   UNL     1      40.305 -15.448   1.536  1.00  0.00     0.009 A 
ENDROOT
BRANCH   1   7
HETATM    7  C   UNL     1      41.837 -14.577   3.349  1.00  0.00     0.176 C 
BRANCH   7   8
HETATM    8  N   UNL     1      43.151 -15.207   3.298  1.00  0.00    -0.222 N 
HETATM    9  H   UNL     1      43.972 -14.629   3.203  1.00  0.00     0.178 HD
BRANCH   8  10
HETATM   10  C   UNL     1      43.348 -16.519   3.498  1.00  0.00     0.679 A 
HETATM   11  N   UNL     1      43.266 -17.432   2.540  1.00  0.00    -0.190 N 
HETATM   12  C   UNL     1      43.542 -18.687   3.046  1.00  0.00     0.076 A 
HETATM   13  H   UNL     1      43.036 -17.249   1.574  1.00  0.00     0.184 HD
HETATM   14  C   UNL     1      43.789 -18.498   4.404  1.00  0.00     0.076 A 
HETATM   15  C   UNL     1      43.589 -19.937   2.445  1.00  0.00     0.032 A 
HETATM   16  C   UNL     1      44.091 -19.542   5.268  1.00  0.00     0.032 A 
HETATM   17  N   UNL     1      43.661 -17.145   4.619  1.00  0.00    -0.190 N 
HETATM   18  C   UNL     1      44.146 -20.815   4.678  1.00  0.00     0.002 A 
HETATM   19  C   UNL     1      43.903 -21.008   3.300  1.00  0.00     0.002 A 
HETATM   20  H   UNL     1      43.737 -16.725   5.536  1.00  0.00     0.184 HD
ENDBRANCH   8  10
ENDBRANCH   7   8
ENDBRANCH   1   7
BRANCH   3  21
HETATM   21  N   UNL     1      41.238 -12.188  -0.953  1.00  0.00    -0.326 N 
HETATM   22  C   UNL     1      40.578 -10.972  -0.924  1.00  0.00     0.242 C 
HETATM   23  O   UNL     1      39.644 -10.707  -0.157  1.00  0.00    -0.271 OA
HETATM   24  H   UNL     1      41.861 -12.333  -1.757  1.00  0.00     0.169 HD
BRANCH  22  25
HETATM   25  C   UNL     1      40.971  -9.959  -1.989  1.00  0.00     0.253 C 
BRANCH  25  26
HETATM   26  N   UNL     1      41.570  -8.722  -1.517  1.00  0.00    -0.273 N 
HETATM   27  N   UNL     1      42.916  -8.608  -1.423  1.00  0.00    -0.185 NA
HETATM   28  C   UNL     1      43.102  -7.331  -1.073  1.00  0.00     0.140 A 
HETATM   29  C   UNL     1      41.890  -6.630  -0.942  1.00  0.00     0.040 A 
HETATM   30  C   UNL     1      40.915  -7.555  -1.238  1.00  0.00     0.114 A 
ENDBRANCH  25  26
ENDBRANCH  22  25
ENDBRANCH   3  21
TORSDOF 6
ENDMDL
