MODEL 1
REMARK VINA RESULT:      -7.6      0.000      0.000
REMARK  2 active torsions:
REMARK  status: ('A' for Active; 'I' for Inactive)
REMARK    1  A    between atoms: C_2  and  C_3 
REMARK       I    between atoms: C_3  and  N_4 
REMARK    2  A    between atoms: N_4  and  C_5 
ROOT
HETATM    1  C   UNL     1      43.450 -13.706   6.302  1.00  0.00     0.174 A 
HETATM    2  S   UNL     1      42.588 -13.628   4.840  1.00  0.00    -0.050 SA
HETATM    3  C   UNL     1      43.009 -15.262   4.494  1.00  0.00     0.040 A 
HETATM    4  C   UNL     1      43.787 -15.756   5.552  1.00  0.00     0.079 A 
HETATM    5  N   UNL     1      44.024 -14.852   6.576  1.00  0.00    -0.223 NA
HETATM    6  C   UNL     1      42.675 -16.041   3.370  1.00  0.00     0.061 A 
HETATM    7  C   UNL     1      43.166 -17.332   3.369  1.00  0.00     0.106 A 
HETATM    8  C   UNL     1      43.928 -17.835   4.393  1.00  0.00     0.107 A 
HETATM    9  O   UNL     1      44.303 -19.125   4.176  1.00  0.00    -0.323 OA
HETATM   10  C   UNL     1      43.695 -19.376   2.893  1.00  0.00     0.352 A 
HETATM   11  O   UNL     1      42.966 -18.243   2.377  1.00  0.00    -0.323 OA
HETATM   12  C   UNL     1      44.262 -17.085   5.504  1.00  0.00     0.073 A 
ENDROOT
BRANCH   1  13
HETATM   13  N   UNL     1      43.566 -12.649   7.164  1.00  0.00    -0.301 N 
HETATM   14  C   UNL     1      44.538 -11.675   7.186  1.00  0.00     0.264 C 
HETATM   15  O   UNL     1      45.465 -11.586   6.389  1.00  0.00    -0.267 OA
HETATM   16  H   UNL     1      42.840 -12.624   7.867  1.00  0.00     0.171 HD
BRANCH  14  17
HETATM   17  C   UNL     1      44.396 -10.702   8.272  1.00  0.00     0.074 A 
HETATM   18  C   UNL     1      45.320 -10.440   9.272  1.00  0.00     0.027 A 
HETATM   19  C   UNL     1      44.877  -9.441  10.188  1.00  0.00     0.033 A 
HETATM   20  C   UNL     1      43.633  -8.981   9.845  1.00  0.00     0.075 A 
HETATM   21  S   UNL     1      42.998  -9.718   8.462  1.00  0.00    -0.072 SA
HETATM   22 CL   UNL     1      42.721  -7.782  10.667  1.00  0.00    -0.076 Cl
ENDBRANCH  14  17
ENDBRANCH   1  13
TORSDOF 2
ENDMDL
MODEL 2
REMARK VINA RESULT:      -7.2      6.069      7.118
REMARK  2 active torsions:
REMARK  status: ('A' for Active; 'I' for Inactive)
REMARK    1  A    between atoms: C_2  and  C_3 
REMARK       I    between atoms: C_3  and  N_4 
REMARK    2  A    between atoms: N_4  and  C_5 
ROOT
HETATM    1  C   UNL     1      42.645 -15.026   2.046  1.00  0.00     0.174 A 
HETATM    2  S   UNL     1      42.901 -14.888   3.720  1.00  0.00    -0.050 SA
HETATM    3  C   UNL     1      43.247 -16.572   3.816  1.00  0.00     0.040 A 
HETATM    4  C   UNL     1      43.146 -17.122   2.529  1.00  0.00     0.079 A 
HETATM    5  N   UNL     1      42.805 -16.222   1.533  1.00  0.00    -0.223 NA
HETATM    6  C   UNL     1      43.579 -17.343   4.946  1.00  0.00     0.061 A 
HETATM    7  C   UNL     1      43.798 -18.686   4.711  1.00  0.00     0.106 A 
HETATM    8  C   UNL     1      43.705 -19.245   3.462  1.00  0.00     0.107 A 
HETATM    9  O   UNL     1      43.959 -20.582   3.470  1.00  0.00    -0.323 OA
HETATM   10  C   UNL     1      44.216 -20.804   4.871  1.00  0.00     0.352 A 
HETATM   11  O   UNL     1      44.122 -19.603   5.665  1.00  0.00    -0.323 OA
HETATM   12  C   UNL     1      43.384 -18.502   2.342  1.00  0.00     0.073 A 
ENDROOT
BRANCH   1  13
HETATM   13  N   UNL     1      42.283 -13.973   1.251  1.00  0.00    -0.301 N 
HETATM   14  C   UNL     1      41.015 -13.565   0.907  1.00  0.00     0.264 C 
HETATM   15  O   UNL     1      39.976 -14.086   1.299  1.00  0.00    -0.267 OA
HETATM   16  H   UNL     1      43.072 -13.465   0.874  1.00  0.00     0.171 HD
BRANCH  14  17
HETATM   17  C   UNL     1      40.972 -12.417  -0.002  1.00  0.00     0.074 A 
HETATM   18  C   UNL     1      41.184 -11.089   0.335  1.00  0.00     0.027 A 
HETATM   19  C   UNL     1      41.062 -10.208  -0.780  1.00  0.00     0.033 A 
HETATM   20  C   UNL     1      40.765 -10.904  -1.921  1.00  0.00     0.075 A 
HETATM   21  S   UNL     1      40.631 -12.573  -1.681  1.00  0.00    -0.072 SA
HETATM   22 CL   UNL     1      40.529 -10.248  -3.490  1.00  0.00    -0.076 Cl
ENDBRANCH  14  17
ENDBRANCH   1  13
TORSDOF 2
ENDMDL
MODEL 3
REMARK VINA RESULT:      -7.1      1.823      2.316
REMARK  2 active torsions:
REMARK  status: ('A' for Active; 'I' for Inactive)
REMARK    1  A    between atoms: C_2  and  C_3 
REMARK       I    between atoms: C_3  and  N_4 
REMARK    2  A    between atoms: N_4  and  C_5 
ROOT
HETATM    1  C   UNL     1      43.066 -11.896   6.442  1.00  0.00     0.174 A 
HETATM    2  S   UNL     1      43.128 -11.332   4.841  1.00  0.00    -0.050 SA
HETATM    3  C   UNL     1      43.117 -12.953   4.259  1.00  0.00     0.040 A 
HETATM    4  C   UNL     1      43.057 -13.821   5.360  1.00  0.00     0.079 A 
HETATM    5  N   UNL     1      43.024 -13.197   6.597  1.00  0.00    -0.223 NA
HETATM    6  C   UNL     1      43.161 -13.415   2.930  1.00  0.00     0.061 A 
HETATM    7  C   UNL     1      43.145 -14.787   2.773  1.00  0.00     0.106 A 
HETATM    8  C   UNL     1      43.085 -15.654   3.834  1.00  0.00     0.107 A 
HETATM    9  O   UNL     1      43.083 -16.958   3.442  1.00  0.00    -0.323 OA
HETATM   10  C   UNL     1      43.155 -16.812   2.009  1.00  0.00     0.352 A 
HETATM   11  O   UNL     1      43.188 -15.437   1.576  1.00  0.00    -0.323 OA
HETATM   12  C   UNL     1      43.038 -15.217   5.144  1.00  0.00     0.073 A 
ENDROOT
BRANCH   1  13
HETATM   13  N   UNL     1      43.067 -11.068   7.532  1.00  0.00    -0.301 N 
HETATM   14  C   UNL     1      44.112 -10.782   8.380  1.00  0.00     0.264 C 
HETATM   15  O   UNL     1      45.252 -11.219   8.266  1.00  0.00    -0.267 OA
HETATM   16  H   UNL     1      42.167 -10.646   7.715  1.00  0.00     0.171 HD
BRANCH  14  17
HETATM   17  C   UNL     1      43.768  -9.882   9.483  1.00  0.00     0.074 A 
HETATM   18  C   UNL     1      43.591  -8.509   9.404  1.00  0.00     0.027 A 
HETATM   19  C   UNL     1      43.271  -7.918  10.662  1.00  0.00     0.033 A 
HETATM   20  C   UNL     1      43.217  -8.868  11.647  1.00  0.00     0.075 A 
HETATM   21  S   UNL     1      43.538 -10.434  11.096  1.00  0.00    -0.072 SA
HETATM   22 CL   UNL     1      42.869  -8.604  13.307  1.00  0.00    -0.076 Cl
ENDBRANCH  14  17
ENDBRANCH   1  13
TORSDOF 2
ENDMDL
MODEL 4
REMARK VINA RESULT:      -7.0      1.351      2.037
REMARK  2 active torsions:
REMARK  status: ('A' for Active; 'I' for Inactive)
REMARK    1  A    between atoms: C_2  and  C_3 
REMARK       I    between atoms: C_3  and  N_4 
REMARK    2  A    between atoms: N_4  and  C_5 
ROOT
HETATM    1  C   UNL     1      43.251 -14.432   6.145  1.00  0.00     0.174 A 
HETATM    2  S   UNL     1      43.819 -15.776   7.014  1.00  0.00    -0.050 SA
HETATM    3  C   UNL     1      43.694 -16.755   5.604  1.00  0.00     0.040 A 
HETATM    4  C   UNL     1      43.223 -15.958   4.548  1.00  0.00     0.079 A 
HETATM    5  N   UNL     1      42.981 -14.634   4.878  1.00  0.00    -0.223 NA
HETATM    6  C   UNL     1      43.988 -18.123   5.449  1.00  0.00     0.061 A 
HETATM    7  C   UNL     1      43.780 -18.640   4.185  1.00  0.00     0.106 A 
HETATM    8  C   UNL     1      43.322 -17.879   3.139  1.00  0.00     0.107 A 
HETATM    9  O   UNL     1      43.191 -18.599   1.991  1.00  0.00    -0.323 OA
HETATM   10  C   UNL     1      43.613 -19.904   2.436  1.00  0.00     0.352 A 
HETATM   11  O   UNL     1      43.996 -19.936   3.826  1.00  0.00    -0.323 OA
HETATM   12  C   UNL     1      43.033 -16.535   3.273  1.00  0.00     0.073 A 
ENDROOT
BRANCH   1  13
HETATM   13  N   UNL     1      43.065 -13.197   6.704  1.00  0.00    -0.301 N 
HETATM   14  C   UNL     1      44.006 -12.220   6.938  1.00  0.00     0.264 C 
HETATM   15  O   UNL     1      45.194 -12.301   6.644  1.00  0.00    -0.267 OA
HETATM   16  H   UNL     1      42.109 -13.022   6.981  1.00  0.00     0.171 HD
BRANCH  14  17
HETATM   17  C   UNL     1      43.484 -11.019   7.594  1.00  0.00     0.074 A 
HETATM   18  C   UNL     1      42.463 -10.203   7.130  1.00  0.00     0.027 A 
HETATM   19  C   UNL     1      42.196  -9.104   7.998  1.00  0.00     0.033 A 
HETATM   20  C   UNL     1      43.024  -9.130   9.089  1.00  0.00     0.075 A 
HETATM   21  S   UNL     1      44.101 -10.433   9.089  1.00  0.00    -0.072 SA
HETATM   22 CL   UNL     1      43.051  -8.002  10.383  1.00  0.00    -0.076 Cl
ENDBRANCH  14  17
ENDBRANCH   1  13
TORSDOF 2
ENDMDL
MODEL 5
REMARK VINA RESULT:      -7.0      6.408      9.104
REMARK  2 active torsions:
REMARK  status: ('A' for Active; 'I' for Inactive)
REMARK    1  A    between atoms: C_2  and  C_3 
REMARK       I    between atoms: C_3  and  N_4 
REMARK    2  A    between atoms: N_4  and  C_5 
ROOT
HETATM    1  C   UNL     1      40.791 -15.137   1.639  1.00  0.00     0.174 A 
HETATM    2  S   UNL     1      40.171 -13.932   2.664  1.00  0.00    -0.050 SA
HETATM    3  C   UNL     1      39.608 -13.046   1.299  1.00  0.00     0.040 A 
HETATM    4  C   UNL     1      39.937 -13.762   0.137  1.00  0.00     0.079 A 
HETATM    5  N   UNL     1      40.608 -14.954   0.354  1.00  0.00    -0.223 NA
HETATM    6  C   UNL     1      38.929 -11.813   1.264  1.00  0.00     0.061 A 
HETATM    7  C   UNL     1      38.606 -11.343   0.006  1.00  0.00     0.106 A 
HETATM    8  C   UNL     1      38.918 -12.026  -1.142  1.00  0.00     0.107 A 
HETATM    9  O   UNL     1      38.506 -11.372  -2.263  1.00  0.00    -0.323 OA
HETATM   10  C   UNL     1      37.905 -10.194  -1.688  1.00  0.00     0.352 A 
HETATM   11  O   UNL     1      37.959 -10.172  -0.247  1.00  0.00    -0.323 OA
HETATM   12  C   UNL     1      39.579 -13.238  -1.126  1.00  0.00     0.073 A 
ENDROOT
BRANCH   1  13
HETATM   13  N   UNL     1      41.455 -16.244   2.094  1.00  0.00    -0.301 N 
HETATM   14  C   UNL     1      42.740 -16.322   2.580  1.00  0.00     0.264 C 
HETATM   15  O   UNL     1      43.503 -15.372   2.711  1.00  0.00    -0.267 OA
HETATM   16  H   UNL     1      40.908 -17.092   2.035  1.00  0.00     0.171 HD
BRANCH  14  17
HETATM   17  C   UNL     1      43.167 -17.675   2.949  1.00  0.00     0.074 A 
HETATM   18  C   UNL     1      43.124 -18.802   2.143  1.00  0.00     0.027 A 
HETATM   19  C   UNL     1      43.604 -19.972   2.802  1.00  0.00     0.033 A 
HETATM   20  C   UNL     1      43.994 -19.686   4.083  1.00  0.00     0.075 A 
HETATM   21  S   UNL     1      43.797 -18.059   4.502  1.00  0.00    -0.072 SA
HETATM   22 CL   UNL     1      44.630 -20.790   5.232  1.00  0.00    -0.076 Cl
ENDBRANCH  14  17
ENDBRANCH   1  13
TORSDOF 2
ENDMDL
MODEL 6
REMARK VINA RESULT:      -7.0      2.035      2.451
REMARK  2 active torsions:
REMARK  status: ('A' for Active; 'I' for Inactive)
REMARK    1  A    between atoms: C_2  and  C_3 
REMARK       I    between atoms: C_3  and  N_4 
REMARK    2  A    between atoms: N_4  and  C_5 
ROOT
HETATM    1  C   UNL     1      43.243 -14.635   4.906  1.00  0.00     0.174 A 
HETATM    2  S   UNL     1      42.822 -14.859   3.276  1.00  0.00    -0.050 SA
HETATM    3  C   UNL     1      43.187 -16.537   3.401  1.00  0.00     0.040 A 
HETATM    4  C   UNL     1      43.606 -16.805   4.714  1.00  0.00     0.079 A 
HETATM    5  N   UNL     1      43.627 -15.706   5.557  1.00  0.00    -0.223 NA
HETATM    6  C   UNL     1      43.110 -17.534   2.411  1.00  0.00     0.061 A 
HETATM    7  C   UNL     1      43.478 -18.804   2.811  1.00  0.00     0.106 A 
HETATM    8  C   UNL     1      43.889 -19.089   4.088  1.00  0.00     0.107 A 
HETATM    9  O   UNL     1      44.203 -20.403   4.252  1.00  0.00    -0.323 OA
HETATM   10  C   UNL     1      43.949 -20.913   2.928  1.00  0.00     0.352 A 
HETATM   11  O   UNL     1      43.482 -19.905   2.009  1.00  0.00    -0.323 OA
HETATM   12  C   UNL     1      43.966 -18.123   5.073  1.00  0.00     0.073 A 
ENDROOT
BRANCH   1  13
HETATM   13  N   UNL     1      43.205 -13.419   5.533  1.00  0.00    -0.301 N 
HETATM   14  C   UNL     1      42.101 -12.715   5.954  1.00  0.00     0.264 C 
HETATM   15  O   UNL     1      40.940 -13.097   5.852  1.00  0.00    -0.267 OA
HETATM   16  H   UNL     1      44.120 -13.012   5.673  1.00  0.00     0.171 HD
BRANCH  14  17
HETATM   17  C   UNL     1      42.404 -11.415   6.558  1.00  0.00     0.074 A 
HETATM   18  C   UNL     1      41.597 -10.288   6.540  1.00  0.00     0.027 A 
HETATM   19  C   UNL     1      42.185  -9.175   7.211  1.00  0.00     0.033 A 
HETATM   20  C   UNL     1      43.416  -9.503   7.714  1.00  0.00     0.075 A 
HETATM   21  S   UNL     1      43.871 -11.101   7.399  1.00  0.00    -0.072 SA
HETATM   22 CL   UNL     1      44.473  -8.473   8.590  1.00  0.00    -0.076 Cl
ENDBRANCH  14  17
ENDBRANCH   1  13
TORSDOF 2
ENDMDL
MODEL 7
REMARK VINA RESULT:      -6.9      4.100      8.432
REMARK  2 active torsions:
REMARK  status: ('A' for Active; 'I' for Inactive)
REMARK    1  A    between atoms: C_2  and  C_3 
REMARK       I    between atoms: C_3  and  N_4 
REMARK    2  A    between atoms: N_4  and  C_5 
ROOT
HETATM    1  C   UNL     1      43.087 -14.479   5.472  1.00  0.00     0.174 A 
HETATM    2  S   UNL     1      41.725 -13.516   5.152  1.00  0.00    -0.050 SA
HETATM    3  C   UNL     1      42.401 -12.233   6.081  1.00  0.00     0.040 A 
HETATM    4  C   UNL     1      43.650 -12.647   6.570  1.00  0.00     0.079 A 
HETATM    5  N   UNL     1      44.024 -13.931   6.207  1.00  0.00    -0.223 NA
HETATM    6  C   UNL     1      41.863 -10.962   6.355  1.00  0.00     0.061 A 
HETATM    7  C   UNL     1      42.643 -10.139   7.144  1.00  0.00     0.106 A 
HETATM    8  C   UNL     1      43.866 -10.523   7.632  1.00  0.00     0.107 A 
HETATM    9  O   UNL     1      44.453  -9.553   8.386  1.00  0.00    -0.323 OA
HETATM   10  C   UNL     1      43.453  -8.516   8.323  1.00  0.00     0.352 A 
HETATM   11  O   UNL     1      42.304  -8.878   7.531  1.00  0.00    -0.323 OA
HETATM   12  C   UNL     1      44.411 -11.765   7.369  1.00  0.00     0.073 A 
ENDROOT
BRANCH   1  13
HETATM   13  N   UNL     1      43.227 -15.761   5.013  1.00  0.00    -0.301 N 
HETATM   14  C   UNL     1      43.703 -16.859   5.693  1.00  0.00     0.264 C 
HETATM   15  O   UNL     1      44.060 -16.861   6.866  1.00  0.00    -0.267 OA
HETATM   16  H   UNL     1      42.952 -15.873   4.047  1.00  0.00     0.171 HD
BRANCH  14  17
HETATM   17  C   UNL     1      43.764 -18.086   4.895  1.00  0.00     0.074 A 
HETATM   18  C   UNL     1      44.000 -19.368   5.369  1.00  0.00     0.027 A 
HETATM   19  C   UNL     1      44.007 -20.348   4.334  1.00  0.00     0.033 A 
HETATM   20  C   UNL     1      43.775 -19.771   3.114  1.00  0.00     0.075 A 
HETATM   21  S   UNL     1      43.551 -18.097   3.189  1.00  0.00    -0.072 SA
HETATM   22 CL   UNL     1      43.699 -20.574   1.598  1.00  0.00    -0.076 Cl
ENDBRANCH  14  17
ENDBRANCH   1  13
TORSDOF 2
ENDMDL
MODEL 8
REMARK VINA RESULT:      -6.7      3.024      3.519
REMARK  2 active torsions:
REMARK  status: ('A' for Active; 'I' for Inactive)
REMARK    1  A    between atoms: C_2  and  C_3 
REMARK       I    between atoms: C_3  and  N_4 
REMARK    2  A    between atoms: N_4  and  C_5 
ROOT
HETATM    1  C   UNL     1      42.310 -12.309   5.860  1.00  0.00     0.174 A 
HETATM    2  S   UNL     1      41.495 -13.787   6.051  1.00  0.00    -0.050 SA
HETATM    3  C   UNL     1      41.225 -13.870   4.353  1.00  0.00     0.040 A 
HETATM    4  C   UNL     1      41.800 -12.738   3.754  1.00  0.00     0.079 A 
HETATM    5  N   UNL     1      42.417 -11.862   4.632  1.00  0.00    -0.223 NA
HETATM    6  C   UNL     1      40.554 -14.861   3.612  1.00  0.00     0.061 A 
HETATM    7  C   UNL     1      40.491 -14.650   2.249  1.00  0.00     0.106 A 
HETATM    8  C   UNL     1      41.046 -13.552   1.643  1.00  0.00     0.107 A 
HETATM    9  O   UNL     1      40.859 -13.552   0.294  1.00  0.00    -0.323 OA
HETATM   10  C   UNL     1      40.116 -14.775   0.121  1.00  0.00     0.352 A 
HETATM   11  O   UNL     1      39.884 -15.481   1.357  1.00  0.00    -0.323 OA
HETATM   12  C   UNL     1      41.712 -12.572   2.354  1.00  0.00     0.073 A 
ENDROOT
BRANCH   1  13
HETATM   13  N   UNL     1      42.829 -11.594   6.905  1.00  0.00    -0.301 N 
HETATM   14  C   UNL     1      44.145 -11.494   7.295  1.00  0.00     0.264 C 
HETATM   15  O   UNL     1      45.091 -12.027   6.726  1.00  0.00    -0.267 OA
HETATM   16  H   UNL     1      42.127 -11.106   7.445  1.00  0.00     0.171 HD
BRANCH  14  17
HETATM   17  C   UNL     1      44.362 -10.675   8.490  1.00  0.00     0.074 A 
HETATM   18  C   UNL     1      45.584 -10.372   9.072  1.00  0.00     0.027 A 
HETATM   19  C   UNL     1      45.457  -9.558  10.236  1.00  0.00     0.033 A 
HETATM   20  C   UNL     1      44.141  -9.274  10.491  1.00  0.00     0.075 A 
HETATM   21  S   UNL     1      43.072  -9.957   9.373  1.00  0.00    -0.072 SA
HETATM   22 CL   UNL     1      43.529  -8.331  11.788  1.00  0.00    -0.076 Cl
ENDBRANCH  14  17
ENDBRANCH   1  13
TORSDOF 2
ENDMDL
MODEL 9
REMARK VINA RESULT:      -6.7      3.800      4.797
REMARK  2 active torsions:
REMARK  status: ('A' for Active; 'I' for Inactive)
REMARK    1  A    between atoms: C_2  and  C_3 
REMARK       I    between atoms: C_3  and  N_4 
REMARK    2  A    between atoms: N_4  and  C_5 
ROOT
HETATM    1  C   UNL     1      42.264 -12.737   3.798  1.00  0.00     0.174 A 
HETATM    2  S   UNL     1      42.124 -14.407   3.525  1.00  0.00    -0.050 SA
HETATM    3  C   UNL     1      41.240 -14.106   2.078  1.00  0.00     0.040 A 
HETATM    4  C   UNL     1      41.125 -12.718   1.907  1.00  0.00     0.079 A 
HETATM    5  N   UNL     1      41.720 -11.955   2.898  1.00  0.00    -0.223 NA
HETATM    6  C   UNL     1      40.692 -15.031   1.169  1.00  0.00     0.061 A 
HETATM    7  C   UNL     1      40.023 -14.486   0.090  1.00  0.00     0.106 A 
HETATM    8  C   UNL     1      39.899 -13.132  -0.097  1.00  0.00     0.107 A 
HETATM    9  O   UNL     1      39.199 -12.825  -1.223  1.00  0.00    -0.323 OA
HETATM   10  C   UNL     1      38.891 -14.143  -1.721  1.00  0.00     0.352 A 
HETATM   11  O   UNL     1      39.416 -15.202  -0.896  1.00  0.00    -0.323 OA
HETATM   12  C   UNL     1      40.435 -12.211   0.783  1.00  0.00     0.073 A 
ENDROOT
BRANCH   1  13
HETATM   13  N   UNL     1      42.895 -12.203   4.890  1.00  0.00    -0.301 N 
HETATM   14  C   UNL     1      44.104 -11.547   4.935  1.00  0.00     0.264 C 
HETATM   15  O   UNL     1      44.812 -11.307   3.963  1.00  0.00    -0.267 OA
HETATM   16  H   UNL     1      42.388 -12.342   5.753  1.00  0.00     0.171 HD
BRANCH  14  17
HETATM   17  C   UNL     1      44.518 -11.132   6.278  1.00  0.00     0.074 A 
HETATM   18  C   UNL     1      45.803 -11.181   6.796  1.00  0.00     0.027 A 
HETATM   19  C   UNL     1      45.875 -10.713   8.142  1.00  0.00     0.033 A 
HETATM   20  C   UNL     1      44.641 -10.326   8.591  1.00  0.00     0.075 A 
HETATM   21  S   UNL     1      43.414 -10.511   7.441  1.00  0.00    -0.072 SA
HETATM   22 CL   UNL     1      44.264  -9.703  10.145  1.00  0.00    -0.076 Cl
ENDBRANCH  14  17
ENDBRANCH   1  13
TORSDOF 2
ENDMDL
MODEL 10
REMARK VINA RESULT:      -6.7      6.218      8.258
REMARK  2 active torsions:
REMARK  status: ('A' for Active; 'I' for Inactive)
REMARK    1  A    between atoms: C_2  and  C_3 
REMARK       I    between atoms: C_3  and  N_4 
REMARK    2  A    between atoms: N_4  and  C_5 
ROOT
HETATM    1  C   UNL     1      40.399 -14.519   1.274  1.00  0.00     0.174 A 
HETATM    2  S   UNL     1      40.102 -14.372   2.940  1.00  0.00    -0.050 SA
HETATM    3  C   UNL     1      41.300 -15.564   3.270  1.00  0.00     0.040 A 
HETATM    4  C   UNL     1      41.855 -15.987   2.052  1.00  0.00     0.079 A 
HETATM    5  N   UNL     1      41.329 -15.375   0.925  1.00  0.00    -0.223 NA
HETATM    6  C   UNL     1      41.712 -16.082   4.512  1.00  0.00     0.061 A 
HETATM    7  C   UNL     1      42.702 -17.044   4.460  1.00  0.00     0.106 A 
HETATM    8  C   UNL     1      43.259 -17.472   3.281  1.00  0.00     0.107 A 
HETATM    9  O   UNL     1      44.212 -18.425   3.472  1.00  0.00    -0.323 OA
HETATM   10  C   UNL     1      44.187 -18.554   4.907  1.00  0.00     0.352 A 
HETATM   11  O   UNL     1      43.236 -17.676   5.542  1.00  0.00    -0.323 OA
HETATM   12  C   UNL     1      42.869 -16.970   2.054  1.00  0.00     0.073 A 
ENDROOT
BRANCH   1  13
HETATM   13  N   UNL     1      39.719 -13.808   0.323  1.00  0.00    -0.301 N 
HETATM   14  C   UNL     1      40.006 -12.553  -0.165  1.00  0.00     0.264 C 
HETATM   15  O   UNL     1      40.966 -11.869   0.171  1.00  0.00    -0.267 OA
HETATM   16  H   UNL     1      38.903 -14.289  -0.031  1.00  0.00     0.171 HD
BRANCH  14  17
HETATM   17  C   UNL     1      39.049 -12.056  -1.157  1.00  0.00     0.074 A 
HETATM   18  C   UNL     1      37.909 -12.707  -1.603  1.00  0.00     0.027 A 
HETATM   19  C   UNL     1      37.192 -11.959  -2.583  1.00  0.00     0.033 A 
HETATM   20  C   UNL     1      37.817 -10.767  -2.841  1.00  0.00     0.075 A 
HETATM   21  S   UNL     1      39.229 -10.535  -1.940  1.00  0.00    -0.072 SA
HETATM   22 CL   UNL     1      37.306  -9.561  -3.949  1.00  0.00    -0.076 Cl
ENDBRANCH  14  17
ENDBRANCH   1  13
TORSDOF 2
ENDMDL
