MODEL 1
REMARK VINA RESULT:      -8.5      0.000      0.000
REMARK  4 active torsions:
REMARK  status: ('A' for Active; 'I' for Inactive)
REMARK    1  A    between atoms: C_9  and  C_10 
REMARK       I    between atoms: C_10  and  N_11 
REMARK    2  A    between atoms: N_11  and  C_12 
REMARK    3  A    between atoms: C_12  and  C_13 
REMARK    4  A    between atoms: C_14  and  O_15 
ROOT
HETATM    1  C   UNL     1      43.651 -13.216   6.842  1.00  0.00     0.273 C 
HETATM    2  N   UNL     1      42.961 -13.247   5.651  1.00  0.00    -0.347 N 
HETATM    3  O   UNL     1      43.489 -14.026   7.749  1.00  0.00    -0.266 OA
HETATM    4  H   UNL     1      43.330 -12.620   4.941  1.00  0.00     0.163 HD
ENDROOT
BRANCH   1   5
HETATM    5  C   UNL     1      44.613 -12.103   6.914  1.00  0.00     0.157 A 
HETATM    6  C   UNL     1      44.729 -11.126   7.948  1.00  0.00     0.029 A 
HETATM    7  C   UNL     1      44.068 -10.846   9.161  1.00  0.00     0.023 A 
HETATM    8  C   UNL     1      45.772 -10.299   7.549  1.00  0.00     0.063 A 
HETATM    9  C   UNL     1      44.471  -9.744   9.932  1.00  0.00    -0.061 A 
HETATM   10  C   UNL     1      43.770  -9.418  11.220  1.00  0.00     0.048 C 
HETATM   11  C   UNL     1      45.528  -8.936   9.492  1.00  0.00     0.009 A 
HETATM   12  C   UNL     1      46.201  -9.198   8.294  1.00  0.00     0.032 A 
HETATM   13  N   UNL     1      46.202 -10.812   6.357  1.00  0.00    -0.277 N 
HETATM   14  H   UNL     1      46.956 -10.462   5.777  1.00  0.00     0.189 HD
HETATM   15  N   UNL     1      45.523 -11.893   5.936  1.00  0.00    -0.168 NA
ENDBRANCH   1   5
BRANCH   2  16
HETATM   16  C   UNL     1      42.059 -14.321   5.264  1.00  0.00     0.116 C 
HETATM   17  C   UNL     1      40.611 -13.840   5.130  1.00  0.00     0.037 C 
BRANCH  16  18
HETATM   18  C   UNL     1      42.503 -14.954   3.949  1.00  0.00    -0.002 A 
HETATM   19  C   UNL     1      42.803 -14.163   2.823  1.00  0.00     0.076 A 
HETATM   20  C   UNL     1      43.227 -14.780   1.641  1.00  0.00     0.038 A 
HETATM   21  C   UNL     1      43.371 -16.168   1.570  1.00  0.00     0.009 A 
HETATM   22  C   UNL     1      43.104 -16.966   2.683  1.00  0.00    -0.061 A 
HETATM   23  C   UNL     1      43.260 -18.456   2.626  1.00  0.00     0.048 C 
HETATM   24  C   UNL     1      42.674 -16.352   3.864  1.00  0.00     0.018 A 
BRANCH  19  25
HETATM   25  O   UNL     1      42.661 -12.809   2.979  1.00  0.00    -0.355 OA
HETATM   26  C   UNL     1      41.897 -12.111   2.005  1.00  0.00     0.210 C 
ENDBRANCH  19  25
ENDBRANCH  16  18
ENDBRANCH   2  16
TORSDOF 4
ENDMDL
MODEL 2
REMARK VINA RESULT:      -8.3      1.396      2.489
REMARK  4 active torsions:
REMARK  status: ('A' for Active; 'I' for Inactive)
REMARK    1  A    between atoms: C_9  and  C_10 
REMARK       I    between atoms: C_10  and  N_11 
REMARK    2  A    between atoms: N_11  and  C_12 
REMARK    3  A    between atoms: C_12  and  C_13 
REMARK    4  A    between atoms: C_14  and  O_15 
ROOT
HETATM    1  C   UNL     1      43.071 -12.232   5.831  1.00  0.00     0.273 C 
HETATM    2  N   UNL     1      43.397 -13.352   5.100  1.00  0.00    -0.347 N 
HETATM    3  O   UNL     1      41.921 -11.866   6.049  1.00  0.00    -0.266 OA
HETATM    4  H   UNL     1      44.378 -13.615   5.158  1.00  0.00     0.163 HD
ENDROOT
BRANCH   1   5
HETATM    5  C   UNL     1      44.256 -11.512   6.330  1.00  0.00     0.157 A 
HETATM    6  C   UNL     1      44.436 -10.935   7.623  1.00  0.00     0.029 A 
HETATM    7  C   UNL     1      43.669 -10.819   8.800  1.00  0.00     0.023 A 
HETATM    8  C   UNL     1      45.705 -10.371   7.594  1.00  0.00     0.063 A 
HETATM    9  C   UNL     1      44.200 -10.138   9.909  1.00  0.00    -0.061 A 
HETATM   10  C   UNL     1      43.394  -9.989  11.167  1.00  0.00     0.048 C 
HETATM   11  C   UNL     1      45.485  -9.584   9.835  1.00  0.00     0.009 A 
HETATM   12  C   UNL     1      46.265  -9.692   8.678  1.00  0.00     0.032 A 
HETATM   13  N   UNL     1      46.189 -10.639   6.343  1.00  0.00    -0.277 N 
HETATM   14  H   UNL     1      47.094 -10.379   5.969  1.00  0.00     0.189 HD
HETATM   15  N   UNL     1      45.342 -11.316   5.549  1.00  0.00    -0.168 NA
ENDBRANCH   1   5
BRANCH   2  16
HETATM   16  C   UNL     1      42.422 -14.317   4.617  1.00  0.00     0.116 C 
HETATM   17  C   UNL     1      41.898 -13.961   3.222  1.00  0.00     0.037 C 
BRANCH  16  18
HETATM   18  C   UNL     1      43.016 -15.722   4.588  1.00  0.00    -0.002 A 
HETATM   19  C   UNL     1      43.693 -16.251   5.703  1.00  0.00     0.076 A 
HETATM   20  C   UNL     1      44.207 -17.552   5.644  1.00  0.00     0.038 A 
HETATM   21  C   UNL     1      44.039 -18.336   4.499  1.00  0.00     0.009 A 
HETATM   22  C   UNL     1      43.348 -17.838   3.395  1.00  0.00    -0.061 A 
HETATM   23  C   UNL     1      43.155 -18.668   2.161  1.00  0.00     0.048 C 
HETATM   24  C   UNL     1      42.840 -16.536   3.448  1.00  0.00     0.018 A 
BRANCH  19  25
HETATM   25  O   UNL     1      43.795 -15.430   6.795  1.00  0.00    -0.355 OA
HETATM   26  C   UNL     1      42.948 -15.701   7.904  1.00  0.00     0.210 C 
ENDBRANCH  19  25
ENDBRANCH  16  18
ENDBRANCH   2  16
TORSDOF 4
ENDMDL
MODEL 3
REMARK VINA RESULT:      -8.3      1.362      2.152
REMARK  4 active torsions:
REMARK  status: ('A' for Active; 'I' for Inactive)
REMARK    1  A    between atoms: C_9  and  C_10 
REMARK       I    between atoms: C_10  and  N_11 
REMARK    2  A    between atoms: N_11  and  C_12 
REMARK    3  A    between atoms: C_12  and  C_13 
REMARK    4  A    between atoms: C_14  and  O_15 
ROOT
HETATM    1  C   UNL     1      43.491 -13.323   7.048  1.00  0.00     0.273 C 
HETATM    2  N   UNL     1      42.631 -13.351   5.973  1.00  0.00    -0.347 N 
HETATM    3  O   UNL     1      43.438 -14.109   7.988  1.00  0.00    -0.266 OA
HETATM    4  H   UNL     1      42.912 -12.751   5.201  1.00  0.00     0.163 HD
ENDROOT
BRANCH   1   5
HETATM    5  C   UNL     1      44.488 -12.243   6.953  1.00  0.00     0.157 A 
HETATM    6  C   UNL     1      44.723 -11.197   7.895  1.00  0.00     0.029 A 
HETATM    7  C   UNL     1      44.179 -10.804   9.134  1.00  0.00     0.023 A 
HETATM    8  C   UNL     1      45.750 -10.440   7.346  1.00  0.00     0.063 A 
HETATM    9  C   UNL     1      44.681  -9.663   9.782  1.00  0.00    -0.061 A 
HETATM   10  C   UNL     1      44.105  -9.218  11.096  1.00  0.00     0.048 C 
HETATM   11  C   UNL     1      45.718  -8.929   9.192  1.00  0.00     0.009 A 
HETATM   12  C   UNL     1      46.276  -9.303   7.964  1.00  0.00     0.032 A 
HETATM   13  N   UNL     1      46.059 -11.055   6.164  1.00  0.00    -0.277 N 
HETATM   14  H   UNL     1      46.769 -10.775   5.497  1.00  0.00     0.189 HD
HETATM   15  N   UNL     1      45.314 -12.139   5.887  1.00  0.00    -0.168 NA
ENDBRANCH   1   5
BRANCH   2  16
HETATM   16  C   UNL     1      41.649 -14.400   5.747  1.00  0.00     0.116 C 
HETATM   17  C   UNL     1      40.213 -13.866   5.790  1.00  0.00     0.037 C 
BRANCH  16  18
HETATM   18  C   UNL     1      41.889 -15.089   4.408  1.00  0.00    -0.002 A 
HETATM   19  C   UNL     1      43.007 -15.921   4.205  1.00  0.00     0.076 A 
HETATM   20  C   UNL     1      43.181 -16.553   2.969  1.00  0.00     0.038 A 
HETATM   21  C   UNL     1      42.250 -16.382   1.941  1.00  0.00     0.009 A 
HETATM   22  C   UNL     1      41.123 -15.584   2.132  1.00  0.00    -0.061 A 
HETATM   23  C   UNL     1      40.111 -15.396   1.042  1.00  0.00     0.048 C 
HETATM   24  C   UNL     1      40.949 -14.946   3.364  1.00  0.00     0.018 A 
BRANCH  19  25
HETATM   25  O   UNL     1      43.861 -16.057   5.269  1.00  0.00    -0.355 OA
HETATM   26  C   UNL     1      43.996 -17.350   5.843  1.00  0.00     0.210 C 
ENDBRANCH  19  25
ENDBRANCH  16  18
ENDBRANCH   2  16
TORSDOF 4
ENDMDL
MODEL 4
REMARK VINA RESULT:      -8.2      5.533      7.693
REMARK  4 active torsions:
REMARK  status: ('A' for Active; 'I' for Inactive)
REMARK    1  A    between atoms: C_9  and  C_10 
REMARK       I    between atoms: C_10  and  N_11 
REMARK    2  A    between atoms: N_11  and  C_12 
REMARK    3  A    between atoms: C_12  and  C_13 
REMARK    4  A    between atoms: C_14  and  O_15 
ROOT
HETATM    1  C   UNL     1      40.487 -15.112   2.095  1.00  0.00     0.273 C 
HETATM    2  N   UNL     1      40.307 -13.754   1.950  1.00  0.00    -0.347 N 
HETATM    3  O   UNL     1      39.789 -15.958   1.546  1.00  0.00    -0.266 OA
HETATM    4  H   UNL     1      41.067 -13.192   2.324  1.00  0.00     0.163 HD
ENDROOT
BRANCH   1   5
HETATM    5  C   UNL     1      41.612 -15.446   2.984  1.00  0.00     0.157 A 
HETATM    6  C   UNL     1      42.374 -16.652   2.999  1.00  0.00     0.029 A 
HETATM    7  C   UNL     1      42.373 -17.864   2.279  1.00  0.00     0.023 A 
HETATM    8  C   UNL     1      43.306 -16.480   4.015  1.00  0.00     0.063 A 
HETATM    9  C   UNL     1      43.304 -18.865   2.604  1.00  0.00    -0.061 A 
HETATM   10  C   UNL     1      43.309 -20.170   1.861  1.00  0.00     0.048 C 
HETATM   11  C   UNL     1      44.225 -18.649   3.637  1.00  0.00     0.009 A 
HETATM   12  C   UNL     1      44.247 -17.452   4.362  1.00  0.00     0.032 A 
HETATM   13  N   UNL     1      43.060 -15.233   4.520  1.00  0.00    -0.277 N 
HETATM   14  H   UNL     1      43.554 -14.772   5.276  1.00  0.00     0.189 HD
HETATM   15  N   UNL     1      42.042 -14.582   3.932  1.00  0.00    -0.168 NA
ENDBRANCH   1   5
BRANCH   2  16
HETATM   16  C   UNL     1      39.362 -13.157   1.019  1.00  0.00     0.116 C 
HETATM   17  C   UNL     1      38.586 -11.995   1.649  1.00  0.00     0.037 C 
BRANCH  16  18
HETATM   18  C   UNL     1      40.076 -12.662  -0.236  1.00  0.00    -0.002 A 
HETATM   19  C   UNL     1      40.062 -13.413  -1.426  1.00  0.00     0.076 A 
HETATM   20  C   UNL     1      40.710 -12.916  -2.563  1.00  0.00     0.038 A 
HETATM   21  C   UNL     1      41.355 -11.676  -2.533  1.00  0.00     0.009 A 
HETATM   22  C   UNL     1      41.356 -10.906  -1.370  1.00  0.00    -0.061 A 
HETATM   23  C   UNL     1      42.037  -9.571  -1.324  1.00  0.00     0.048 C 
HETATM   24  C   UNL     1      40.714 -11.403  -0.231  1.00  0.00     0.018 A 
BRANCH  19  25
HETATM   25  O   UNL     1      39.389 -14.606  -1.382  1.00  0.00    -0.355 OA
HETATM   26  C   UNL     1      38.776 -15.061  -2.580  1.00  0.00     0.210 C 
ENDBRANCH  19  25
ENDBRANCH  16  18
ENDBRANCH   2  16
TORSDOF 4
ENDMDL
MODEL 5
REMARK VINA RESULT:      -8.1      2.091      7.798
REMARK  4 active torsions:
REMARK  status: ('A' for Active; 'I' for Inactive)
REMARK    1  A    between atoms: C_9  and  C_10 
REMARK       I    between atoms: C_10  and  N_11 
REMARK    2  A    between atoms: N_11  and  C_12 
REMARK    3  A    between atoms: C_12  and  C_13 
REMARK    4  A    between atoms: C_14  and  O_15 
ROOT
HETATM    1  C   UNL     1      41.158 -11.485   5.711  1.00  0.00     0.273 C 
HETATM    2  N   UNL     1      41.503 -11.059   6.974  1.00  0.00    -0.347 N 
HETATM    3  O   UNL     1      41.117 -10.752   4.728  1.00  0.00    -0.266 OA
HETATM    4  H   UNL     1      41.659 -11.814   7.638  1.00  0.00     0.163 HD
ENDROOT
BRANCH   1   5
HETATM    5  C   UNL     1      40.843 -12.923   5.660  1.00  0.00     0.157 A 
HETATM    6  C   UNL     1      41.372 -13.893   4.756  1.00  0.00     0.029 A 
HETATM    7  C   UNL     1      42.283 -13.890   3.681  1.00  0.00     0.023 A 
HETATM    8  C   UNL     1      40.761 -15.089   5.111  1.00  0.00     0.063 A 
HETATM    9  C   UNL     1      42.549 -15.086   2.994  1.00  0.00    -0.061 A 
HETATM   10  C   UNL     1      43.504 -15.102   1.835  1.00  0.00     0.048 C 
HETATM   11  C   UNL     1      41.910 -16.270   3.385  1.00  0.00     0.009 A 
HETATM   12  C   UNL     1      41.005 -16.296   4.452  1.00  0.00     0.032 A 
HETATM   13  N   UNL     1      39.945 -14.778   6.163  1.00  0.00    -0.277 N 
HETATM   14  H   UNL     1      39.345 -15.411   6.680  1.00  0.00     0.189 HD
HETATM   15  N   UNL     1      39.959 -13.481   6.518  1.00  0.00    -0.168 NA
ENDBRANCH   1   5
BRANCH   2  16
HETATM   16  C   UNL     1      41.996  -9.724   7.273  1.00  0.00     0.116 C 
HETATM   17  C   UNL     1      40.884  -8.793   7.766  1.00  0.00     0.037 C 
BRANCH  16  18
HETATM   18  C   UNL     1      43.106  -9.778   8.318  1.00  0.00    -0.002 A 
HETATM   19  C   UNL     1      44.367 -10.326   8.016  1.00  0.00     0.076 A 
HETATM   20  C   UNL     1      45.367 -10.338   8.996  1.00  0.00     0.038 A 
HETATM   21  C   UNL     1      45.133  -9.796  10.263  1.00  0.00     0.009 A 
HETATM   22  C   UNL     1      43.899  -9.224  10.572  1.00  0.00    -0.061 A 
HETATM   23  C   UNL     1      43.634  -8.633  11.924  1.00  0.00     0.048 C 
HETATM   24  C   UNL     1      42.896  -9.217   9.597  1.00  0.00     0.018 A 
BRANCH  19  25
HETATM   25  O   UNL     1      44.526 -10.815   6.746  1.00  0.00    -0.355 OA
HETATM   26  C   UNL     1      44.839 -12.193   6.604  1.00  0.00     0.210 C 
ENDBRANCH  19  25
ENDBRANCH  16  18
ENDBRANCH   2  16
TORSDOF 4
ENDMDL
MODEL 6
REMARK VINA RESULT:      -8.0      1.900      7.928
REMARK  4 active torsions:
REMARK  status: ('A' for Active; 'I' for Inactive)
REMARK    1  A    between atoms: C_9  and  C_10 
REMARK       I    between atoms: C_10  and  N_11 
REMARK    2  A    between atoms: N_11  and  C_12 
REMARK    3  A    between atoms: C_12  and  C_13 
REMARK    4  A    between atoms: C_14  and  O_15 
ROOT
HETATM    1  C   UNL     1      43.189 -12.503   5.996  1.00  0.00     0.273 C 
HETATM    2  N   UNL     1      42.821 -11.840   7.146  1.00  0.00    -0.347 N 
HETATM    3  O   UNL     1      43.479 -11.941   4.945  1.00  0.00    -0.266 OA
HETATM    4  H   UNL     1      42.783 -12.432   7.972  1.00  0.00     0.163 HD
ENDROOT
BRANCH   1   5
HETATM    5  C   UNL     1      43.200 -13.967   6.160  1.00  0.00     0.157 A 
HETATM    6  C   UNL     1      43.206 -14.952   5.129  1.00  0.00     0.029 A 
HETATM    7  C   UNL     1      43.199 -14.949   3.719  1.00  0.00     0.023 A 
HETATM    8  C   UNL     1      43.207 -16.172   5.793  1.00  0.00     0.063 A 
HETATM    9  C   UNL     1      43.191 -16.169   3.022  1.00  0.00    -0.061 A 
HETATM   10  C   UNL     1      43.168 -16.187   1.521  1.00  0.00     0.048 C 
HETATM   11  C   UNL     1      43.193 -17.376   3.733  1.00  0.00     0.009 A 
HETATM   12  C   UNL     1      43.203 -17.403   5.132  1.00  0.00     0.032 A 
HETATM   13  N   UNL     1      43.209 -15.857   7.124  1.00  0.00    -0.277 N 
HETATM   14  H   UNL     1      43.213 -16.502   7.905  1.00  0.00     0.189 HD
HETATM   15  N   UNL     1      43.195 -14.538   7.386  1.00  0.00    -0.168 NA
ENDBRANCH   1   5
BRANCH   2  16
HETATM   16  C   UNL     1      42.868 -10.395   7.299  1.00  0.00     0.116 C 
HETATM   17  C   UNL     1      41.498  -9.745   7.074  1.00  0.00     0.037 C 
BRANCH  16  18
HETATM   18  C   UNL     1      43.385 -10.012   8.682  1.00  0.00    -0.002 A 
HETATM   19  C   UNL     1      44.653 -10.430   9.129  1.00  0.00     0.076 A 
HETATM   20  C   UNL     1      45.101 -10.041  10.396  1.00  0.00     0.038 A 
HETATM   21  C   UNL     1      44.311  -9.227  11.215  1.00  0.00     0.009 A 
HETATM   22  C   UNL     1      43.064  -8.781  10.778  1.00  0.00    -0.061 A 
HETATM   23  C   UNL     1      42.209  -7.903  11.641  1.00  0.00     0.048 C 
HETATM   24  C   UNL     1      42.612  -9.174   9.515  1.00  0.00     0.018 A 
BRANCH  19  25
HETATM   25  O   UNL     1      45.376 -11.205   8.259  1.00  0.00    -0.355 OA
HETATM   26  C   UNL     1      46.413 -10.574   7.521  1.00  0.00     0.210 C 
ENDBRANCH  19  25
ENDBRANCH  16  18
ENDBRANCH   2  16
TORSDOF 4
ENDMDL
MODEL 7
REMARK VINA RESULT:      -8.0      4.716      8.008
REMARK  4 active torsions:
REMARK  status: ('A' for Active; 'I' for Inactive)
REMARK    1  A    between atoms: C_9  and  C_10 
REMARK       I    between atoms: C_10  and  N_11 
REMARK    2  A    between atoms: N_11  and  C_12 
REMARK    3  A    between atoms: C_12  and  C_13 
REMARK    4  A    between atoms: C_14  and  O_15 
ROOT
HETATM    1  C   UNL     1      41.147 -14.511   1.963  1.00  0.00     0.273 C 
HETATM    2  N   UNL     1      40.820 -15.507   2.856  1.00  0.00    -0.347 N 
HETATM    3  O   UNL     1      41.961 -13.624   2.195  1.00  0.00    -0.266 OA
HETATM    4  H   UNL     1      40.266 -16.260   2.454  1.00  0.00     0.163 HD
ENDROOT
BRANCH   1   5
HETATM    5  C   UNL     1      40.414 -14.623   0.690  1.00  0.00     0.157 A 
HETATM    6  C   UNL     1      40.373 -13.669  -0.370  1.00  0.00     0.029 A 
HETATM    7  C   UNL     1      40.929 -12.398  -0.616  1.00  0.00     0.023 A 
HETATM    8  C   UNL     1      39.547 -14.235  -1.333  1.00  0.00     0.063 A 
HETATM    9  C   UNL     1      40.636 -11.733  -1.819  1.00  0.00    -0.061 A 
HETATM   10  C   UNL     1      41.205 -10.371  -2.094  1.00  0.00     0.048 C 
HETATM   11  C   UNL     1      39.798 -12.341  -2.763  1.00  0.00     0.009 A 
HETATM   12  C   UNL     1      39.238 -13.604  -2.541  1.00  0.00     0.032 A 
HETATM   13  N   UNL     1      39.166 -15.442  -0.817  1.00  0.00    -0.277 N 
HETATM   14  H   UNL     1      38.561 -16.130  -1.251  1.00  0.00     0.189 HD
HETATM   15  N   UNL     1      39.660 -15.708   0.405  1.00  0.00    -0.168 NA
ENDBRANCH   1   5
BRANCH   2  16
HETATM   16  C   UNL     1      41.499 -15.713   4.125  1.00  0.00     0.116 C 
HETATM   17  C   UNL     1      40.526 -16.090   5.248  1.00  0.00     0.037 C 
BRANCH  16  18
HETATM   18  C   UNL     1      42.565 -16.797   4.000  1.00  0.00    -0.002 A 
HETATM   19  C   UNL     1      43.649 -16.862   4.897  1.00  0.00     0.076 A 
HETATM   20  C   UNL     1      44.596 -17.884   4.762  1.00  0.00     0.038 A 
HETATM   21  C   UNL     1      44.467 -18.850   3.760  1.00  0.00     0.009 A 
HETATM   22  C   UNL     1      43.386 -18.818   2.879  1.00  0.00    -0.061 A 
HETATM   23  C   UNL     1      43.230 -19.850   1.803  1.00  0.00     0.048 C 
HETATM   24  C   UNL     1      42.442 -17.794   3.008  1.00  0.00     0.018 A 
BRANCH  19  25
HETATM   25  O   UNL     1      43.691 -15.894   5.866  1.00  0.00    -0.355 OA
HETATM   26  C   UNL     1      43.697 -16.319   7.222  1.00  0.00     0.210 C 
ENDBRANCH  19  25
ENDBRANCH  16  18
ENDBRANCH   2  16
TORSDOF 4
ENDMDL
MODEL 8
REMARK VINA RESULT:      -7.7      4.008      6.873
REMARK  4 active torsions:
REMARK  status: ('A' for Active; 'I' for Inactive)
REMARK    1  A    between atoms: C_9  and  C_10 
REMARK       I    between atoms: C_10  and  N_11 
REMARK    2  A    between atoms: N_11  and  C_12 
REMARK    3  A    between atoms: C_12  and  C_13 
REMARK    4  A    between atoms: C_14  and  O_15 
ROOT
HETATM    1  C   UNL     1      40.009 -12.920   2.373  1.00  0.00     0.273 C 
HETATM    2  N   UNL     1      40.794 -14.030   2.151  1.00  0.00    -0.347 N 
HETATM    3  O   UNL     1      38.888 -12.962   2.868  1.00  0.00    -0.266 OA
HETATM    4  H   UNL     1      41.756 -13.814   1.900  1.00  0.00     0.163 HD
ENDROOT
BRANCH   1   5
HETATM    5  C   UNL     1      40.660 -11.668   1.952  1.00  0.00     0.157 A 
HETATM    6  C   UNL     1      40.900 -11.224   0.617  1.00  0.00     0.029 A 
HETATM    7  C   UNL     1      40.657 -11.722  -0.679  1.00  0.00     0.023 A 
HETATM    8  C   UNL     1      41.542 -10.000   0.752  1.00  0.00     0.063 A 
HETATM    9  C   UNL     1      41.068 -10.977  -1.797  1.00  0.00    -0.061 A 
HETATM   10  C   UNL     1      40.833 -11.497  -3.186  1.00  0.00     0.048 C 
HETATM   11  C   UNL     1      41.712  -9.747  -1.614  1.00  0.00     0.009 A 
HETATM   12  C   UNL     1      41.960  -9.232  -0.337  1.00  0.00     0.032 A 
HETATM   13  N   UNL     1      41.637  -9.791   2.100  1.00  0.00    -0.277 N 
HETATM   14  H   UNL     1      42.049  -8.991   2.567  1.00  0.00     0.189 HD
HETATM   15  N   UNL     1      41.126 -10.778   2.856  1.00  0.00    -0.168 NA
ENDBRANCH   1   5
BRANCH   2  16
HETATM   16  C   UNL     1      40.452 -15.369   2.604  1.00  0.00     0.116 C 
HETATM   17  C   UNL     1      39.821 -16.213   1.492  1.00  0.00     0.037 C 
BRANCH  16  18
HETATM   18  C   UNL     1      41.683 -16.089   3.146  1.00  0.00    -0.002 A 
HETATM   19  C   UNL     1      42.375 -15.606   4.272  1.00  0.00     0.076 A 
HETATM   20  C   UNL     1      43.488 -16.307   4.751  1.00  0.00     0.038 A 
HETATM   21  C   UNL     1      43.907 -17.489   4.135  1.00  0.00     0.009 A 
HETATM   22  C   UNL     1      43.218 -17.998   3.035  1.00  0.00    -0.061 A 
HETATM   23  C   UNL     1      43.651 -19.269   2.367  1.00  0.00     0.048 C 
HETATM   24  C   UNL     1      42.110 -17.296   2.550  1.00  0.00     0.018 A 
BRANCH  19  25
HETATM   25  O   UNL     1      41.888 -14.454   4.834  1.00  0.00    -0.355 OA
HETATM   26  C   UNL     1      42.817 -13.421   5.129  1.00  0.00     0.210 C 
ENDBRANCH  19  25
ENDBRANCH  16  18
ENDBRANCH   2  16
TORSDOF 4
ENDMDL
MODEL 9
REMARK VINA RESULT:      -7.6      1.821      7.590
REMARK  4 active torsions:
REMARK  status: ('A' for Active; 'I' for Inactive)
REMARK    1  A    between atoms: C_9  and  C_10 
REMARK       I    between atoms: C_10  and  N_11 
REMARK    2  A    between atoms: N_11  and  C_12 
REMARK    3  A    between atoms: C_12  and  C_13 
REMARK    4  A    between atoms: C_14  and  O_15 
ROOT
HETATM    1  C   UNL     1      43.295 -13.873   6.302  1.00  0.00     0.273 C 
HETATM    2  N   UNL     1      43.924 -12.669   6.074  1.00  0.00    -0.347 N 
HETATM    3  O   UNL     1      43.432 -14.534   7.325  1.00  0.00    -0.266 OA
HETATM    4  H   UNL     1      43.575 -12.165   5.263  1.00  0.00     0.163 HD
ENDROOT
BRANCH   1   5
HETATM    5  C   UNL     1      42.433 -14.286   5.181  1.00  0.00     0.157 A 
HETATM    6  C   UNL     1      42.570 -15.452   4.369  1.00  0.00     0.029 A 
HETATM    7  C   UNL     1      43.460 -16.543   4.299  1.00  0.00     0.023 A 
HETATM    8  C   UNL     1      41.525 -15.382   3.456  1.00  0.00     0.063 A 
HETATM    9  C   UNL     1      43.274 -17.527   3.314  1.00  0.00    -0.061 A 
HETATM   10  C   UNL     1      44.219 -18.689   3.212  1.00  0.00     0.048 C 
HETATM   11  C   UNL     1      42.206 -17.417   2.413  1.00  0.00     0.009 A 
HETATM   12  C   UNL     1      41.309 -16.344   2.467  1.00  0.00     0.032 A 
HETATM   13  N   UNL     1      40.852 -14.233   3.767  1.00  0.00    -0.277 N 
HETATM   14  H   UNL     1      40.028 -13.864   3.308  1.00  0.00     0.189 HD
HETATM   15  N   UNL     1      41.374 -13.540   4.794  1.00  0.00    -0.168 NA
ENDBRANCH   1   5
BRANCH   2  16
HETATM   16  C   UNL     1      44.714 -11.966   7.073  1.00  0.00     0.116 C 
HETATM   17  C   UNL     1      45.958 -11.307   6.467  1.00  0.00     0.037 C 
BRANCH  16  18
HETATM   18  C   UNL     1      43.876 -10.904   7.778  1.00  0.00    -0.002 A 
HETATM   19  C   UNL     1      42.908 -10.157   7.081  1.00  0.00     0.076 A 
HETATM   20  C   UNL     1      42.144  -9.206   7.768  1.00  0.00     0.038 A 
HETATM   21  C   UNL     1      42.320  -9.004   9.140  1.00  0.00     0.009 A 
HETATM   22  C   UNL     1      43.256  -9.753   9.853  1.00  0.00    -0.061 A 
HETATM   23  C   UNL     1      43.452  -9.553  11.325  1.00  0.00     0.048 C 
HETATM   24  C   UNL     1      44.025 -10.699   9.167  1.00  0.00     0.018 A 
BRANCH  19  25
HETATM   25  O   UNL     1      42.779 -10.431   5.745  1.00  0.00    -0.355 OA
HETATM   26  C   UNL     1      41.790  -9.714   5.018  1.00  0.00     0.210 C 
ENDBRANCH  19  25
ENDBRANCH  16  18
ENDBRANCH   2  16
TORSDOF 4
ENDMDL
MODEL 10
REMARK VINA RESULT:      -7.6      2.875      4.601
REMARK  4 active torsions:
REMARK  status: ('A' for Active; 'I' for Inactive)
REMARK    1  A    between atoms: C_9  and  C_10 
REMARK       I    between atoms: C_10  and  N_11 
REMARK    2  A    between atoms: N_11  and  C_12 
REMARK    3  A    between atoms: C_12  and  C_13 
REMARK    4  A    between atoms: C_14  and  O_15 
ROOT
HETATM    1  C   UNL     1      44.582 -10.101   9.303  1.00  0.00     0.273 C 
HETATM    2  N   UNL     1      44.210 -11.070   8.398  1.00  0.00    -0.347 N 
HETATM    3  O   UNL     1      45.344  -9.176   9.042  1.00  0.00    -0.266 OA
HETATM    4  H   UNL     1      43.444 -11.660   8.712  1.00  0.00     0.163 HD
ENDROOT
BRANCH   1   5
HETATM    5  C   UNL     1      43.965 -10.291  10.627  1.00  0.00     0.157 A 
HETATM    6  C   UNL     1      43.338  -9.299  11.439  1.00  0.00     0.029 A 
HETATM    7  C   UNL     1      43.083  -7.916  11.339  1.00  0.00     0.023 A 
HETATM    8  C   UNL     1      42.928  -9.973  12.582  1.00  0.00     0.063 A 
HETATM    9  C   UNL     1      42.428  -7.255  12.392  1.00  0.00    -0.061 A 
HETATM   10  C   UNL     1      42.160  -5.779  12.313  1.00  0.00     0.048 C 
HETATM   11  C   UNL     1      42.032  -7.974  13.527  1.00  0.00     0.009 A 
HETATM   12  C   UNL     1      42.272  -9.348  13.645  1.00  0.00     0.032 A 
HETATM   13  N   UNL     1      43.312 -11.272  12.391  1.00  0.00    -0.277 N 
HETATM   14  H   UNL     1      43.172 -12.050  13.025  1.00  0.00     0.189 HD
HETATM   15  N   UNL     1      43.948 -11.501  11.229  1.00  0.00    -0.168 NA
ENDBRANCH   1   5
BRANCH   2  16
HETATM   16  C   UNL     1      44.560 -11.037   6.986  1.00  0.00     0.116 C 
HETATM   17  C   UNL     1      46.076 -11.070   6.765  1.00  0.00     0.037 C 
BRANCH  16  18
HETATM   18  C   UNL     1      43.918 -12.204   6.241  1.00  0.00    -0.002 A 
HETATM   19  C   UNL     1      43.341 -12.029   4.969  1.00  0.00     0.076 A 
HETATM   20  C   UNL     1      42.781 -13.128   4.309  1.00  0.00     0.038 A 
HETATM   21  C   UNL     1      42.805 -14.399   4.890  1.00  0.00     0.009 A 
HETATM   22  C   UNL     1      43.396 -14.597   6.137  1.00  0.00    -0.061 A 
HETATM   23  C   UNL     1      43.435 -15.956   6.770  1.00  0.00     0.048 C 
HETATM   24  C   UNL     1      43.951 -13.499   6.802  1.00  0.00     0.018 A 
BRANCH  19  25
HETATM   25  O   UNL     1      43.379 -10.758   4.458  1.00  0.00    -0.355 OA
HETATM   26  C   UNL     1      42.144 -10.160   4.087  1.00  0.00     0.210 C 
ENDBRANCH  19  25
ENDBRANCH  16  18
ENDBRANCH   2  16
TORSDOF 4
ENDMDL
