MODEL 1
REMARK VINA RESULT:      -8.7      0.000      0.000
REMARK  4 active torsions:
REMARK  status: ('A' for Active; 'I' for Inactive)
REMARK    1  A    between atoms: C_5  and  C_6 
REMARK    2  A    between atoms: C_6  and  N_7 
REMARK    3  A    between atoms: C_6  and  C_18 
REMARK    4  A    between atoms: N_7  and  C_8 
ROOT
HETATM    1  C   UNL     1      43.137 -16.952   3.489  1.00  0.00     0.290 C 
ENDROOT
BRANCH   1   2
HETATM    2  C   UNL     1      42.848 -16.535   4.920  1.00  0.00     0.021 A 
HETATM    3  C   UNL     1      41.550 -16.350   5.425  1.00  0.00     0.055 A 
HETATM    4  C   UNL     1      41.360 -15.987   6.758  1.00  0.00     0.117 A 
HETATM    5  C   UNL     1      42.436 -15.810   7.618  1.00  0.00     0.045 A 
HETATM    6  F   UNL     1      40.114 -15.804   7.212  1.00  0.00    -0.206 F 
HETATM    7  C   UNL     1      43.729 -15.999   7.138  1.00  0.00     0.046 A 
HETATM    8  C   UNL     1      43.923 -16.359   5.806  1.00  0.00     0.125 A 
HETATM    9  F   UNL     1      45.179 -16.520   5.362  1.00  0.00    -0.205 F 
ENDBRANCH   1   2
BRANCH   1  10
HETATM   10  N   UNL     1      42.103 -16.579   2.496  1.00  0.00     0.101 N 
HETATM   11  H   UNL     1      41.313 -16.190   3.014  1.00  0.00     0.317 HD
BRANCH  10  12
HETATM   12  C   UNL     1      42.509 -15.666   1.419  1.00  0.00     0.225 C 
HETATM   13  C   UNL     1      43.446 -14.601   2.042  1.00  0.00     0.069 C 
HETATM   14  C   UNL     1      42.661 -13.670   2.954  1.00  0.00     0.190 C 
HETATM   15  N   UNL     1      41.584 -12.998   2.139  1.00  0.00    -0.067 N 
HETATM   16  C   UNL     1      43.394 -12.466   3.511  1.00  0.00     0.035 C 
HETATM   17  H   UNL     1      42.028 -12.536   1.333  1.00  0.00     0.280 HD
HETATM   18  C   UNL     1      40.587 -13.979   1.606  1.00  0.00     0.237 C 
HETATM   19  C   UNL     1      41.060 -11.895   3.020  1.00  0.00     0.235 C 
HETATM   20  C   UNL     1      41.335 -14.960   0.705  1.00  0.00     0.063 C 
HETATM   21  C   UNL     1      42.255 -11.521   3.899  1.00  0.00     0.030 C 
ENDBRANCH  10  12
ENDBRANCH   1  10
BRANCH   1  22
HETATM   22  C   UNL     1      43.444 -18.440   3.344  1.00  0.00    -0.018 A 
HETATM   23  C   UNL     1      43.256 -19.074   2.106  1.00  0.00     0.029 A 
HETATM   24  C   UNL     1      43.510 -20.432   1.999  1.00  0.00     0.116 A 
HETATM   25  N   UNL     1      43.926 -21.198   3.026  1.00  0.00    -0.273 NA
HETATM   26  C   UNL     1      44.111 -20.581   4.210  1.00  0.00     0.116 A 
HETATM   27  C   UNL     1      43.880 -19.229   4.418  1.00  0.00     0.029 A 
ENDBRANCH   1  22
TORSDOF 4
ENDMDL
MODEL 2
REMARK VINA RESULT:      -8.5      2.287      5.048
REMARK  4 active torsions:
REMARK  status: ('A' for Active; 'I' for Inactive)
REMARK    1  A    between atoms: C_5  and  C_6 
REMARK    2  A    between atoms: C_6  and  N_7 
REMARK    3  A    between atoms: C_6  and  C_18 
REMARK    4  A    between atoms: N_7  and  C_8 
ROOT
HETATM    1  C   UNL     1      41.941 -14.834   4.188  1.00  0.00     0.290 C 
ENDROOT
BRANCH   1   2
HETATM    2  C   UNL     1      42.615 -16.133   4.593  1.00  0.00     0.021 A 
HETATM    3  C   UNL     1      43.452 -16.871   3.738  1.00  0.00     0.055 A 
HETATM    4  C   UNL     1      44.054 -18.045   4.187  1.00  0.00     0.117 A 
HETATM    5  C   UNL     1      43.855 -18.510   5.481  1.00  0.00     0.045 A 
HETATM    6  F   UNL     1      44.836 -18.738   3.350  1.00  0.00    -0.206 F 
HETATM    7  C   UNL     1      43.038 -17.787   6.346  1.00  0.00     0.046 A 
HETATM    8  C   UNL     1      42.431 -16.614   5.900  1.00  0.00     0.125 A 
HETATM    9  F   UNL     1      41.636 -15.942   6.746  1.00  0.00    -0.205 F 
ENDBRANCH   1   2
BRANCH   1  10
HETATM   10  N   UNL     1      41.450 -14.781   2.791  1.00  0.00     0.101 N 
HETATM   11  H   UNL     1      41.933 -15.516   2.272  1.00  0.00     0.317 HD
BRANCH  10  12
HETATM   12  C   UNL     1      39.997 -14.883   2.591  1.00  0.00     0.225 C 
HETATM   13  C   UNL     1      39.763 -15.414   1.156  1.00  0.00     0.069 C 
HETATM   14  C   UNL     1      40.140 -14.357   0.129  1.00  0.00     0.190 C 
HETATM   15  N   UNL     1      39.295 -13.130   0.372  1.00  0.00    -0.067 N 
HETATM   16  C   UNL     1      39.811 -14.650  -1.321  1.00  0.00     0.035 C 
HETATM   17  H   UNL     1      38.305 -13.412   0.354  1.00  0.00     0.280 HD
HETATM   18  C   UNL     1      39.568 -12.515   1.708  1.00  0.00     0.237 C 
HETATM   19  C   UNL     1      39.508 -12.264  -0.841  1.00  0.00     0.235 C 
HETATM   20  C   UNL     1      39.234 -13.554   2.777  1.00  0.00     0.063 C 
HETATM   21  C   UNL     1      39.813 -13.260  -1.961  1.00  0.00     0.030 C 
ENDBRANCH  10  12
ENDBRANCH   1  10
BRANCH   1  22
HETATM   22  C   UNL     1      42.800 -13.600   4.454  1.00  0.00    -0.018 A 
HETATM   23  C   UNL     1      43.194 -12.781   3.385  1.00  0.00     0.029 A 
HETATM   24  C   UNL     1      44.000 -11.682   3.640  1.00  0.00     0.116 A 
HETATM   25  N   UNL     1      44.442 -11.347   4.867  1.00  0.00    -0.273 NA
HETATM   26  C   UNL     1      44.054 -12.135   5.889  1.00  0.00     0.116 A 
HETATM   27  C   UNL     1      43.253 -13.258   5.736  1.00  0.00     0.029 A 
ENDBRANCH   1  22
TORSDOF 4
ENDMDL
MODEL 3
REMARK VINA RESULT:      -8.2      1.152      2.455
REMARK  4 active torsions:
REMARK  status: ('A' for Active; 'I' for Inactive)
REMARK    1  A    between atoms: C_5  and  C_6 
REMARK    2  A    between atoms: C_6  and  N_7 
REMARK    3  A    between atoms: C_6  and  C_18 
REMARK    4  A    between atoms: N_7  and  C_8 
ROOT
HETATM    1  C   UNL     1      43.341 -16.746   3.570  1.00  0.00     0.290 C 
ENDROOT
BRANCH   1   2
HETATM    2  C   UNL     1      42.896 -16.397   4.979  1.00  0.00     0.021 A 
HETATM    3  C   UNL     1      41.550 -16.371   5.382  1.00  0.00     0.055 A 
HETATM    4  C   UNL     1      41.217 -16.063   6.700  1.00  0.00     0.117 A 
HETATM    5  C   UNL     1      42.196 -15.784   7.646  1.00  0.00     0.045 A 
HETATM    6  F   UNL     1      39.927 -16.033   7.057  1.00  0.00    -0.206 F 
HETATM    7  C   UNL     1      43.536 -15.814   7.267  1.00  0.00     0.046 A 
HETATM    8  C   UNL     1      43.872 -16.119   5.949  1.00  0.00     0.125 A 
HETATM    9  F   UNL     1      45.169 -16.127   5.605  1.00  0.00    -0.205 F 
ENDBRANCH   1   2
BRANCH   1  10
HETATM   10  N   UNL     1      42.537 -16.143   2.481  1.00  0.00     0.101 N 
HETATM   11  H   UNL     1      42.264 -16.899   1.852  1.00  0.00     0.317 HD
BRANCH  10  12
HETATM   12  C   UNL     1      41.359 -15.357   2.878  1.00  0.00     0.225 C 
HETATM   13  C   UNL     1      40.271 -15.574   1.798  1.00  0.00     0.069 C 
HETATM   14  C   UNL     1      40.668 -14.894   0.497  1.00  0.00     0.190 C 
HETATM   15  N   UNL     1      40.847 -13.420   0.762  1.00  0.00    -0.067 N 
HETATM   16  C   UNL     1      39.637 -14.864  -0.613  1.00  0.00     0.035 C 
HETATM   17  H   UNL     1      39.981 -13.060   1.187  1.00  0.00     0.280 HD
HETATM   18  C   UNL     1      41.966 -13.152   1.719  1.00  0.00     0.237 C 
HETATM   19  C   UNL     1      40.941 -12.787  -0.601  1.00  0.00     0.235 C 
HETATM   20  C   UNL     1      41.627 -13.845   3.038  1.00  0.00     0.063 C 
HETATM   21  C   UNL     1      40.120 -13.714  -1.499  1.00  0.00     0.030 C 
ENDBRANCH  10  12
ENDBRANCH   1  10
BRANCH   1  22
HETATM   22  C   UNL     1      43.450 -18.248   3.326  1.00  0.00    -0.018 A 
HETATM   23  C   UNL     1      44.010 -19.076   4.311  1.00  0.00     0.029 A 
HETATM   24  C   UNL     1      44.130 -20.434   4.062  1.00  0.00     0.116 A 
HETATM   25  N   UNL     1      43.743 -21.020   2.913  1.00  0.00    -0.273 NA
HETATM   26  C   UNL     1      43.201 -20.220   1.974  1.00  0.00     0.116 A 
HETATM   27  C   UNL     1      43.042 -18.850   2.127  1.00  0.00     0.029 A 
ENDBRANCH   1  22
TORSDOF 4
ENDMDL
MODEL 4
REMARK VINA RESULT:      -8.0      2.572      4.665
REMARK  4 active torsions:
REMARK  status: ('A' for Active; 'I' for Inactive)
REMARK    1  A    between atoms: C_5  and  C_6 
REMARK    2  A    between atoms: C_6  and  N_7 
REMARK    3  A    between atoms: C_6  and  C_18 
REMARK    4  A    between atoms: N_7  and  C_8 
ROOT
HETATM    1  C   UNL     1      42.829 -14.716   3.678  1.00  0.00     0.290 C 
ENDROOT
BRANCH   1   2
HETATM    2  C   UNL     1      43.223 -16.051   4.286  1.00  0.00     0.021 A 
HETATM    3  C   UNL     1      43.117 -16.339   5.657  1.00  0.00     0.055 A 
HETATM    4  C   UNL     1      43.478 -17.596   6.140  1.00  0.00     0.117 A 
HETATM    5  C   UNL     1      43.940 -18.591   5.288  1.00  0.00     0.045 A 
HETATM    6  F   UNL     1      43.380 -17.842   7.452  1.00  0.00    -0.206 F 
HETATM    7  C   UNL     1      44.043 -18.327   3.925  1.00  0.00     0.046 A 
HETATM    8  C   UNL     1      43.685 -17.071   3.439  1.00  0.00     0.125 A 
HETATM    9  F   UNL     1      43.808 -16.834   2.124  1.00  0.00    -0.205 F 
ENDBRANCH   1   2
BRANCH   1  10
HETATM   10  N   UNL     1      42.396 -13.680   4.645  1.00  0.00     0.101 N 
HETATM   11  H   UNL     1      42.898 -13.852   5.518  1.00  0.00     0.317 HD
BRANCH  10  12
HETATM   12  C   UNL     1      42.551 -12.277   4.234  1.00  0.00     0.225 C 
HETATM   13  C   UNL     1      44.034 -11.891   4.451  1.00  0.00     0.069 C 
HETATM   14  C   UNL     1      44.352 -11.811   5.936  1.00  0.00     0.190 C 
HETATM   15  N   UNL     1      43.451 -10.778   6.565  1.00  0.00    -0.067 N 
HETATM   16  C   UNL     1      45.717 -11.279   6.326  1.00  0.00     0.035 C 
HETATM   17  H   UNL     1      43.569  -9.892   6.053  1.00  0.00     0.280 HD
HETATM   18  C   UNL     1      42.008 -11.162   6.478  1.00  0.00     0.237 C 
HETATM   19  C   UNL     1      44.021 -10.547   7.939  1.00  0.00     0.235 C 
HETATM   20  C   UNL     1      41.646 -11.286   5.000  1.00  0.00     0.063 C 
HETATM   21  C   UNL     1      45.513 -10.843   7.778  1.00  0.00     0.030 C 
ENDBRANCH  10  12
ENDBRANCH   1  10
BRANCH   1  22
HETATM   22  C   UNL     1      41.771 -14.840   2.585  1.00  0.00    -0.018 A 
HETATM   23  C   UNL     1      40.628 -15.623   2.806  1.00  0.00     0.029 A 
HETATM   24  C   UNL     1      39.691 -15.750   1.791  1.00  0.00     0.116 A 
HETATM   25  N   UNL     1      39.813 -15.166   0.584  1.00  0.00    -0.273 NA
HETATM   26  C   UNL     1      40.911 -14.410   0.382  1.00  0.00     0.116 A 
HETATM   27  C   UNL     1      41.905 -14.225   1.332  1.00  0.00     0.029 A 
ENDBRANCH   1  22
TORSDOF 4
ENDMDL
MODEL 5
REMARK VINA RESULT:      -8.0      2.017      5.995
REMARK  4 active torsions:
REMARK  status: ('A' for Active; 'I' for Inactive)
REMARK    1  A    between atoms: C_5  and  C_6 
REMARK    2  A    between atoms: C_6  and  N_7 
REMARK    3  A    between atoms: C_6  and  C_18 
REMARK    4  A    between atoms: N_7  and  C_8 
ROOT
HETATM    1  C   UNL     1      41.141 -14.827   3.786  1.00  0.00     0.290 C 
ENDROOT
BRANCH   1   2
HETATM    2  C   UNL     1      42.016 -13.739   4.384  1.00  0.00     0.021 A 
HETATM    3  C   UNL     1      42.997 -13.046   3.654  1.00  0.00     0.055 A 
HETATM    4  C   UNL     1      43.748 -12.043   4.264  1.00  0.00     0.117 A 
HETATM    5  C   UNL     1      43.545 -11.696   5.594  1.00  0.00     0.045 A 
HETATM    6  F   UNL     1      44.686 -11.406   3.551  1.00  0.00    -0.206 F 
HETATM    7  C   UNL     1      42.570 -12.364   6.330  1.00  0.00     0.046 A 
HETATM    8  C   UNL     1      41.819 -13.370   5.724  1.00  0.00     0.125 A 
HETATM    9  F   UNL     1      40.896 -14.010   6.458  1.00  0.00    -0.205 F 
ENDBRANCH   1   2
BRANCH   1  10
HETATM   10  N   UNL     1      41.774 -16.162   3.674  1.00  0.00     0.101 N 
HETATM   11  H   UNL     1      41.359 -16.627   2.865  1.00  0.00     0.317 HD
BRANCH  10  12
HETATM   12  C   UNL     1      43.241 -16.199   3.588  1.00  0.00     0.225 C 
HETATM   13  C   UNL     1      43.618 -17.284   2.550  1.00  0.00     0.069 C 
HETATM   14  C   UNL     1      43.308 -18.671   3.092  1.00  0.00     0.190 C 
HETATM   15  N   UNL     1      44.094 -18.876   4.363  1.00  0.00    -0.067 N 
HETATM   16  C   UNL     1      43.773 -19.857   2.272  1.00  0.00     0.035 C 
HETATM   17  H   UNL     1      45.089 -18.708   4.158  1.00  0.00     0.280 HD
HETATM   18  C   UNL     1      43.686 -17.918   5.438  1.00  0.00     0.237 C 
HETATM   19  C   UNL     1      43.969 -20.345   4.667  1.00  0.00     0.235 C 
HETATM   20  C   UNL     1      43.950 -16.503   4.926  1.00  0.00     0.063 C 
HETATM   21  C   UNL     1      43.792 -20.995   3.294  1.00  0.00     0.030 C 
ENDBRANCH  10  12
ENDBRANCH   1  10
BRANCH   1  22
HETATM   22  C   UNL     1      40.548 -14.448   2.432  1.00  0.00    -0.018 A 
HETATM   23  C   UNL     1      40.590 -15.366   1.371  1.00  0.00     0.029 A 
HETATM   24  C   UNL     1      40.075 -14.996   0.139  1.00  0.00     0.116 A 
HETATM   25  N   UNL     1      39.533 -13.789  -0.113  1.00  0.00    -0.273 NA
HETATM   26  C   UNL     1      39.490 -12.915   0.913  1.00  0.00     0.116 A 
HETATM   27  C   UNL     1      39.983 -13.190   2.181  1.00  0.00     0.029 A 
ENDBRANCH   1  22
TORSDOF 4
ENDMDL
MODEL 6
REMARK VINA RESULT:      -8.0      3.662      6.730
REMARK  4 active torsions:
REMARK  status: ('A' for Active; 'I' for Inactive)
REMARK    1  A    between atoms: C_5  and  C_6 
REMARK    2  A    between atoms: C_6  and  N_7 
REMARK    3  A    between atoms: C_6  and  C_18 
REMARK    4  A    between atoms: N_7  and  C_8 
ROOT
HETATM    1  C   UNL     1      43.402 -12.310   6.687  1.00  0.00     0.290 C 
ENDROOT
BRANCH   1   2
HETATM    2  C   UNL     1      44.225 -11.333   7.509  1.00  0.00     0.021 A 
HETATM    3  C   UNL     1      43.774 -10.760   8.710  1.00  0.00     0.055 A 
HETATM    4  C   UNL     1      44.594  -9.887   9.423  1.00  0.00     0.117 A 
HETATM    5  C   UNL     1      45.871  -9.569   8.976  1.00  0.00     0.045 A 
HETATM    6  F   UNL     1      44.137  -9.344  10.559  1.00  0.00    -0.206 F 
HETATM    7  C   UNL     1      46.338 -10.135   7.793  1.00  0.00     0.046 A 
HETATM    8  C   UNL     1      45.519 -11.006   7.076  1.00  0.00     0.125 A 
HETATM    9  F   UNL     1      45.986 -11.526   5.931  1.00  0.00    -0.205 F 
ENDBRANCH   1   2
BRANCH   1  10
HETATM   10  N   UNL     1      43.982 -13.665   6.541  1.00  0.00     0.101 N 
HETATM   11  H   UNL     1      44.927 -13.633   6.927  1.00  0.00     0.317 HD
BRANCH  10  12
HETATM   12  C   UNL     1      43.228 -14.781   7.129  1.00  0.00     0.225 C 
HETATM   13  C   UNL     1      43.951 -16.091   6.732  1.00  0.00     0.069 C 
HETATM   14  C   UNL     1      43.786 -16.361   5.244  1.00  0.00     0.190 C 
HETATM   15  N   UNL     1      42.313 -16.469   4.937  1.00  0.00    -0.067 N 
HETATM   16  C   UNL     1      44.289 -17.691   4.720  1.00  0.00     0.035 C 
HETATM   17  H   UNL     1      41.908 -17.190   5.551  1.00  0.00     0.280 HD
HETATM   18  C   UNL     1      41.588 -15.188   5.201  1.00  0.00     0.237 C 
HETATM   19  C   UNL     1      42.247 -17.023   3.539  1.00  0.00     0.235 C 
HETATM   20  C   UNL     1      41.751 -14.856   6.683  1.00  0.00     0.063 C 
HETATM   21  C   UNL     1      43.525 -17.852   3.405  1.00  0.00     0.030 C 
ENDBRANCH  10  12
ENDBRANCH   1  10
BRANCH   1  22
HETATM   22  C   UNL     1      43.040 -11.778   5.303  1.00  0.00    -0.018 A 
HETATM   23  C   UNL     1      43.449 -12.479   4.158  1.00  0.00     0.029 A 
HETATM   24  C   UNL     1      43.139 -11.967   2.908  1.00  0.00     0.116 A 
HETATM   25  N   UNL     1      42.465 -10.817   2.717  1.00  0.00    -0.273 NA
HETATM   26  C   UNL     1      42.070 -10.153   3.821  1.00  0.00     0.116 A 
HETATM   27  C   UNL     1      42.335 -10.581   5.114  1.00  0.00     0.029 A 
ENDBRANCH   1  22
TORSDOF 4
ENDMDL
MODEL 7
REMARK VINA RESULT:      -7.9      2.752      5.140
REMARK  4 active torsions:
REMARK  status: ('A' for Active; 'I' for Inactive)
REMARK    1  A    between atoms: C_5  and  C_6 
REMARK    2  A    between atoms: C_6  and  N_7 
REMARK    3  A    between atoms: C_6  and  C_18 
REMARK    4  A    between atoms: N_7  and  C_8 
ROOT
HETATM    1  C   UNL     1      42.248 -13.616   2.257  1.00  0.00     0.290 C 
ENDROOT
BRANCH   1   2
HETATM    2  C   UNL     1      42.478 -14.931   2.981  1.00  0.00     0.021 A 
HETATM    3  C   UNL     1      41.858 -15.265   4.197  1.00  0.00     0.055 A 
HETATM    4  C   UNL     1      42.101 -16.501   4.793  1.00  0.00     0.117 A 
HETATM    5  C   UNL     1      42.945 -17.433   4.203  1.00  0.00     0.045 A 
HETATM    6  F   UNL     1      41.508 -16.790   5.958  1.00  0.00    -0.206 F 
HETATM    7  C   UNL     1      43.561 -17.124   2.993  1.00  0.00     0.046 A 
HETATM    8  C   UNL     1      43.323 -15.888   2.396  1.00  0.00     0.125 A 
HETATM    9  F   UNL     1      43.939 -15.607   1.238  1.00  0.00    -0.205 F 
ENDBRANCH   1   2
BRANCH   1  10
HETATM   10  N   UNL     1      41.803 -12.489   3.111  1.00  0.00     0.101 N 
HETATM   11  H   UNL     1      41.712 -12.849   4.063  1.00  0.00     0.317 HD
BRANCH  10  12
HETATM   12  C   UNL     1      42.633 -11.276   3.099  1.00  0.00     0.225 C 
HETATM   13  C   UNL     1      43.940 -11.600   3.863  1.00  0.00     0.069 C 
HETATM   14  C   UNL     1      43.661 -11.766   5.350  1.00  0.00     0.190 C 
HETATM   15  N   UNL     1      43.061 -10.484   5.871  1.00  0.00    -0.067 N 
HETATM   16  C   UNL     1      44.858 -11.918   6.267  1.00  0.00     0.035 C 
HETATM   17  H   UNL     1      43.700  -9.710   5.638  1.00  0.00     0.280 HD
HETATM   18  C   UNL     1      41.738 -10.185   5.240  1.00  0.00     0.237 C 
HETATM   19  C   UNL     1      43.094 -10.619   7.370  1.00  0.00     0.235 C 
HETATM   20  C   UNL     1      41.961 -10.039   3.736  1.00  0.00     0.063 C 
HETATM   21  C   UNL     1      44.293 -11.533   7.635  1.00  0.00     0.030 C 
ENDBRANCH  10  12
ENDBRANCH   1  10
BRANCH   1  22
HETATM   22  C   UNL     1      41.296 -13.738   1.070  1.00  0.00    -0.018 A 
HETATM   23  C   UNL     1      41.091 -12.638   0.224  1.00  0.00     0.029 A 
HETATM   24  C   UNL     1      40.199 -12.756  -0.831  1.00  0.00     0.116 A 
HETATM   25  N   UNL     1      39.500 -13.876  -1.097  1.00  0.00    -0.273 NA
HETATM   26  C   UNL     1      39.707 -14.930  -0.284  1.00  0.00     0.116 A 
HETATM   27  C   UNL     1      40.574 -14.910   0.799  1.00  0.00     0.029 A 
ENDBRANCH   1  22
TORSDOF 4
ENDMDL
MODEL 8
REMARK VINA RESULT:      -7.8      2.395      5.198
REMARK  4 active torsions:
REMARK  status: ('A' for Active; 'I' for Inactive)
REMARK    1  A    between atoms: C_5  and  C_6 
REMARK    2  A    between atoms: C_6  and  N_7 
REMARK    3  A    between atoms: C_6  and  C_18 
REMARK    4  A    between atoms: N_7  and  C_8 
ROOT
HETATM    1  C   UNL     1      41.778 -14.826   3.255  1.00  0.00     0.290 C 
ENDROOT
BRANCH   1   2
HETATM    2  C   UNL     1      42.559 -16.089   3.572  1.00  0.00     0.021 A 
HETATM    3  C   UNL     1      42.685 -16.618   4.868  1.00  0.00     0.055 A 
HETATM    4  C   UNL     1      43.400 -17.795   5.079  1.00  0.00     0.117 A 
HETATM    5  C   UNL     1      43.994 -18.478   4.025  1.00  0.00     0.045 A 
HETATM    6  F   UNL     1      43.517 -18.272   6.325  1.00  0.00    -0.206 F 
HETATM    7  C   UNL     1      43.871 -17.975   2.733  1.00  0.00     0.046 A 
HETATM    8  C   UNL     1      43.159 -16.797   2.518  1.00  0.00     0.125 A 
HETATM    9  F   UNL     1      43.068 -16.323   1.266  1.00  0.00    -0.205 F 
ENDBRANCH   1   2
BRANCH   1  10
HETATM   10  N   UNL     1      41.436 -14.630   1.827  1.00  0.00     0.101 N 
HETATM   11  H   UNL     1      41.804 -15.434   1.315  1.00  0.00     0.317 HD
BRANCH  10  12
HETATM   12  C   UNL     1      40.017 -14.423   1.503  1.00  0.00     0.225 C 
HETATM   13  C   UNL     1      39.817 -14.817   0.019  1.00  0.00     0.069 C 
HETATM   14  C   UNL     1      40.491 -13.806  -0.896  1.00  0.00     0.190 C 
HETATM   15  N   UNL     1      39.888 -12.448  -0.636  1.00  0.00    -0.067 N 
HETATM   16  C   UNL     1      40.248 -13.949  -2.385  1.00  0.00     0.035 C 
HETATM   17  H   UNL     1      38.867 -12.520  -0.753  1.00  0.00     0.280 HD
HETATM   18  C   UNL     1      40.151 -11.974   0.759  1.00  0.00     0.237 C 
HETATM   19  C   UNL     1      40.381 -11.580  -1.763  1.00  0.00     0.235 C 
HETATM   20  C   UNL     1      39.519 -12.977   1.720  1.00  0.00     0.063 C 
HETATM   21  C   UNL     1      40.586 -12.557  -2.923  1.00  0.00     0.030 C 
ENDBRANCH  10  12
ENDBRANCH   1  10
BRANCH   1  22
HETATM   22  C   UNL     1      42.445 -13.557   3.779  1.00  0.00    -0.018 A 
HETATM   23  C   UNL     1      43.351 -12.858   2.966  1.00  0.00     0.029 A 
HETATM   24  C   UNL     1      43.972 -11.725   3.467  1.00  0.00     0.116 A 
HETATM   25  N   UNL     1      43.764 -11.247   4.708  1.00  0.00    -0.273 NA
HETATM   26  C   UNL     1      42.888 -11.919   5.482  1.00  0.00     0.116 A 
HETATM   27  C   UNL     1      42.220 -13.064   5.072  1.00  0.00     0.029 A 
ENDBRANCH   1  22
TORSDOF 4
ENDMDL
MODEL 9
REMARK VINA RESULT:      -7.8     13.819     15.793
REMARK  4 active torsions:
REMARK  status: ('A' for Active; 'I' for Inactive)
REMARK    1  A    between atoms: C_5  and  C_6 
REMARK    2  A    between atoms: C_6  and  N_7 
REMARK    3  A    between atoms: C_6  and  C_18 
REMARK    4  A    between atoms: N_7  and  C_8 
ROOT
HETATM    1  C   UNL     1      44.722 -29.381   0.109  1.00  0.00     0.290 C 
ENDROOT
BRANCH   1   2
HETATM    2  C   UNL     1      44.577 -29.616  -1.385  1.00  0.00     0.021 A 
HETATM    3  C   UNL     1      44.287 -30.870  -1.948  1.00  0.00     0.055 A 
HETATM    4  C   UNL     1      44.147 -31.005  -3.328  1.00  0.00     0.117 A 
HETATM    5  C   UNL     1      44.278 -29.914  -4.177  1.00  0.00     0.045 A 
HETATM    6  F   UNL     1      43.884 -32.214  -3.841  1.00  0.00    -0.206 F 
HETATM    7  C   UNL     1      44.555 -28.661  -3.637  1.00  0.00     0.046 A 
HETATM    8  C   UNL     1      44.699 -28.522  -2.257  1.00  0.00     0.125 A 
HETATM    9  F   UNL     1      44.981 -27.308  -1.762  1.00  0.00    -0.205 F 
ENDBRANCH   1   2
BRANCH   1  10
HETATM   10  N   UNL     1      46.067 -29.653   0.667  1.00  0.00     0.101 N 
HETATM   11  H   UNL     1      46.472 -30.416   0.123  1.00  0.00     0.317 HD
BRANCH  10  12
HETATM   12  C   UNL     1      47.002 -28.521   0.736  1.00  0.00     0.225 C 
HETATM   13  C   UNL     1      48.026 -28.694  -0.413  1.00  0.00     0.069 C 
HETATM   14  C   UNL     1      48.948 -29.870  -0.131  1.00  0.00     0.190 C 
HETATM   15  N   UNL     1      49.668 -29.614   1.169  1.00  0.00    -0.067 N 
HETATM   16  C   UNL     1      50.118 -30.076  -1.072  1.00  0.00     0.035 C 
HETATM   17  H   UNL     1      50.143 -28.702   1.102  1.00  0.00     0.280 HD
HETATM   18  C   UNL     1      48.726 -29.548   2.330  1.00  0.00     0.237 C 
HETATM   19  C   UNL     1      50.757 -30.652   1.224  1.00  0.00     0.235 C 
HETATM   20  C   UNL     1      47.755 -28.397   2.078  1.00  0.00     0.063 C 
HETATM   21  C   UNL     1      51.078 -30.933  -0.245  1.00  0.00     0.030 C 
ENDBRANCH  10  12
ENDBRANCH   1  10
BRANCH   1  22
HETATM   22  C   UNL     1      43.684 -30.130   0.940  1.00  0.00    -0.018 A 
HETATM   23  C   UNL     1      42.457 -29.518   1.241  1.00  0.00     0.029 A 
HETATM   24  C   UNL     1      41.538 -30.199   2.023  1.00  0.00     0.116 A 
HETATM   25  N   UNL     1      41.752 -31.429   2.528  1.00  0.00    -0.273 NA
HETATM   26  C   UNL     1      42.930 -32.013   2.231  1.00  0.00     0.116 A 
HETATM   27  C   UNL     1      43.915 -31.412   1.460  1.00  0.00     0.029 A 
ENDBRANCH   1  22
TORSDOF 4
ENDMDL
MODEL 10
REMARK VINA RESULT:      -7.6     13.645     15.703
REMARK  4 active torsions:
REMARK  status: ('A' for Active; 'I' for Inactive)
REMARK    1  A    between atoms: C_5  and  C_6 
REMARK    2  A    between atoms: C_6  and  N_7 
REMARK    3  A    between atoms: C_6  and  C_18 
REMARK    4  A    between atoms: N_7  and  C_8 
ROOT
HETATM    1  C   UNL     1      45.358 -29.664  -0.491  1.00  0.00     0.290 C 
ENDROOT
BRANCH   1   2
HETATM    2  C   UNL     1      44.873 -29.971  -1.897  1.00  0.00     0.021 A 
HETATM    3  C   UNL     1      44.581 -31.269  -2.349  1.00  0.00     0.055 A 
HETATM    4  C   UNL     1      44.119 -31.472  -3.649  1.00  0.00     0.117 A 
HETATM    5  C   UNL     1      43.928 -30.408  -4.522  1.00  0.00     0.045 A 
HETATM    6  F   UNL     1      43.859 -32.719  -4.060  1.00  0.00    -0.206 F 
HETATM    7  C   UNL     1      44.204 -29.114  -4.088  1.00  0.00     0.046 A 
HETATM    8  C   UNL     1      44.668 -28.907  -2.790  1.00  0.00     0.125 A 
HETATM    9  F   UNL     1      44.941 -27.653  -2.400  1.00  0.00    -0.205 F 
ENDBRANCH   1   2
BRANCH   1  10
HETATM   10  N   UNL     1      46.685 -30.221  -0.139  1.00  0.00     0.101 N 
HETATM   11  H   UNL     1      46.825 -31.055  -0.712  1.00  0.00     0.317 HD
BRANCH  10  12
HETATM   12  C   UNL     1      47.839 -29.319  -0.259  1.00  0.00     0.225 C 
HETATM   13  C   UNL     1      49.057 -30.036   0.374  1.00  0.00     0.069 C 
HETATM   14  C   UNL     1      48.895 -30.128   1.884  1.00  0.00     0.190 C 
HETATM   15  N   UNL     1      48.772 -28.731   2.438  1.00  0.00    -0.067 N 
HETATM   16  C   UNL     1      50.076 -30.651   2.677  1.00  0.00     0.035 C 
HETATM   17  H   UNL     1      49.589 -28.186   2.127  1.00  0.00     0.280 HD
HETATM   18  C   UNL     1      47.546 -28.034   1.940  1.00  0.00     0.237 C 
HETATM   19  C   UNL     1      48.917 -28.889   3.929  1.00  0.00     0.235 C 
HETATM   20  C   UNL     1      47.646 -27.944   0.419  1.00  0.00     0.063 C 
HETATM   21  C   UNL     1      49.799 -30.128   4.088  1.00  0.00     0.030 C 
ENDBRANCH  10  12
ENDBRANCH   1  10
BRANCH   1  22
HETATM   22  C   UNL     1      44.357 -30.060   0.592  1.00  0.00    -0.018 A 
HETATM   23  C   UNL     1      43.082 -29.475   0.610  1.00  0.00     0.029 A 
HETATM   24  C   UNL     1      42.195 -29.821   1.618  1.00  0.00     0.116 A 
HETATM   25  N   UNL     1      42.486 -30.694   2.601  1.00  0.00    -0.273 NA
HETATM   26  C   UNL     1      43.710 -31.257   2.573  1.00  0.00     0.116 A 
HETATM   27  C   UNL     1      44.668 -30.972   1.610  1.00  0.00     0.029 A 
ENDBRANCH   1  22
TORSDOF 4
ENDMDL
