MODEL 1
REMARK VINA RESULT:      -8.9      0.000      0.000
REMARK  5 active torsions:
REMARK  status: ('A' for Active; 'I' for Inactive)
REMARK    1  A    between atoms: C_9  and  N_10 
REMARK       I    between atoms: N_10  and  C_11 
REMARK    2  A    between atoms: C_11  and  C_12 
REMARK    3  A    between atoms: C_15  and  O_16 
REMARK    4  A    between atoms: O_16  and  C_17 
REMARK    5  A    between atoms: C_17  and  C_18 
ROOT
HETATM    1  C   UNL     1      42.830 -14.065   3.212  1.00  0.00    -0.013 A 
HETATM    2  C   UNL     1      42.642 -15.094   4.156  1.00  0.00     0.053 A 
HETATM    3  C   UNL     1      42.255 -14.811   5.511  1.00  0.00     0.100 C 
HETATM    4  N   UNL     1      41.952 -14.586   6.609  1.00  0.00    -0.191 NA
HETATM    5  C   UNL     1      42.840 -16.431   3.784  1.00  0.00     0.023 A 
HETATM    6  C   UNL     1      43.225 -16.753   2.482  1.00  0.00     0.002 A 
HETATM    7  C   UNL     1      43.414 -15.743   1.544  1.00  0.00     0.001 A 
HETATM    8  C   UNL     1      43.218 -14.408   1.904  1.00  0.00     0.011 A 
ENDROOT
BRANCH   1   9
HETATM    9  C   UNL     1      42.641 -12.606   3.570  1.00  0.00     0.216 C 
BRANCH   9  10
HETATM   10  O   UNL     1      43.881 -12.089   4.049  1.00  0.00    -0.347 OA
BRANCH  10  11
HETATM   11  C   UNL     1      43.890 -11.618   5.331  1.00  0.00     0.069 A 
HETATM   12  C   UNL     1      42.795 -11.084   6.006  1.00  0.00     0.038 A 
HETATM   13  C   UNL     1      42.927 -10.672   7.336  1.00  0.00     0.020 A 
HETATM   14  C   UNL     1      44.151 -10.798   8.006  1.00  0.00     0.032 A 
HETATM   15  C   UNL     1      45.258 -11.310   7.320  1.00  0.00     0.020 A 
HETATM   16  C   UNL     1      45.119 -11.727   5.991  1.00  0.00     0.038 A 
BRANCH  14  17
HETATM   17  C   UNL     1      44.206 -10.389   9.438  1.00  0.00     0.256 C 
HETATM   18  N   UNL     1      43.022  -9.893   9.964  1.00  0.00    -0.323 N 
HETATM   19  H   UNL     1      42.227  -9.846   9.340  1.00  0.00     0.169 HD
HETATM   20  O   UNL     1      45.281 -10.458  10.023  1.00  0.00    -0.267 OA
BRANCH  18  21
HETATM   21  C   UNL     1      42.843  -9.306  11.236  1.00  0.00     0.035 A 
HETATM   22  C   UNL     1      42.858  -7.927  11.458  1.00  0.00     0.039 A 
HETATM   23  C   UNL     1      42.595  -7.448  12.733  1.00  0.00    -0.022 A 
HETATM   24  C   UNL     1      42.489  -6.027  13.165  1.00  0.00     0.274 C 
HETATM   25  C   UNL     1      42.330  -8.314  13.794  1.00  0.00    -0.025 A 
HETATM   26  N   UNL     1      42.334  -6.092  14.681  1.00  0.00    -0.067 N 
HETATM   27  C   UNL     1      41.377  -5.100  15.237  1.00  0.00     0.270 C 
HETATM   28  H   UNL     1      43.268  -5.905  15.066  1.00  0.00     0.280 HD
HETATM   29  C   UNL     1      42.016  -7.542  15.029  1.00  0.00     0.273 C 
HETATM   30  C   UNL     1      42.334  -9.684  13.603  1.00  0.00     0.012 A 
HETATM   31  C   UNL     1      42.595 -10.175  12.318  1.00  0.00     0.030 A 
ENDBRANCH  18  21
ENDBRANCH  14  17
ENDBRANCH  10  11
ENDBRANCH   9  10
ENDBRANCH   1   9
TORSDOF 5
ENDMDL
MODEL 2
REMARK VINA RESULT:      -8.7      7.761     11.079
REMARK  5 active torsions:
REMARK  status: ('A' for Active; 'I' for Inactive)
REMARK    1  A    between atoms: C_9  and  N_10 
REMARK       I    between atoms: N_10  and  C_11 
REMARK    2  A    between atoms: C_11  and  C_12 
REMARK    3  A    between atoms: C_15  and  O_16 
REMARK    4  A    between atoms: O_16  and  C_17 
REMARK    5  A    between atoms: C_17  and  C_18 
ROOT
HETATM    1  C   UNL     1      43.819 -18.386   4.516  1.00  0.00    -0.013 A 
HETATM    2  C   UNL     1      43.696 -18.550   3.122  1.00  0.00     0.053 A 
HETATM    3  C   UNL     1      43.549 -17.424   2.241  1.00  0.00     0.100 C 
HETATM    4  N   UNL     1      43.420 -16.518   1.527  1.00  0.00    -0.191 NA
HETATM    5  C   UNL     1      43.710 -19.837   2.565  1.00  0.00     0.023 A 
HETATM    6  C   UNL     1      43.842 -20.960   3.382  1.00  0.00     0.002 A 
HETATM    7  C   UNL     1      43.961 -20.805   4.760  1.00  0.00     0.001 A 
HETATM    8  C   UNL     1      43.951 -19.529   5.325  1.00  0.00     0.011 A 
ENDROOT
BRANCH   1   9
HETATM    9  C   UNL     1      43.797 -17.018   5.166  1.00  0.00     0.216 C 
BRANCH   9  10
HETATM   10  O   UNL     1      42.441 -16.657   5.424  1.00  0.00    -0.347 OA
BRANCH  10  11
HETATM   11  C   UNL     1      41.910 -15.678   4.632  1.00  0.00     0.069 A 
HETATM   12  C   UNL     1      42.397 -14.379   4.512  1.00  0.00     0.038 A 
HETATM   13  C   UNL     1      41.784 -13.481   3.632  1.00  0.00     0.020 A 
HETATM   14  C   UNL     1      40.685 -13.876   2.858  1.00  0.00     0.032 A 
HETATM   15  C   UNL     1      40.179 -15.173   2.998  1.00  0.00     0.020 A 
HETATM   16  C   UNL     1      40.800 -16.070   3.875  1.00  0.00     0.038 A 
BRANCH  14  17
HETATM   17  C   UNL     1      40.114 -12.885   1.903  1.00  0.00     0.256 C 
HETATM   18  N   UNL     1      40.044 -13.301   0.582  1.00  0.00    -0.323 N 
HETATM   19  H   UNL     1      40.383 -14.231   0.374  1.00  0.00     0.169 HD
HETATM   20  O   UNL     1      39.811 -11.775   2.325  1.00  0.00    -0.267 OA
BRANCH  18  21
HETATM   21  C   UNL     1      39.686 -12.513  -0.535  1.00  0.00     0.035 A 
HETATM   22  C   UNL     1      38.382 -12.423  -1.029  1.00  0.00     0.039 A 
HETATM   23  C   UNL     1      38.121 -11.561  -2.084  1.00  0.00    -0.022 A 
HETATM   24  C   UNL     1      36.802 -11.262  -2.706  1.00  0.00     0.274 C 
HETATM   25  C   UNL     1      39.132 -10.798  -2.667  1.00  0.00    -0.025 A 
HETATM   26  N   UNL     1      37.128 -10.371  -3.900  1.00  0.00    -0.067 N 
HETATM   27  C   UNL     1      36.154  -9.269  -4.121  1.00  0.00     0.270 C 
HETATM   28  H   UNL     1      37.121 -10.989  -4.720  1.00  0.00     0.280 HD
HETATM   29  C   UNL     1      38.572  -9.913  -3.727  1.00  0.00     0.273 C 
HETATM   30  C   UNL     1      40.435 -10.889  -2.211  1.00  0.00     0.012 A 
HETATM   31  C   UNL     1      40.706 -11.754  -1.142  1.00  0.00     0.030 A 
ENDBRANCH  18  21
ENDBRANCH  14  17
ENDBRANCH  10  11
ENDBRANCH   9  10
ENDBRANCH   1   9
TORSDOF 5
ENDMDL
MODEL 3
REMARK VINA RESULT:      -8.6      1.897      2.590
REMARK  5 active torsions:
REMARK  status: ('A' for Active; 'I' for Inactive)
REMARK    1  A    between atoms: C_9  and  N_10 
REMARK       I    between atoms: N_10  and  C_11 
REMARK    2  A    between atoms: C_11  and  C_12 
REMARK    3  A    between atoms: C_15  and  O_16 
REMARK    4  A    between atoms: O_16  and  C_17 
REMARK    5  A    between atoms: C_17  and  C_18 
ROOT
HETATM    1  C   UNL     1      42.741 -16.594   4.199  1.00  0.00    -0.013 A 
HETATM    2  C   UNL     1      42.328 -17.025   2.922  1.00  0.00     0.053 A 
HETATM    3  C   UNL     1      41.291 -16.344   2.197  1.00  0.00     0.100 C 
HETATM    4  N   UNL     1      40.446 -15.803   1.612  1.00  0.00    -0.191 NA
HETATM    5  C   UNL     1      42.928 -18.147   2.334  1.00  0.00     0.023 A 
HETATM    6  C   UNL     1      43.932 -18.845   3.005  1.00  0.00     0.002 A 
HETATM    7  C   UNL     1      44.345 -18.427   4.266  1.00  0.00     0.001 A 
HETATM    8  C   UNL     1      43.755 -17.309   4.860  1.00  0.00     0.011 A 
ENDROOT
BRANCH   1   9
HETATM    9  C   UNL     1      42.115 -15.395   4.880  1.00  0.00     0.216 C 
BRANCH   9  10
HETATM   10  O   UNL     1      42.821 -14.222   4.479  1.00  0.00    -0.347 OA
BRANCH  10  11
HETATM   11  C   UNL     1      43.038 -13.281   5.446  1.00  0.00     0.069 A 
HETATM   12  C   UNL     1      43.953 -13.389   6.492  1.00  0.00     0.038 A 
HETATM   13  C   UNL     1      44.107 -12.335   7.397  1.00  0.00     0.020 A 
HETATM   14  C   UNL     1      43.357 -11.159   7.259  1.00  0.00     0.032 A 
HETATM   15  C   UNL     1      42.419 -11.061   6.225  1.00  0.00     0.020 A 
HETATM   16  C   UNL     1      42.273 -12.118   5.319  1.00  0.00     0.038 A 
BRANCH  14  17
HETATM   17  C   UNL     1      43.611 -10.054   8.227  1.00  0.00     0.256 C 
HETATM   18  N   UNL     1      42.774 -10.024   9.332  1.00  0.00    -0.323 N 
HETATM   19  H   UNL     1      42.064 -10.743   9.392  1.00  0.00     0.169 HD
HETATM   20  O   UNL     1      44.479  -9.232   7.958  1.00  0.00    -0.267 OA
BRANCH  18  21
HETATM   21  C   UNL     1      42.705  -9.010  10.313  1.00  0.00     0.035 A 
HETATM   22  C   UNL     1      41.885  -7.884  10.204  1.00  0.00     0.039 A 
HETATM   23  C   UNL     1      41.833  -6.985  11.258  1.00  0.00    -0.022 A 
HETATM   24  C   UNL     1      40.977  -5.772  11.376  1.00  0.00     0.274 C 
HETATM   25  C   UNL     1      42.590  -7.175  12.414  1.00  0.00    -0.025 A 
HETATM   26  N   UNL     1      41.438  -5.094  12.661  1.00  0.00    -0.067 N 
HETATM   27  C   UNL     1      40.335  -4.506  13.467  1.00  0.00     0.270 C 
HETATM   28  H   UNL     1      42.073  -4.342  12.369  1.00  0.00     0.280 HD
HETATM   29  C   UNL     1      42.298  -6.106  13.410  1.00  0.00     0.273 C 
HETATM   30  C   UNL     1      43.428  -8.269  12.535  1.00  0.00     0.012 A 
HETATM   31  C   UNL     1      43.483  -9.184  11.476  1.00  0.00     0.030 A 
ENDBRANCH  18  21
ENDBRANCH  14  17
ENDBRANCH  10  11
ENDBRANCH   9  10
ENDBRANCH   1   9
TORSDOF 5
ENDMDL
MODEL 4
REMARK VINA RESULT:      -8.5      1.767      2.091
REMARK  5 active torsions:
REMARK  status: ('A' for Active; 'I' for Inactive)
REMARK    1  A    between atoms: C_9  and  N_10 
REMARK       I    between atoms: N_10  and  C_11 
REMARK    2  A    between atoms: C_11  and  C_12 
REMARK    3  A    between atoms: C_15  and  O_16 
REMARK    4  A    between atoms: O_16  and  C_17 
REMARK    5  A    between atoms: C_17  and  C_18 
ROOT
HETATM    1  C   UNL     1      42.852 -16.343   4.314  1.00  0.00    -0.013 A 
HETATM    2  C   UNL     1      43.577 -17.268   5.090  1.00  0.00     0.053 A 
HETATM    3  C   UNL     1      43.853 -17.032   6.480  1.00  0.00     0.100 C 
HETATM    4  N   UNL     1      44.087 -16.839   7.601  1.00  0.00    -0.191 NA
HETATM    5  C   UNL     1      44.054 -18.450   4.507  1.00  0.00     0.023 A 
HETATM    6  C   UNL     1      43.819 -18.719   3.158  1.00  0.00     0.002 A 
HETATM    7  C   UNL     1      43.105 -17.809   2.384  1.00  0.00     0.001 A 
HETATM    8  C   UNL     1      42.623 -16.630   2.956  1.00  0.00     0.011 A 
ENDROOT
BRANCH   1   9
HETATM    9  C   UNL     1      42.327 -15.048   4.896  1.00  0.00     0.216 C 
BRANCH   9  10
HETATM   10  O   UNL     1      43.300 -14.025   4.684  1.00  0.00    -0.347 OA
BRANCH  10  11
HETATM   11  C   UNL     1      43.222 -12.933   5.501  1.00  0.00     0.069 A 
HETATM   12  C   UNL     1      42.216 -11.969   5.473  1.00  0.00     0.038 A 
HETATM   13  C   UNL     1      42.232 -10.916   6.393  1.00  0.00     0.020 A 
HETATM   14  C   UNL     1      43.246 -10.823   7.355  1.00  0.00     0.032 A 
HETATM   15  C   UNL     1      44.271 -11.776   7.367  1.00  0.00     0.020 A 
HETATM   16  C   UNL     1      44.247 -12.830   6.447  1.00  0.00     0.038 A 
BRANCH  14  17
HETATM   17  C   UNL     1      43.171  -9.705   8.339  1.00  0.00     0.256 C 
HETATM   18  N   UNL     1      42.823 -10.070   9.631  1.00  0.00    -0.323 N 
HETATM   19  H   UNL     1      42.648 -11.052   9.801  1.00  0.00     0.169 HD
HETATM   20  O   UNL     1      43.355  -8.562   7.938  1.00  0.00    -0.267 OA
BRANCH  18  21
HETATM   21  C   UNL     1      42.542  -9.200  10.708  1.00  0.00     0.035 A 
HETATM   22  C   UNL     1      41.304  -8.579  10.896  1.00  0.00     0.039 A 
HETATM   23  C   UNL     1      41.106  -7.804  12.029  1.00  0.00    -0.022 A 
HETATM   24  C   UNL     1      39.851  -7.123  12.454  1.00  0.00     0.274 C 
HETATM   25  C   UNL     1      42.117  -7.622  12.971  1.00  0.00    -0.025 A 
HETATM   26  N   UNL     1      40.249  -6.306  13.679  1.00  0.00    -0.067 N 
HETATM   27  C   UNL     1      39.225  -6.292  14.757  1.00  0.00     0.270 C 
HETATM   28  H   UNL     1      40.389  -5.346  13.342  1.00  0.00     0.280 HD
HETATM   29  C   UNL     1      41.621  -6.807  14.116  1.00  0.00     0.273 C 
HETATM   30  C   UNL     1      43.359  -8.206  12.795  1.00  0.00     0.012 A 
HETATM   31  C   UNL     1      43.566  -8.994  11.655  1.00  0.00     0.030 A 
ENDBRANCH  18  21
ENDBRANCH  14  17
ENDBRANCH  10  11
ENDBRANCH   9  10
ENDBRANCH   1   9
TORSDOF 5
ENDMDL
MODEL 5
REMARK VINA RESULT:      -8.5      2.018     10.801
REMARK  5 active torsions:
REMARK  status: ('A' for Active; 'I' for Inactive)
REMARK    1  A    between atoms: C_9  and  N_10 
REMARK       I    between atoms: N_10  and  C_11 
REMARK    2  A    between atoms: C_11  and  C_12 
REMARK    3  A    between atoms: C_15  and  O_16 
REMARK    4  A    between atoms: O_16  and  C_17 
REMARK    5  A    between atoms: C_17  and  C_18 
ROOT
HETATM    1  C   UNL     1      42.136  -8.209  10.972  1.00  0.00    -0.013 A 
HETATM    2  C   UNL     1      42.929  -8.854  11.944  1.00  0.00     0.053 A 
HETATM    3  C   UNL     1      43.491 -10.156  11.714  1.00  0.00     0.100 C 
HETATM    4  N   UNL     1      43.938 -11.212  11.536  1.00  0.00    -0.191 NA
HETATM    5  C   UNL     1      43.179  -8.226  13.172  1.00  0.00     0.023 A 
HETATM    6  C   UNL     1      42.646  -6.965  13.443  1.00  0.00     0.002 A 
HETATM    7  C   UNL     1      41.862  -6.323  12.490  1.00  0.00     0.001 A 
HETATM    8  C   UNL     1      41.608  -6.939  11.263  1.00  0.00     0.011 A 
ENDROOT
BRANCH   1   9
HETATM    9  C   UNL     1      41.828  -8.853   9.637  1.00  0.00     0.216 C 
BRANCH   9  10
HETATM   10  O   UNL     1      42.991  -8.776   8.814  1.00  0.00    -0.347 OA
BRANCH  10  11
HETATM   11  C   UNL     1      43.121  -9.738   7.852  1.00  0.00     0.069 A 
HETATM   12  C   UNL     1      43.909 -10.883   7.952  1.00  0.00     0.038 A 
HETATM   13  C   UNL     1      43.924 -11.813   6.908  1.00  0.00     0.020 A 
HETATM   14  C   UNL     1      43.146 -11.613   5.760  1.00  0.00     0.032 A 
HETATM   15  C   UNL     1      42.375 -10.450   5.649  1.00  0.00     0.020 A 
HETATM   16  C   UNL     1      42.359  -9.525   6.699  1.00  0.00     0.038 A 
BRANCH  14  17
HETATM   17  C   UNL     1      43.168 -12.671   4.711  1.00  0.00     0.256 C 
HETATM   18  N   UNL     1      42.860 -13.951   5.146  1.00  0.00    -0.323 N 
HETATM   19  H   UNL     1      42.649 -14.064   6.129  1.00  0.00     0.169 HD
HETATM   20  O   UNL     1      43.510 -12.359   3.576  1.00  0.00    -0.267 OA
BRANCH  18  21
HETATM   21  C   UNL     1      42.951 -15.144   4.395  1.00  0.00     0.035 A 
HETATM   22  C   UNL     1      43.713 -16.246   4.788  1.00  0.00     0.039 A 
HETATM   23  C   UNL     1      43.675 -17.400   4.019  1.00  0.00    -0.022 A 
HETATM   24  C   UNL     1      44.347 -18.699   4.297  1.00  0.00     0.274 C 
HETATM   25  C   UNL     1      42.904 -17.475   2.860  1.00  0.00    -0.025 A 
HETATM   26  N   UNL     1      44.080 -19.548   3.059  1.00  0.00    -0.067 N 
HETATM   27  C   UNL     1      43.800 -20.978   3.350  1.00  0.00     0.270 C 
HETATM   28  H   UNL     1      44.932 -19.486   2.489  1.00  0.00     0.280 HD
HETATM   29  C   UNL     1      42.988 -18.838   2.265  1.00  0.00     0.273 C 
HETATM   30  C   UNL     1      42.160 -16.387   2.437  1.00  0.00     0.012 A 
HETATM   31  C   UNL     1      42.190 -15.220   3.211  1.00  0.00     0.030 A 
ENDBRANCH  18  21
ENDBRANCH  14  17
ENDBRANCH  10  11
ENDBRANCH   9  10
ENDBRANCH   1   9
TORSDOF 5
ENDMDL
MODEL 6
REMARK VINA RESULT:      -8.4      2.581      3.951
REMARK  5 active torsions:
REMARK  status: ('A' for Active; 'I' for Inactive)
REMARK    1  A    between atoms: C_9  and  N_10 
REMARK       I    between atoms: N_10  and  C_11 
REMARK    2  A    between atoms: C_11  and  C_12 
REMARK    3  A    between atoms: C_15  and  O_16 
REMARK    4  A    between atoms: O_16  and  C_17 
REMARK    5  A    between atoms: C_17  and  C_18 
ROOT
HETATM    1  C   UNL     1      43.470 -17.811   3.218  1.00  0.00    -0.013 A 
HETATM    2  C   UNL     1      44.003 -18.209   4.461  1.00  0.00     0.053 A 
HETATM    3  C   UNL     1      44.334 -17.251   5.479  1.00  0.00     0.100 C 
HETATM    4  N   UNL     1      44.612 -16.479   6.301  1.00  0.00    -0.191 NA
HETATM    5  C   UNL     1      44.228 -19.567   4.723  1.00  0.00     0.023 A 
HETATM    6  C   UNL     1      43.930 -20.533   3.761  1.00  0.00     0.002 A 
HETATM    7  C   UNL     1      43.405 -20.147   2.531  1.00  0.00     0.001 A 
HETATM    8  C   UNL     1      43.175 -18.797   2.260  1.00  0.00     0.011 A 
ENDROOT
BRANCH   1   9
HETATM    9  C   UNL     1      43.221 -16.355   2.884  1.00  0.00     0.216 C 
BRANCH   9  10
HETATM   10  O   UNL     1      41.992 -15.952   3.488  1.00  0.00    -0.347 OA
BRANCH  10  11
HETATM   11  C   UNL     1      41.974 -14.711   4.059  1.00  0.00     0.069 A 
HETATM   12  C   UNL     1      41.162 -14.320   5.122  1.00  0.00     0.038 A 
HETATM   13  C   UNL     1      41.268 -13.026   5.643  1.00  0.00     0.020 A 
HETATM   14  C   UNL     1      42.192 -12.116   5.113  1.00  0.00     0.032 A 
HETATM   15  C   UNL     1      42.989 -12.500   4.029  1.00  0.00     0.020 A 
HETATM   16  C   UNL     1      42.882 -13.798   3.515  1.00  0.00     0.038 A 
BRANCH  14  17
HETATM   17  C   UNL     1      42.289 -10.773   5.752  1.00  0.00     0.256 C 
HETATM   18  N   UNL     1      42.534 -10.776   7.117  1.00  0.00    -0.323 N 
HETATM   19  H   UNL     1      42.623 -11.679   7.565  1.00  0.00     0.169 HD
HETATM   20  O   UNL     1      42.090  -9.782   5.059  1.00  0.00    -0.267 OA
BRANCH  18  21
HETATM   21  C   UNL     1      42.526  -9.659   7.980  1.00  0.00     0.035 A 
HETATM   22  C   UNL     1      41.385  -9.207   8.648  1.00  0.00     0.039 A 
HETATM   23  C   UNL     1      41.500  -8.146   9.534  1.00  0.00    -0.022 A 
HETATM   24  C   UNL     1      40.433  -7.564  10.395  1.00  0.00     0.274 C 
HETATM   25  C   UNL     1      42.723  -7.517   9.760  1.00  0.00    -0.025 A 
HETATM   26  N   UNL     1      41.080  -6.344  11.043  1.00  0.00    -0.067 N 
HETATM   27  C   UNL     1      40.699  -6.137  12.465  1.00  0.00     0.270 C 
HETATM   28  H   UNL     1      40.765  -5.536  10.494  1.00  0.00     0.280 HD
HETATM   29  C   UNL     1      42.581  -6.460  10.801  1.00  0.00     0.273 C 
HETATM   30  C   UNL     1      43.862  -7.930   9.092  1.00  0.00     0.012 A 
HETATM   31  C   UNL     1      43.755  -9.004   8.198  1.00  0.00     0.030 A 
ENDBRANCH  18  21
ENDBRANCH  14  17
ENDBRANCH  10  11
ENDBRANCH   9  10
ENDBRANCH   1   9
TORSDOF 5
ENDMDL
MODEL 7
REMARK VINA RESULT:      -8.2      2.411     10.268
REMARK  5 active torsions:
REMARK  status: ('A' for Active; 'I' for Inactive)
REMARK    1  A    between atoms: C_9  and  N_10 
REMARK       I    between atoms: N_10  and  C_11 
REMARK    2  A    between atoms: C_11  and  C_12 
REMARK    3  A    between atoms: C_15  and  O_16 
REMARK    4  A    between atoms: O_16  and  C_17 
REMARK    5  A    between atoms: C_17  and  C_18 
ROOT
HETATM    1  C   UNL     1      41.154  -7.983  12.975  1.00  0.00    -0.013 A 
HETATM    2  C   UNL     1      39.892  -8.608  13.026  1.00  0.00     0.053 A 
HETATM    3  C   UNL     1      39.763 -10.028  13.210  1.00  0.00     0.100 C 
HETATM    4  N   UNL     1      39.655 -11.176  13.347  1.00  0.00    -0.191 NA
HETATM    5  C   UNL     1      38.725  -7.843  12.891  1.00  0.00     0.023 A 
HETATM    6  C   UNL     1      38.802  -6.463  12.702  1.00  0.00     0.002 A 
HETATM    7  C   UNL     1      40.044  -5.838  12.649  1.00  0.00     0.001 A 
HETATM    8  C   UNL     1      41.212  -6.590  12.784  1.00  0.00     0.011 A 
ENDROOT
BRANCH   1   9
HETATM    9  C   UNL     1      42.442  -8.768  13.104  1.00  0.00     0.216 C 
BRANCH   9  10
HETATM   10  O   UNL     1      43.401  -8.222  12.198  1.00  0.00    -0.347 OA
BRANCH  10  11
HETATM   11  C   UNL     1      43.685  -8.969  11.090  1.00  0.00     0.069 A 
HETATM   12  C   UNL     1      44.885  -9.635  10.847  1.00  0.00     0.038 A 
HETATM   13  C   UNL     1      45.036 -10.401   9.687  1.00  0.00     0.020 A 
HETATM   14  C   UNL     1      43.987 -10.518   8.766  1.00  0.00     0.032 A 
HETATM   15  C   UNL     1      42.791  -9.828   8.997  1.00  0.00     0.020 A 
HETATM   16  C   UNL     1      42.644  -9.067  10.162  1.00  0.00     0.038 A 
BRANCH  14  17
HETATM   17  C   UNL     1      44.198 -11.395   7.579  1.00  0.00     0.256 C 
HETATM   18  N   UNL     1      43.279 -12.421   7.424  1.00  0.00    -0.323 N 
HETATM   19  H   UNL     1      42.549 -12.495   8.121  1.00  0.00     0.169 HD
HETATM   20  O   UNL     1      45.179 -11.194   6.872  1.00  0.00    -0.267 OA
BRANCH  18  21
HETATM   21  C   UNL     1      43.334 -13.470   6.479  1.00  0.00     0.035 A 
HETATM   22  C   UNL     1      43.985 -14.684   6.710  1.00  0.00     0.039 A 
HETATM   23  C   UNL     1      43.916 -15.679   5.747  1.00  0.00    -0.022 A 
HETATM   24  C   UNL     1      44.471 -17.059   5.826  1.00  0.00     0.274 C 
HETATM   25  C   UNL     1      43.222 -15.488   4.553  1.00  0.00    -0.025 A 
HETATM   26  N   UNL     1      44.228 -17.655   4.443  1.00  0.00    -0.067 N 
HETATM   27  C   UNL     1      43.825 -19.086   4.460  1.00  0.00     0.270 C 
HETATM   28  H   UNL     1      45.119 -17.567   3.941  1.00  0.00     0.280 HD
HETATM   29  C   UNL     1      43.248 -16.730   3.730  1.00  0.00     0.273 C 
HETATM   30  C   UNL     1      42.590 -14.285   4.290  1.00  0.00     0.012 A 
HETATM   31  C   UNL     1      42.652 -13.276   5.260  1.00  0.00     0.030 A 
ENDBRANCH  18  21
ENDBRANCH  14  17
ENDBRANCH  10  11
ENDBRANCH   9  10
ENDBRANCH   1   9
TORSDOF 5
ENDMDL
MODEL 8
REMARK VINA RESULT:      -8.2      8.571     12.035
REMARK  5 active torsions:
REMARK  status: ('A' for Active; 'I' for Inactive)
REMARK    1  A    between atoms: C_9  and  N_10 
REMARK       I    between atoms: N_10  and  C_11 
REMARK    2  A    between atoms: C_11  and  C_12 
REMARK    3  A    between atoms: C_15  and  O_16 
REMARK    4  A    between atoms: O_16  and  C_17 
REMARK    5  A    between atoms: C_17  and  C_18 
ROOT
HETATM    1  C   UNL     1      43.592 -18.231   3.198  1.00  0.00    -0.013 A 
HETATM    2  C   UNL     1      43.999 -18.556   4.508  1.00  0.00     0.053 A 
HETATM    3  C   UNL     1      44.233 -17.541   5.498  1.00  0.00     0.100 C 
HETATM    4  N   UNL     1      44.433 -16.723   6.297  1.00  0.00    -0.191 NA
HETATM    5  C   UNL     1      44.191 -19.898   4.868  1.00  0.00     0.023 A 
HETATM    6  C   UNL     1      43.984 -20.916   3.938  1.00  0.00     0.002 A 
HETATM    7  C   UNL     1      43.584 -20.603   2.642  1.00  0.00     0.001 A 
HETATM    8  C   UNL     1      43.388 -19.271   2.274  1.00  0.00     0.011 A 
ENDROOT
BRANCH   1   9
HETATM    9  C   UNL     1      43.384 -16.797   2.758  1.00  0.00     0.216 C 
BRANCH   9  10
HETATM   10  O   UNL     1      42.013 -16.453   2.956  1.00  0.00    -0.347 OA
BRANCH  10  11
HETATM   11  C   UNL     1      41.453 -15.623   2.027  1.00  0.00     0.069 A 
HETATM   12  C   UNL     1      40.340 -15.918   1.242  1.00  0.00     0.038 A 
HETATM   13  C   UNL     1      39.840 -14.962   0.352  1.00  0.00     0.020 A 
HETATM   14  C   UNL     1      40.440 -13.701   0.246  1.00  0.00     0.032 A 
HETATM   15  C   UNL     1      41.573 -13.414   1.015  1.00  0.00     0.020 A 
HETATM   16  C   UNL     1      42.067 -14.372   1.908  1.00  0.00     0.038 A 
BRANCH  14  17
HETATM   17  C   UNL     1      39.822 -12.712  -0.682  1.00  0.00     0.256 C 
HETATM   18  N   UNL     1      38.484 -12.430  -0.451  1.00  0.00    -0.323 N 
HETATM   19  H   UNL     1      38.039 -12.914   0.319  1.00  0.00     0.169 HD
HETATM   20  O   UNL     1      40.501 -12.272  -1.602  1.00  0.00    -0.267 OA
BRANCH  18  21
HETATM   21  C   UNL     1      37.631 -11.651  -1.263  1.00  0.00     0.035 A 
HETATM   22  C   UNL     1      36.888 -12.172  -2.325  1.00  0.00     0.039 A 
HETATM   23  C   UNL     1      36.021 -11.337  -3.014  1.00  0.00    -0.022 A 
HETATM   24  C   UNL     1      35.092 -11.705  -4.118  1.00  0.00     0.274 C 
HETATM   25  C   UNL     1      35.887  -9.991  -2.676  1.00  0.00    -0.025 A 
HETATM   26  N   UNL     1      34.501 -10.380  -4.586  1.00  0.00    -0.067 N 
HETATM   27  C   UNL     1      33.057 -10.448  -4.935  1.00  0.00     0.270 C 
HETATM   28  H   UNL     1      35.033 -10.117  -5.424  1.00  0.00     0.280 HD
HETATM   29  C   UNL     1      34.846  -9.343  -3.523  1.00  0.00     0.273 C 
HETATM   30  C   UNL     1      36.630  -9.446  -1.644  1.00  0.00     0.012 A 
HETATM   31  C   UNL     1      37.505 -10.284  -0.941  1.00  0.00     0.030 A 
ENDBRANCH  18  21
ENDBRANCH  14  17
ENDBRANCH  10  11
ENDBRANCH   9  10
ENDBRANCH   1   9
TORSDOF 5
ENDMDL
MODEL 9
REMARK VINA RESULT:      -8.1      3.091     10.634
REMARK  5 active torsions:
REMARK  status: ('A' for Active; 'I' for Inactive)
REMARK    1  A    between atoms: C_9  and  N_10 
REMARK       I    between atoms: N_10  and  C_11 
REMARK    2  A    between atoms: C_11  and  C_12 
REMARK    3  A    between atoms: C_15  and  O_16 
REMARK    4  A    between atoms: O_16  and  C_17 
REMARK    5  A    between atoms: C_17  and  C_18 
ROOT
HETATM    1  C   UNL     1      44.100  -9.654  10.207  1.00  0.00    -0.013 A 
HETATM    2  C   UNL     1      43.084  -8.688  10.060  1.00  0.00     0.053 A 
HETATM    3  C   UNL     1      43.096  -7.741   8.979  1.00  0.00     0.100 C 
HETATM    4  N   UNL     1      43.107  -6.968   8.113  1.00  0.00    -0.191 NA
HETATM    5  C   UNL     1      42.032  -8.633  10.985  1.00  0.00     0.023 A 
HETATM    6  C   UNL     1      41.984  -9.526  12.056  1.00  0.00     0.002 A 
HETATM    7  C   UNL     1      42.985 -10.481  12.208  1.00  0.00     0.001 A 
HETATM    8  C   UNL     1      44.035 -10.546  11.291  1.00  0.00     0.011 A 
ENDROOT
BRANCH   1   9
HETATM    9  C   UNL     1      45.262  -9.745   9.240  1.00  0.00     0.216 C 
BRANCH   9  10
HETATM   10  O   UNL     1      45.282 -11.054   8.672  1.00  0.00    -0.347 OA
BRANCH  10  11
HETATM   11  C   UNL     1      44.740 -11.184   7.424  1.00  0.00     0.069 A 
HETATM   12  C   UNL     1      45.459 -11.299   6.237  1.00  0.00     0.038 A 
HETATM   13  C   UNL     1      44.783 -11.467   5.024  1.00  0.00     0.020 A 
HETATM   14  C   UNL     1      43.384 -11.533   4.989  1.00  0.00     0.032 A 
HETATM   15  C   UNL     1      42.661 -11.392   6.179  1.00  0.00     0.020 A 
HETATM   16  C   UNL     1      43.343 -11.229   7.390  1.00  0.00     0.038 A 
BRANCH  14  17
HETATM   17  C   UNL     1      42.732 -11.768   3.670  1.00  0.00     0.256 C 
HETATM   18  N   UNL     1      41.789 -12.785   3.642  1.00  0.00    -0.323 N 
HETATM   19  H   UNL     1      41.623 -13.281   4.508  1.00  0.00     0.169 HD
HETATM   20  O   UNL     1      43.107 -11.108   2.708  1.00  0.00    -0.267 OA
BRANCH  18  21
HETATM   21  C   UNL     1      41.138 -13.304   2.501  1.00  0.00     0.035 A 
HETATM   22  C   UNL     1      40.230 -12.573   1.731  1.00  0.00     0.039 A 
HETATM   23  C   UNL     1      39.704 -13.149   0.585  1.00  0.00    -0.022 A 
HETATM   24  C   UNL     1      38.788 -12.522  -0.408  1.00  0.00     0.274 C 
HETATM   25  C   UNL     1      40.051 -14.442   0.196  1.00  0.00    -0.025 A 
HETATM   26  N   UNL     1      38.424 -13.650  -1.368  1.00  0.00    -0.067 N 
HETATM   27  C   UNL     1      38.341 -13.232  -2.793  1.00  0.00     0.270 C 
HETATM   28  H   UNL     1      37.502 -13.987  -1.067  1.00  0.00     0.280 HD
HETATM   29  C   UNL     1      39.401 -14.789  -1.099  1.00  0.00     0.273 C 
HETATM   30  C   UNL     1      40.929 -15.195   0.956  1.00  0.00     0.012 A 
HETATM   31  C   UNL     1      41.468 -14.618   2.113  1.00  0.00     0.030 A 
ENDBRANCH  18  21
ENDBRANCH  14  17
ENDBRANCH  10  11
ENDBRANCH   9  10
ENDBRANCH   1   9
TORSDOF 5
ENDMDL
MODEL 10
REMARK VINA RESULT:      -8.0      8.601     11.557
REMARK  5 active torsions:
REMARK  status: ('A' for Active; 'I' for Inactive)
REMARK    1  A    between atoms: C_9  and  N_10 
REMARK       I    between atoms: N_10  and  C_11 
REMARK    2  A    between atoms: C_11  and  C_12 
REMARK    3  A    between atoms: C_15  and  O_16 
REMARK    4  A    between atoms: O_16  and  C_17 
REMARK    5  A    between atoms: C_17  and  C_18 
ROOT
HETATM    1  C   UNL     1      43.438 -18.142   3.235  1.00  0.00    -0.013 A 
HETATM    2  C   UNL     1      43.900 -18.573   4.495  1.00  0.00     0.053 A 
HETATM    3  C   UNL     1      44.129 -17.648   5.570  1.00  0.00     0.100 C 
HETATM    4  N   UNL     1      44.325 -16.902   6.438  1.00  0.00    -0.191 NA
HETATM    5  C   UNL     1      44.153 -19.934   4.719  1.00  0.00     0.023 A 
HETATM    6  C   UNL     1      43.954 -20.868   3.702  1.00  0.00     0.002 A 
HETATM    7  C   UNL     1      43.500 -20.449   2.455  1.00  0.00     0.001 A 
HETATM    8  C   UNL     1      43.243 -19.097   2.222  1.00  0.00     0.011 A 
ENDROOT
BRANCH   1   9
HETATM    9  C   UNL     1      43.162 -16.682   2.941  1.00  0.00     0.216 C 
BRANCH   9  10
HETATM   10  O   UNL     1      41.751 -16.496   2.841  1.00  0.00    -0.347 OA
BRANCH  10  11
HETATM   11  C   UNL     1      41.323 -15.560   1.942  1.00  0.00     0.069 A 
HETATM   12  C   UNL     1      40.211 -15.682   1.111  1.00  0.00     0.038 A 
HETATM   13  C   UNL     1      39.856 -14.631   0.260  1.00  0.00     0.020 A 
HETATM   14  C   UNL     1      40.601 -13.445   0.240  1.00  0.00     0.032 A 
HETATM   15  C   UNL     1      41.733 -13.332   1.055  1.00  0.00     0.020 A 
HETATM   16  C   UNL     1      42.081 -14.385   1.908  1.00  0.00     0.038 A 
BRANCH  14  17
HETATM   17  C   UNL     1      40.133 -12.345  -0.651  1.00  0.00     0.256 C 
HETATM   18  N   UNL     1      41.102 -11.427  -1.025  1.00  0.00    -0.323 N 
HETATM   19  H   UNL     1      42.037 -11.572  -0.666  1.00  0.00     0.169 HD
HETATM   20  O   UNL     1      38.943 -12.292  -0.937  1.00  0.00    -0.267 OA
BRANCH  18  21
HETATM   21  C   UNL     1      40.897 -10.223  -1.735  1.00  0.00     0.035 A 
HETATM   22  C   UNL     1      40.796 -10.155  -3.126  1.00  0.00     0.039 A 
HETATM   23  C   UNL     1      40.518  -8.934  -3.722  1.00  0.00    -0.022 A 
HETATM   24  C   UNL     1      40.296  -8.659  -5.169  1.00  0.00     0.274 C 
HETATM   25  C   UNL     1      40.352  -7.776  -2.963  1.00  0.00    -0.025 A 
HETATM   26  N   UNL     1      40.178  -7.142  -5.262  1.00  0.00    -0.067 N 
HETATM   27  C   UNL     1      39.149  -6.670  -6.226  1.00  0.00     0.270 C 
HETATM   28  H   UNL     1      41.099  -6.808  -5.571  1.00  0.00     0.280 HD
HETATM   29  C   UNL     1      39.996  -6.625  -3.839  1.00  0.00     0.273 C 
HETATM   30  C   UNL     1      40.473  -7.813  -1.585  1.00  0.00     0.012 A 
HETATM   31  C   UNL     1      40.749  -9.044  -0.976  1.00  0.00     0.030 A 
ENDBRANCH  18  21
ENDBRANCH  14  17
ENDBRANCH  10  11
ENDBRANCH   9  10
ENDBRANCH   1   9
TORSDOF 5
ENDMDL
