MODEL 1
REMARK VINA RESULT:      -9.2      0.000      0.000
REMARK  5 active torsions:
REMARK  status: ('A' for Active; 'I' for Inactive)
REMARK    1  A    between atoms: N_1  and  C_2 
REMARK    2  A    between atoms: C_2  and  C_3 
REMARK    3  A    between atoms: C_2  and  C_12 
REMARK    4  A    between atoms: C_3  and  C_4 
REMARK    5  A    between atoms: C_17  and  C_23 
ROOT
HETATM    1  C   UNL     1      42.195 -14.951   4.770  1.00  0.00     0.141 A 
HETATM    2  N   UNL     1      41.341 -15.606   4.048  1.00  0.00    -0.232 NA
HETATM    3  C   UNL     1      41.057 -15.113   2.763  1.00  0.00     0.074 A 
HETATM    4  C   UNL     1      40.176 -15.826   1.950  1.00  0.00     0.033 A 
HETATM    5  C   UNL     1      39.888 -15.384   0.652  1.00  0.00     0.014 A 
HETATM    6  C   UNL     1      40.473 -14.215   0.143  1.00  0.00    -0.022 A 
HETATM    7  C   UNL     1      41.353 -13.494   0.959  1.00  0.00     0.031 A 
HETATM    8  C   UNL     1      41.634 -13.948   2.253  1.00  0.00     0.061 A 
HETATM    9  C   UNL     1      42.568 -13.214   3.125  1.00  0.00     0.259 A 
HETATM   10  O   UNL     1      43.120 -12.183   2.768  1.00  0.00    -0.267 OA
HETATM   11  N   UNL     1      42.777 -13.780   4.354  1.00  0.00    -0.309 N 
HETATM   12  H   UNL     1      43.427 -13.331   4.990  1.00  0.00     0.170 HD
ENDROOT
BRANCH   1  13
HETATM   13  C   UNL     1      42.580 -15.393   6.189  1.00  0.00     0.291 C 
BRANCH  13  14
HETATM   14  N   UNL     1      42.504 -14.227   7.106  1.00  0.00     0.090 N 
HETATM   15  H   UNL     1      42.209 -14.559   8.028  1.00  0.00     0.313 HD
HETATM   16  H   UNL     1      41.749 -13.616   6.791  1.00  0.00     0.313 HD
ENDBRANCH  13  14
BRANCH  13  17
HETATM   17  C   UNL     1      43.924 -16.150   6.253  1.00  0.00     0.082 C 
BRANCH  17  18
HETATM   18  C   UNL     1      43.915 -17.552   5.678  1.00  0.00    -0.053 A 
HETATM   19  C   UNL     1      43.594 -18.654   6.488  1.00  0.00     0.010 A 
HETATM   20  C   UNL     1      43.570 -19.947   5.958  1.00  0.00     0.046 A 
HETATM   21  C   UNL     1      43.873 -20.145   4.618  1.00  0.00     0.154 A 
HETATM   22  F   UNL     1      43.848 -21.386   4.112  1.00  0.00    -0.203 F 
HETATM   23  C   UNL     1      44.203 -19.066   3.808  1.00  0.00     0.155 A 
HETATM   24  F   UNL     1      44.496 -19.256   2.514  1.00  0.00    -0.203 F 
HETATM   25  C   UNL     1      44.228 -17.773   4.328  1.00  0.00     0.052 A 
ENDBRANCH  17  18
ENDBRANCH  13  17
ENDBRANCH   1  13
BRANCH   6  26
HETATM   26  C   UNL     1      40.176 -13.781  -1.212  1.00  0.00     0.010 A 
HETATM   27  C   UNL     1      39.475 -14.426  -2.258  1.00  0.00     0.152 A 
HETATM   28  N   UNL     1      39.405 -13.687  -3.368  1.00  0.00    -0.187 NA
HETATM   29  N   UNL     1      40.061 -12.564  -3.039  1.00  0.00    -0.289 N 
HETATM   30  H   UNL     1      40.143 -11.830  -3.736  1.00  0.00     0.188 HD
HETATM   31  C   UNL     1      40.539 -12.568  -1.760  1.00  0.00     0.123 A 
ENDBRANCH   6  26
TORSDOF 5
ENDMDL
MODEL 2
REMARK VINA RESULT:      -9.1      5.173      7.870
REMARK  5 active torsions:
REMARK  status: ('A' for Active; 'I' for Inactive)
REMARK    1  A    between atoms: N_1  and  C_2 
REMARK    2  A    between atoms: C_2  and  C_3 
REMARK    3  A    between atoms: C_2  and  C_12 
REMARK    4  A    between atoms: C_3  and  C_4 
REMARK    5  A    between atoms: C_17  and  C_23 
ROOT
HETATM    1  C   UNL     1      42.261 -13.259   5.636  1.00  0.00     0.141 A 
HETATM    2  N   UNL     1      42.505 -13.718   4.449  1.00  0.00    -0.232 NA
HETATM    3  C   UNL     1      42.828 -15.081   4.329  1.00  0.00     0.074 A 
HETATM    4  C   UNL     1      43.048 -15.609   3.057  1.00  0.00     0.033 A 
HETATM    5  C   UNL     1      43.346 -16.968   2.892  1.00  0.00     0.014 A 
HETATM    6  C   UNL     1      43.433 -17.826   3.998  1.00  0.00    -0.022 A 
HETATM    7  C   UNL     1      43.218 -17.297   5.277  1.00  0.00     0.031 A 
HETATM    8  C   UNL     1      42.920 -15.938   5.428  1.00  0.00     0.061 A 
HETATM    9  C   UNL     1      42.675 -15.362   6.762  1.00  0.00     0.259 A 
HETATM   10  O   UNL     1      42.735 -16.033   7.783  1.00  0.00    -0.267 OA
HETATM   11  N   UNL     1      42.366 -14.029   6.768  1.00  0.00    -0.309 N 
HETATM   12  H   UNL     1      42.165 -13.581   7.655  1.00  0.00     0.170 HD
ENDROOT
BRANCH   1  13
HETATM   13  C   UNL     1      41.901 -11.787   5.889  1.00  0.00     0.291 C 
BRANCH  13  14
HETATM   14  N   UNL     1      40.737 -11.413   5.045  1.00  0.00     0.090 N 
HETATM   15  H   UNL     1      41.058 -10.767   4.320  1.00  0.00     0.313 HD
HETATM   16  H   UNL     1      40.086 -10.870   5.614  1.00  0.00     0.313 HD
ENDBRANCH  13  14
BRANCH  13  17
HETATM   17  C   UNL     1      43.103 -10.829   5.754  1.00  0.00     0.082 C 
BRANCH  17  18
HETATM   18  C   UNL     1      43.825 -10.498   7.045  1.00  0.00    -0.053 A 
HETATM   19  C   UNL     1      45.177 -10.840   7.214  1.00  0.00     0.010 A 
HETATM   20  C   UNL     1      45.851 -10.524   8.397  1.00  0.00     0.046 A 
HETATM   21  C   UNL     1      45.174  -9.870   9.419  1.00  0.00     0.154 A 
HETATM   22  F   UNL     1      45.823  -9.568  10.551  1.00  0.00    -0.203 F 
HETATM   23  C   UNL     1      43.834  -9.537   9.268  1.00  0.00     0.155 A 
HETATM   24  F   UNL     1      43.180  -8.906  10.254  1.00  0.00    -0.203 F 
HETATM   25  C   UNL     1      43.155  -9.847   8.092  1.00  0.00     0.052 A 
ENDBRANCH  17  18
ENDBRANCH  13  17
ENDBRANCH   1  13
BRANCH   6  26
HETATM   26  C   UNL     1      43.725 -19.236   3.806  1.00  0.00     0.010 A 
HETATM   27  C   UNL     1      43.693 -20.039   2.641  1.00  0.00     0.152 A 
HETATM   28  N   UNL     1      44.042 -21.307   2.874  1.00  0.00    -0.187 NA
HETATM   29  N   UNL     1      44.300 -21.324   4.191  1.00  0.00    -0.289 N 
HETATM   30  H   UNL     1      44.593 -22.198   4.615  1.00  0.00     0.188 HD
HETATM   31  C   UNL     1      44.129 -20.111   4.794  1.00  0.00     0.123 A 
ENDBRANCH   6  26
TORSDOF 5
ENDMDL
MODEL 3
REMARK VINA RESULT:      -9.0      5.432      8.137
REMARK  5 active torsions:
REMARK  status: ('A' for Active; 'I' for Inactive)
REMARK    1  A    between atoms: N_1  and  C_2 
REMARK    2  A    between atoms: C_2  and  C_3 
REMARK    3  A    between atoms: C_2  and  C_12 
REMARK    4  A    between atoms: C_3  and  C_4 
REMARK    5  A    between atoms: C_17  and  C_23 
ROOT
HETATM    1  C   UNL     1      43.219 -12.992   5.637  1.00  0.00     0.141 A 
HETATM    2  N   UNL     1      43.597 -14.001   6.356  1.00  0.00    -0.232 NA
HETATM    3  C   UNL     1      43.619 -15.267   5.745  1.00  0.00     0.074 A 
HETATM    4  C   UNL     1      44.067 -16.362   6.484  1.00  0.00     0.033 A 
HETATM    5  C   UNL     1      44.130 -17.635   5.903  1.00  0.00     0.014 A 
HETATM    6  C   UNL     1      43.742 -17.840   4.570  1.00  0.00    -0.022 A 
HETATM    7  C   UNL     1      43.287 -16.743   3.828  1.00  0.00     0.031 A 
HETATM    8  C   UNL     1      43.230 -15.476   4.419  1.00  0.00     0.061 A 
HETATM    9  C   UNL     1      42.769 -14.305   3.654  1.00  0.00     0.259 A 
HETATM   10  O   UNL     1      42.406 -14.389   2.489  1.00  0.00    -0.267 OA
HETATM   11  N   UNL     1      42.789 -13.121   4.340  1.00  0.00    -0.309 N 
HETATM   12  H   UNL     1      42.503 -12.276   3.858  1.00  0.00     0.170 HD
ENDROOT
BRANCH   1  13
HETATM   13  C   UNL     1      43.153 -11.563   6.199  1.00  0.00     0.291 C 
BRANCH  13  14
HETATM   14  N   UNL     1      42.626 -10.648   5.155  1.00  0.00     0.090 N 
HETATM   15  H   UNL     1      41.853 -11.116   4.675  1.00  0.00     0.313 HD
HETATM   16  H   UNL     1      43.344 -10.524   4.440  1.00  0.00     0.313 HD
ENDBRANCH  13  14
BRANCH  13  17
HETATM   17  C   UNL     1      44.480 -11.090   6.830  1.00  0.00     0.082 C 
BRANCH  17  18
HETATM   18  C   UNL     1      44.362 -10.454   8.201  1.00  0.00    -0.053 A 
HETATM   19  C   UNL     1      45.497 -10.292   9.013  1.00  0.00     0.010 A 
HETATM   20  C   UNL     1      45.396  -9.693  10.271  1.00  0.00     0.046 A 
HETATM   21  C   UNL     1      44.157  -9.258  10.726  1.00  0.00     0.154 A 
HETATM   22  F   UNL     1      44.063  -8.682  11.933  1.00  0.00    -0.203 F 
HETATM   23  C   UNL     1      43.026  -9.421   9.938  1.00  0.00     0.155 A 
HETATM   24  F   UNL     1      41.830  -9.002  10.377  1.00  0.00    -0.203 F 
HETATM   25  C   UNL     1      43.118 -10.017   8.682  1.00  0.00     0.052 A 
ENDBRANCH  17  18
ENDBRANCH  13  17
ENDBRANCH   1  13
BRANCH   6  26
HETATM   26  C   UNL     1      43.831 -19.164   3.979  1.00  0.00     0.010 A 
HETATM   27  C   UNL     1      43.679 -19.593   2.639  1.00  0.00     0.152 A 
HETATM   28  N   UNL     1      43.847 -20.910   2.494  1.00  0.00    -0.187 NA
HETATM   29  N   UNL     1      44.107 -21.333   3.740  1.00  0.00    -0.289 N 
HETATM   30  H   UNL     1      44.275 -22.322   3.890  1.00  0.00     0.188 HD
HETATM   31  C   UNL     1      44.112 -20.328   4.665  1.00  0.00     0.123 A 
ENDBRANCH   6  26
TORSDOF 5
ENDMDL
MODEL 4
REMARK VINA RESULT:      -8.9      3.294      7.536
REMARK  5 active torsions:
REMARK  status: ('A' for Active; 'I' for Inactive)
REMARK    1  A    between atoms: N_1  and  C_2 
REMARK    2  A    between atoms: C_2  and  C_3 
REMARK    3  A    between atoms: C_2  and  C_12 
REMARK    4  A    between atoms: C_3  and  C_4 
REMARK    5  A    between atoms: C_17  and  C_23 
ROOT
HETATM    1  C   UNL     1      42.530 -12.974   2.736  1.00  0.00     0.141 A 
HETATM    2  N   UNL     1      42.765 -13.949   1.916  1.00  0.00    -0.232 NA
HETATM    3  C   UNL     1      43.042 -15.212   2.465  1.00  0.00     0.074 A 
HETATM    4  C   UNL     1      43.252 -16.288   1.603  1.00  0.00     0.033 A 
HETATM    5  C   UNL     1      43.504 -17.569   2.110  1.00  0.00     0.014 A 
HETATM    6  C   UNL     1      43.555 -17.799   3.494  1.00  0.00    -0.022 A 
HETATM    7  C   UNL     1      43.350 -16.720   4.361  1.00  0.00     0.031 A 
HETATM    8  C   UNL     1      43.098 -15.445   3.842  1.00  0.00     0.061 A 
HETATM    9  C   UNL     1      42.864 -14.297   4.735  1.00  0.00     0.259 A 
HETATM   10  O   UNL     1      42.895 -14.402   5.954  1.00  0.00    -0.267 OA
HETATM   11  N   UNL     1      42.601 -13.114   4.099  1.00  0.00    -0.309 N 
HETATM   12  H   UNL     1      42.409 -12.293   4.663  1.00  0.00     0.170 HD
ENDROOT
BRANCH   1  13
HETATM   13  C   UNL     1      42.218 -11.550   2.251  1.00  0.00     0.291 C 
BRANCH  13  14
HETATM   14  N   UNL     1      42.503 -10.584   3.343  1.00  0.00     0.090 N 
HETATM   15  H   UNL     1      42.029 -10.905   4.190  1.00  0.00     0.313 HD
HETATM   16  H   UNL     1      42.058  -9.694   3.112  1.00  0.00     0.313 HD
ENDBRANCH  13  14
BRANCH  13  17
HETATM   17  C   UNL     1      40.807 -11.404   1.642  1.00  0.00     0.082 C 
BRANCH  17  18
HETATM   18  C   UNL     1      40.586 -12.117   0.323  1.00  0.00    -0.053 A 
HETATM   19  C   UNL     1      41.044 -11.553  -0.880  1.00  0.00     0.010 A 
HETATM   20  C   UNL     1      40.855 -12.214  -2.096  1.00  0.00     0.046 A 
HETATM   21  C   UNL     1      40.201 -13.439  -2.117  1.00  0.00     0.154 A 
HETATM   22  F   UNL     1      40.023 -14.071  -3.285  1.00  0.00    -0.203 F 
HETATM   23  C   UNL     1      39.734 -14.002  -0.937  1.00  0.00     0.155 A 
HETATM   24  F   UNL     1      39.102 -15.185  -0.957  1.00  0.00    -0.203 F 
HETATM   25  C   UNL     1      39.919 -13.351   0.280  1.00  0.00     0.052 A 
ENDBRANCH  17  18
ENDBRANCH  13  17
ENDBRANCH   1  13
BRANCH   6  26
HETATM   26  C   UNL     1      43.800 -19.138   4.002  1.00  0.00     0.010 A 
HETATM   27  C   UNL     1      44.057 -19.598   5.316  1.00  0.00     0.152 A 
HETATM   28  N   UNL     1      44.223 -20.922   5.379  1.00  0.00    -0.187 NA
HETATM   29  N   UNL     1      44.074 -21.317   4.106  1.00  0.00    -0.289 N 
HETATM   30  H   UNL     1      44.157 -22.307   3.895  1.00  0.00     0.188 HD
HETATM   31  C   UNL     1      43.816 -20.290   3.244  1.00  0.00     0.123 A 
ENDBRANCH   6  26
TORSDOF 5
ENDMDL
MODEL 5
REMARK VINA RESULT:      -8.8      7.167     10.630
REMARK  5 active torsions:
REMARK  status: ('A' for Active; 'I' for Inactive)
REMARK    1  A    between atoms: N_1  and  C_2 
REMARK    2  A    between atoms: C_2  and  C_3 
REMARK    3  A    between atoms: C_2  and  C_12 
REMARK    4  A    between atoms: C_3  and  C_4 
REMARK    5  A    between atoms: C_17  and  C_23 
ROOT
HETATM    1  C   UNL     1      44.771 -10.715   8.125  1.00  0.00     0.141 A 
HETATM    2  N   UNL     1      44.352 -11.245   9.230  1.00  0.00    -0.232 NA
HETATM    3  C   UNL     1      43.969 -10.377  10.268  1.00  0.00     0.074 A 
HETATM    4  C   UNL     1      43.470 -10.923  11.450  1.00  0.00     0.033 A 
HETATM    5  C   UNL     1      43.051 -10.092  12.497  1.00  0.00     0.014 A 
HETATM    6  C   UNL     1      43.127  -8.695  12.383  1.00  0.00    -0.022 A 
HETATM    7  C   UNL     1      43.632  -8.145  11.199  1.00  0.00     0.031 A 
HETATM    8  C   UNL     1      44.045  -8.986  10.160  1.00  0.00     0.061 A 
HETATM    9  C   UNL     1      44.566  -8.430   8.899  1.00  0.00     0.259 A 
HETATM   10  O   UNL     1      44.674  -7.226   8.713  1.00  0.00    -0.267 OA
HETATM   11  N   UNL     1      44.909  -9.360   7.954  1.00  0.00    -0.309 N 
HETATM   12  H   UNL     1      45.253  -9.036   7.057  1.00  0.00     0.170 HD
ENDROOT
BRANCH   1  13
HETATM   13  C   UNL     1      45.218 -11.564   6.925  1.00  0.00     0.291 C 
BRANCH  13  14
HETATM   14  N   UNL     1      46.471 -10.999   6.362  1.00  0.00     0.090 N 
HETATM   15  H   UNL     1      46.894 -10.386   7.065  1.00  0.00     0.313 HD
HETATM   16  H   UNL     1      46.228 -10.382   5.586  1.00  0.00     0.313 HD
ENDBRANCH  13  14
BRANCH  13  17
HETATM   17  C   UNL     1      44.106 -11.780   5.877  1.00  0.00     0.082 C 
BRANCH  17  18
HETATM   18  C   UNL     1      43.158 -12.929   6.156  1.00  0.00    -0.053 A 
HETATM   19  C   UNL     1      43.633 -14.129   6.710  1.00  0.00     0.010 A 
HETATM   20  C   UNL     1      42.760 -15.186   6.982  1.00  0.00     0.046 A 
HETATM   21  C   UNL     1      41.408 -15.049   6.695  1.00  0.00     0.154 A 
HETATM   22  F   UNL     1      40.572 -16.064   6.958  1.00  0.00    -0.203 F 
HETATM   23  C   UNL     1      40.926 -13.872   6.137  1.00  0.00     0.155 A 
HETATM   24  F   UNL     1      39.621 -13.740   5.860  1.00  0.00    -0.203 F 
HETATM   25  C   UNL     1      41.790 -12.814   5.864  1.00  0.00     0.052 A 
ENDBRANCH  17  18
ENDBRANCH  13  17
ENDBRANCH   1  13
BRANCH   6  26
HETATM   26  C   UNL     1      42.671  -7.849  13.473  1.00  0.00     0.010 A 
HETATM   27  C   UNL     1      42.027  -8.172  14.690  1.00  0.00     0.152 A 
HETATM   28  N   UNL     1      41.774  -7.100  15.445  1.00  0.00    -0.187 NA
HETATM   29  N   UNL     1      42.255  -6.083  14.715  1.00  0.00    -0.289 N 
HETATM   30  H   UNL     1      42.179  -5.142  15.088  1.00  0.00     0.188 HD
HETATM   31  C   UNL     1      42.805  -6.477  13.529  1.00  0.00     0.123 A 
ENDBRANCH   6  26
TORSDOF 5
ENDMDL
MODEL 6
REMARK VINA RESULT:      -8.7      1.988      2.608
REMARK  5 active torsions:
REMARK  status: ('A' for Active; 'I' for Inactive)
REMARK    1  A    between atoms: N_1  and  C_2 
REMARK    2  A    between atoms: C_2  and  C_3 
REMARK    3  A    between atoms: C_2  and  C_12 
REMARK    4  A    between atoms: C_3  and  C_4 
REMARK    5  A    between atoms: C_17  and  C_23 
ROOT
HETATM    1  C   UNL     1      40.991 -14.878   3.362  1.00  0.00     0.141 A 
HETATM    2  N   UNL     1      40.797 -15.315   2.158  1.00  0.00    -0.232 NA
HETATM    3  C   UNL     1      40.175 -14.450   1.241  1.00  0.00     0.074 A 
HETATM    4  C   UNL     1      39.999 -14.879  -0.074  1.00  0.00     0.033 A 
HETATM    5  C   UNL     1      39.409 -14.037  -1.025  1.00  0.00     0.014 A 
HETATM    6  C   UNL     1      38.979 -12.747  -0.678  1.00  0.00    -0.022 A 
HETATM    7  C   UNL     1      39.150 -12.316   0.643  1.00  0.00     0.031 A 
HETATM    8  C   UNL     1      39.743 -13.166   1.584  1.00  0.00     0.061 A 
HETATM    9  C   UNL     1      39.947 -12.729   2.975  1.00  0.00     0.259 A 
HETATM   10  O   UNL     1      39.598 -11.624   3.369  1.00  0.00    -0.267 OA
HETATM   11  N   UNL     1      40.562 -13.645   3.785  1.00  0.00    -0.309 N 
HETATM   12  H   UNL     1      40.750 -13.391   4.749  1.00  0.00     0.170 HD
ENDROOT
BRANCH   1  13
HETATM   13  C   UNL     1      41.658 -15.735   4.449  1.00  0.00     0.291 C 
BRANCH  13  14
HETATM   14  N   UNL     1      41.471 -15.086   5.772  1.00  0.00     0.090 N 
HETATM   15  H   UNL     1      42.367 -15.094   6.266  1.00  0.00     0.313 HD
HETATM   16  H   UNL     1      40.853 -15.671   6.336  1.00  0.00     0.313 HD
ENDBRANCH  13  14
BRANCH  13  17
HETATM   17  C   UNL     1      43.125 -16.095   4.133  1.00  0.00     0.082 C 
BRANCH  17  18
HETATM   18  C   UNL     1      43.391 -17.557   3.835  1.00  0.00    -0.053 A 
HETATM   19  C   UNL     1      43.128 -18.086   2.561  1.00  0.00     0.010 A 
HETATM   20  C   UNL     1      43.385 -19.430   2.278  1.00  0.00     0.046 A 
HETATM   21  C   UNL     1      43.901 -20.253   3.271  1.00  0.00     0.154 A 
HETATM   22  F   UNL     1      44.149 -21.542   2.996  1.00  0.00    -0.203 F 
HETATM   23  C   UNL     1      44.156 -19.746   4.538  1.00  0.00     0.155 A 
HETATM   24  F   UNL     1      44.654 -20.540   5.496  1.00  0.00    -0.203 F 
HETATM   25  C   UNL     1      43.903 -18.407   4.828  1.00  0.00     0.052 A 
ENDBRANCH  17  18
ENDBRANCH  13  17
ENDBRANCH   1  13
BRANCH   6  26
HETATM   26  C   UNL     1      38.385 -11.882  -1.682  1.00  0.00     0.010 A 
HETATM   27  C   UNL     1      38.672 -10.542  -2.038  1.00  0.00     0.152 A 
HETATM   28  N   UNL     1      37.901 -10.093  -3.032  1.00  0.00    -0.187 NA
HETATM   29  N   UNL     1      37.116 -11.142  -3.319  1.00  0.00    -0.289 N 
HETATM   30  H   UNL     1      36.430 -11.043  -4.060  1.00  0.00     0.188 HD
HETATM   31  C   UNL     1      37.367 -12.237  -2.543  1.00  0.00     0.123 A 
ENDBRANCH   6  26
TORSDOF 5
ENDMDL
MODEL 7
REMARK VINA RESULT:      -8.7      4.460      7.237
REMARK  5 active torsions:
REMARK  status: ('A' for Active; 'I' for Inactive)
REMARK    1  A    between atoms: N_1  and  C_2 
REMARK    2  A    between atoms: C_2  and  C_3 
REMARK    3  A    between atoms: C_2  and  C_12 
REMARK    4  A    between atoms: C_3  and  C_4 
REMARK    5  A    between atoms: C_17  and  C_23 
ROOT
HETATM    1  C   UNL     1      41.543 -13.132   4.326  1.00  0.00     0.141 A 
HETATM    2  N   UNL     1      42.146 -13.633   3.295  1.00  0.00    -0.232 NA
HETATM    3  C   UNL     1      42.515 -14.989   3.349  1.00  0.00     0.074 A 
HETATM    4  C   UNL     1      43.123 -15.564   2.234  1.00  0.00     0.033 A 
HETATM    5  C   UNL     1      43.480 -16.919   2.237  1.00  0.00     0.014 A 
HETATM    6  C   UNL     1      43.239 -17.725   3.360  1.00  0.00    -0.022 A 
HETATM    7  C   UNL     1      42.634 -17.148   4.483  1.00  0.00     0.031 A 
HETATM    8  C   UNL     1      42.280 -15.794   4.466  1.00  0.00     0.061 A 
HETATM    9  C   UNL     1      41.628 -15.169   5.630  1.00  0.00     0.259 A 
HETATM   10  O   UNL     1      41.385 -15.793   6.654  1.00  0.00    -0.267 OA
HETATM   11  N   UNL     1      41.309 -13.847   5.473  1.00  0.00    -0.309 N 
HETATM   12  H   UNL     1      40.839 -13.369   6.233  1.00  0.00     0.170 HD
ENDROOT
BRANCH   1  13
HETATM   13  C   UNL     1      41.097 -11.663   4.381  1.00  0.00     0.291 C 
BRANCH  13  14
HETATM   14  N   UNL     1      40.081 -11.416   3.326  1.00  0.00     0.090 N 
HETATM   15  H   UNL     1      40.518 -11.575   2.414  1.00  0.00     0.313 HD
HETATM   16  H   UNL     1      39.839 -10.424   3.334  1.00  0.00     0.313 HD
ENDBRANCH  13  14
BRANCH  13  17
HETATM   17  C   UNL     1      42.272 -10.662   4.361  1.00  0.00     0.082 C 
BRANCH  17  18
HETATM   18  C   UNL     1      43.247 -10.774   5.516  1.00  0.00    -0.053 A 
HETATM   19  C   UNL     1      44.510 -11.361   5.330  1.00  0.00     0.010 A 
HETATM   20  C   UNL     1      45.418 -11.453   6.389  1.00  0.00     0.046 A 
HETATM   21  C   UNL     1      45.064 -10.964   7.640  1.00  0.00     0.154 A 
HETATM   22  F   UNL     1      45.937 -11.053   8.653  1.00  0.00    -0.203 F 
HETATM   23  C   UNL     1      43.815 -10.392   7.840  1.00  0.00     0.155 A 
HETATM   24  F   UNL     1      43.473  -9.921   9.048  1.00  0.00    -0.203 F 
HETATM   25  C   UNL     1      42.904 -10.295   6.790  1.00  0.00     0.052 A 
ENDBRANCH  17  18
ENDBRANCH  13  17
ENDBRANCH   1  13
BRANCH   6  26
HETATM   26  C   UNL     1      43.601 -19.132   3.338  1.00  0.00     0.010 A 
HETATM   27  C   UNL     1      43.588 -20.077   2.285  1.00  0.00     0.152 A 
HETATM   28  N   UNL     1      44.007 -21.286   2.665  1.00  0.00    -0.187 NA
HETATM   29  N   UNL     1      44.291 -21.123   3.967  1.00  0.00    -0.289 N 
HETATM   30  H   UNL     1      44.638 -21.922   4.489  1.00  0.00     0.188 HD
HETATM   31  C   UNL     1      44.069 -19.854   4.417  1.00  0.00     0.123 A 
ENDBRANCH   6  26
TORSDOF 5
ENDMDL
MODEL 8
REMARK VINA RESULT:      -8.4      2.496      3.713
REMARK  5 active torsions:
REMARK  status: ('A' for Active; 'I' for Inactive)
REMARK    1  A    between atoms: N_1  and  C_2 
REMARK    2  A    between atoms: C_2  and  C_3 
REMARK    3  A    between atoms: C_2  and  C_12 
REMARK    4  A    between atoms: C_3  and  C_4 
REMARK    5  A    between atoms: C_17  and  C_23 
ROOT
HETATM    1  C   UNL     1      40.823 -14.852   1.600  1.00  0.00     0.141 A 
HETATM    2  N   UNL     1      41.263 -13.634   1.561  1.00  0.00    -0.232 NA
HETATM    3  C   UNL     1      40.942 -12.859   0.433  1.00  0.00     0.074 A 
HETATM    4  C   UNL     1      41.365 -11.530   0.389  1.00  0.00     0.033 A 
HETATM    5  C   UNL     1      41.042 -10.716  -0.704  1.00  0.00     0.014 A 
HETATM    6  C   UNL     1      40.292 -11.217  -1.779  1.00  0.00    -0.022 A 
HETATM    7  C   UNL     1      39.872 -12.551  -1.740  1.00  0.00     0.031 A 
HETATM    8  C   UNL     1      40.199 -13.354  -0.641  1.00  0.00     0.061 A 
HETATM    9  C   UNL     1      39.754 -14.757  -0.570  1.00  0.00     0.259 A 
HETATM   10  O   UNL     1      39.102 -15.280  -1.463  1.00  0.00    -0.267 OA
HETATM   11  N   UNL     1      40.117 -15.422   0.570  1.00  0.00    -0.309 N 
HETATM   12  H   UNL     1      39.821 -16.385   0.685  1.00  0.00     0.170 HD
ENDROOT
BRANCH   1  13
HETATM   13  C   UNL     1      41.113 -15.792   2.779  1.00  0.00     0.291 C 
BRANCH  13  14
HETATM   14  N   UNL     1      40.344 -15.343   3.968  1.00  0.00     0.090 N 
HETATM   15  H   UNL     1      39.386 -15.137   3.674  1.00  0.00     0.313 HD
HETATM   16  H   UNL     1      40.723 -14.448   4.280  1.00  0.00     0.313 HD
ENDBRANCH  13  14
BRANCH  13  17
HETATM   17  C   UNL     1      42.619 -15.991   3.050  1.00  0.00     0.082 C 
BRANCH  17  18
HETATM   18  C   UNL     1      43.073 -17.429   3.204  1.00  0.00    -0.053 A 
HETATM   19  C   UNL     1      43.695 -17.859   4.389  1.00  0.00     0.010 A 
HETATM   20  C   UNL     1      44.102 -19.187   4.541  1.00  0.00     0.046 A 
HETATM   21  C   UNL     1      43.894 -20.091   3.507  1.00  0.00     0.154 A 
HETATM   22  F   UNL     1      44.284 -21.364   3.656  1.00  0.00    -0.203 F 
HETATM   23  C   UNL     1      43.291 -19.677   2.327  1.00  0.00     0.155 A 
HETATM   24  F   UNL     1      43.091 -20.548   1.328  1.00  0.00    -0.203 F 
HETATM   25  C   UNL     1      42.881 -18.355   2.167  1.00  0.00     0.052 A 
ENDBRANCH  17  18
ENDBRANCH  13  17
ENDBRANCH   1  13
BRANCH   6  26
HETATM   26  C   UNL     1      39.952 -10.352  -2.896  1.00  0.00     0.010 A 
HETATM   27  C   UNL     1      40.769  -9.555  -3.733  1.00  0.00     0.152 A 
HETATM   28  N   UNL     1      40.073  -8.902  -4.668  1.00  0.00    -0.187 NA
HETATM   29  N   UNL     1      38.806  -9.277  -4.435  1.00  0.00    -0.289 N 
HETATM   30  H   UNL     1      38.075  -8.904  -5.032  1.00  0.00     0.188 HD
HETATM   31  C   UNL     1      38.680 -10.146  -3.389  1.00  0.00     0.123 A 
ENDBRANCH   6  26
TORSDOF 5
ENDMDL
MODEL 9
REMARK VINA RESULT:      -8.3      4.031      8.049
REMARK  5 active torsions:
REMARK  status: ('A' for Active; 'I' for Inactive)
REMARK    1  A    between atoms: N_1  and  C_2 
REMARK    2  A    between atoms: C_2  and  C_3 
REMARK    3  A    between atoms: C_2  and  C_12 
REMARK    4  A    between atoms: C_3  and  C_4 
REMARK    5  A    between atoms: C_17  and  C_23 
ROOT
HETATM    1  C   UNL     1      40.241 -13.410   1.727  1.00  0.00     0.141 A 
HETATM    2  N   UNL     1      41.287 -13.580   2.472  1.00  0.00    -0.232 NA
HETATM    3  C   UNL     1      41.765 -14.891   2.639  1.00  0.00     0.074 A 
HETATM    4  C   UNL     1      42.917 -15.094   3.399  1.00  0.00     0.033 A 
HETATM    5  C   UNL     1      43.442 -16.382   3.567  1.00  0.00     0.014 A 
HETATM    6  C   UNL     1      42.820 -17.495   2.981  1.00  0.00    -0.022 A 
HETATM    7  C   UNL     1      41.661 -17.295   2.223  1.00  0.00     0.031 A 
HETATM    8  C   UNL     1      41.148 -16.003   2.061  1.00  0.00     0.061 A 
HETATM    9  C   UNL     1      39.938 -15.765   1.255  1.00  0.00     0.259 A 
HETATM   10  O   UNL     1      39.326 -16.675   0.712  1.00  0.00    -0.267 OA
HETATM   11  N   UNL     1      39.558 -14.454   1.153  1.00  0.00    -0.309 N 
HETATM   12  H   UNL     1      38.745 -14.226   0.593  1.00  0.00     0.170 HD
ENDROOT
BRANCH   1  13
HETATM   13  C   UNL     1      39.629 -12.024   1.474  1.00  0.00     0.291 C 
BRANCH  13  14
HETATM   14  N   UNL     1      38.188 -12.049   1.835  1.00  0.00     0.090 N 
HETATM   15  H   UNL     1      38.064 -12.683   2.628  1.00  0.00     0.313 HD
HETATM   16  H   UNL     1      37.670 -12.481   1.068  1.00  0.00     0.313 HD
ENDBRANCH  13  14
BRANCH  13  17
HETATM   17  C   UNL     1      39.908 -11.479   0.057  1.00  0.00     0.082 C 
BRANCH  17  18
HETATM   18  C   UNL     1      39.456 -12.365  -1.086  1.00  0.00    -0.053 A 
HETATM   19  C   UNL     1      40.385 -13.145  -1.796  1.00  0.00     0.010 A 
HETATM   20  C   UNL     1      39.972 -13.974  -2.841  1.00  0.00     0.046 A 
HETATM   21  C   UNL     1      38.627 -14.023  -3.187  1.00  0.00     0.154 A 
HETATM   22  F   UNL     1      38.233 -14.820  -4.190  1.00  0.00    -0.203 F 
HETATM   23  C   UNL     1      37.700 -13.249  -2.502  1.00  0.00     0.155 A 
HETATM   24  F   UNL     1      36.403 -13.296  -2.836  1.00  0.00    -0.203 F 
HETATM   25  C   UNL     1      38.104 -12.420  -1.458  1.00  0.00     0.052 A 
ENDBRANCH  17  18
ENDBRANCH  13  17
ENDBRANCH   1  13
BRANCH   6  26
HETATM   26  C   UNL     1      43.389 -18.821   3.152  1.00  0.00     0.010 A 
HETATM   27  C   UNL     1      43.384 -19.949   2.296  1.00  0.00     0.152 A 
HETATM   28  N   UNL     1      44.030 -20.996   2.814  1.00  0.00    -0.187 NA
HETATM   29  N   UNL     1      44.453 -20.546   4.005  1.00  0.00    -0.289 N 
HETATM   30  H   UNL     1      44.983 -21.175   4.599  1.00  0.00     0.188 HD
HETATM   31  C   UNL     1      44.099 -19.251   4.254  1.00  0.00     0.123 A 
ENDBRANCH   6  26
TORSDOF 5
ENDMDL
MODEL 10
REMARK VINA RESULT:      -8.2      3.019      4.697
REMARK  5 active torsions:
REMARK  status: ('A' for Active; 'I' for Inactive)
REMARK    1  A    between atoms: N_1  and  C_2 
REMARK    2  A    between atoms: C_2  and  C_3 
REMARK    3  A    between atoms: C_2  and  C_12 
REMARK    4  A    between atoms: C_3  and  C_4 
REMARK    5  A    between atoms: C_17  and  C_23 
ROOT
HETATM    1  C   UNL     1      40.405 -14.314   0.585  1.00  0.00     0.141 A 
HETATM    2  N   UNL     1      40.984 -13.155   0.540  1.00  0.00    -0.232 NA
HETATM    3  C   UNL     1      40.703 -12.327  -0.561  1.00  0.00     0.074 A 
HETATM    4  C   UNL     1      41.276 -11.057  -0.609  1.00  0.00     0.033 A 
HETATM    5  C   UNL     1      41.000 -10.190  -1.674  1.00  0.00     0.014 A 
HETATM    6  C   UNL     1      40.145 -10.579  -2.716  1.00  0.00    -0.022 A 
HETATM    7  C   UNL     1      39.573 -11.856  -2.673  1.00  0.00     0.031 A 
HETATM    8  C   UNL     1      39.855 -12.712  -1.603  1.00  0.00     0.061 A 
HETATM    9  C   UNL     1      39.253 -14.054  -1.528  1.00  0.00     0.259 A 
HETATM   10  O   UNL     1      38.501 -14.481  -2.394  1.00  0.00    -0.267 OA
HETATM   11  N   UNL     1      39.589 -14.778  -0.416  1.00  0.00    -0.309 N 
HETATM   12  H   UNL     1      39.187 -15.701  -0.298  1.00  0.00     0.170 HD
ENDROOT
BRANCH   1  13
HETATM   13  C   UNL     1      40.639 -15.304   1.737  1.00  0.00     0.291 C 
BRANCH  13  14
HETATM   14  N   UNL     1      39.379 -15.470   2.506  1.00  0.00     0.090 N 
HETATM   15  H   UNL     1      38.639 -15.751   1.858  1.00  0.00     0.313 HD
HETATM   16  H   UNL     1      39.091 -14.555   2.856  1.00  0.00     0.313 HD
ENDBRANCH  13  14
BRANCH  13  17
HETATM   17  C   UNL     1      41.861 -14.951   2.610  1.00  0.00     0.082 C 
BRANCH  17  18
HETATM   18  C   UNL     1      42.655 -16.132   3.133  1.00  0.00    -0.053 A 
HETATM   19  C   UNL     1      42.746 -17.319   2.386  1.00  0.00     0.010 A 
HETATM   20  C   UNL     1      43.488 -18.405   2.857  1.00  0.00     0.046 A 
HETATM   21  C   UNL     1      44.139 -18.311   4.081  1.00  0.00     0.154 A 
HETATM   22  F   UNL     1      44.851 -19.354   4.529  1.00  0.00    -0.203 F 
HETATM   23  C   UNL     1      44.048 -17.149   4.834  1.00  0.00     0.155 A 
HETATM   24  F   UNL     1      44.676 -17.058   6.016  1.00  0.00    -0.203 F 
HETATM   25  C   UNL     1      43.311 -16.061   4.372  1.00  0.00     0.052 A 
ENDBRANCH  17  18
ENDBRANCH  13  17
ENDBRANCH   1  13
BRANCH   6  26
HETATM   26  C   UNL     1      39.856  -9.661  -3.804  1.00  0.00     0.010 A 
HETATM   27  C   UNL     1      40.713  -8.849  -4.584  1.00  0.00     0.152 A 
HETATM   28  N   UNL     1      40.059  -8.140  -5.508  1.00  0.00    -0.187 NA
HETATM   29  N   UNL     1      38.778  -8.494  -5.325  1.00  0.00    -0.289 N 
HETATM   30  H   UNL     1      38.072  -8.078  -5.924  1.00  0.00     0.188 HD
HETATM   31  C   UNL     1      38.603  -9.403  -4.321  1.00  0.00     0.123 A 
ENDBRANCH   6  26
TORSDOF 5
ENDMDL
