MODEL 1
REMARK VINA RESULT:      -9.6      0.000      0.000
REMARK  7 active torsions:
REMARK  status: ('A' for Active; 'I' for Inactive)
REMARK    1  A    between atoms: C_7  and  C_8 
REMARK    2  A    between atoms: C_8  and  C_9 
REMARK       I    between atoms: C_9  and  N_10 
REMARK    3  A    between atoms: N_10  and  N_11 
REMARK       I    between atoms: N_11  and  C_12 
REMARK    4  A    between atoms: C_12  and  C_13 
REMARK    5  A    between atoms: C_23  and  O_24 
REMARK    6  A    between atoms: O_24  and  C_25 
REMARK    7  A    between atoms: C_25  and  C_26 
ROOT
HETATM    1  C   UNL     1      43.606 -19.121   6.297  1.00  0.00     0.068 C 
HETATM    2  C   UNL     1      43.224 -18.093   5.293  1.00  0.00     0.013 A 
HETATM    3  N   UNL     1      43.655 -18.166   3.992  1.00  0.00    -0.359 N 
HETATM    4  H   UNL     1      44.244 -18.895   3.613  1.00  0.00     0.166 HD
HETATM    5  C   UNL     1      43.170 -17.107   3.263  1.00  0.00     0.043 A 
HETATM    6  C   UNL     1      42.405 -16.328   4.128  1.00  0.00     0.002 A 
HETATM    7  C   UNL     1      42.450 -16.949   5.419  1.00  0.00    -0.015 A 
HETATM    8  C   UNL     1      43.351 -16.784   1.915  1.00  0.00     0.033 A 
HETATM    9  C   UNL     1      42.722 -15.630   1.428  1.00  0.00     0.039 A 
HETATM   10  C   UNL     1      41.940 -14.830   2.260  1.00  0.00     0.070 A 
HETATM   11  C   UNL     1      41.786 -15.170   3.611  1.00  0.00     0.051 A 
ENDROOT
BRANCH   7  12
HETATM   12  C   UNL     1      41.784 -16.452   6.666  1.00  0.00     0.146 C 
BRANCH  12  13
HETATM   13  C   UNL     1      42.581 -15.414   7.440  1.00  0.00     0.240 C 
HETATM   14  N   UNL     1      42.501 -14.116   6.981  1.00  0.00    -0.267 N 
HETATM   15  H   UNL     1      42.138 -13.877   6.058  1.00  0.00     0.190 HD
HETATM   16  O   UNL     1      43.194 -15.711   8.470  1.00  0.00    -0.272 OA
BRANCH  14  17
HETATM   17  N   UNL     1      43.253 -13.136   7.629  1.00  0.00    -0.262 N 
HETATM   18  C   UNL     1      44.056 -12.289   6.896  1.00  0.00     0.288 C 
HETATM   19  O   UNL     1      44.207 -12.373   5.681  1.00  0.00    -0.264 OA
HETATM   20  H   UNL     1      43.155 -13.032   8.641  1.00  0.00     0.190 HD
BRANCH  18  21
HETATM   21  C   UNL     1      44.735 -11.235   7.712  1.00  0.00     0.125 A 
HETATM   22  N   UNL     1      44.268 -11.055   8.980  1.00  0.00    -0.255 NA
HETATM   23  C   UNL     1      44.870 -10.093   9.711  1.00  0.00     0.117 A 
HETATM   24  C   UNL     1      45.909  -9.303   9.242  1.00  0.00     0.019 A 
HETATM   25  C   UNL     1      46.366  -9.509   7.943  1.00  0.00     0.004 A 
HETATM   26  C   UNL     1      45.771 -10.493   7.159  1.00  0.00     0.037 A 
ENDBRANCH  18  21
ENDBRANCH  14  17
ENDBRANCH  12  13
ENDBRANCH   7  12
BRANCH  10  27
HETATM   27  O   UNL     1      41.271 -13.694   1.888  1.00  0.00    -0.347 OA
BRANCH  27  28
HETATM   28  C   UNL     1      40.042 -13.863   1.179  1.00  0.00     0.214 C 
BRANCH  28  29
HETATM   29  C   UNL     1      40.212 -13.542  -0.291  1.00  0.00    -0.034 A 
HETATM   30  C   UNL     1      39.699 -14.373  -1.299  1.00  0.00     0.009 A 
HETATM   31  C   UNL     1      39.848 -14.033  -2.645  1.00  0.00     0.001 A 
HETATM   32  C   UNL     1      40.498 -12.853  -3.002  1.00  0.00     0.000 A 
HETATM   33  C   UNL     1      40.998 -12.010  -2.012  1.00  0.00     0.001 A 
HETATM   34  C   UNL     1      40.852 -12.349  -0.665  1.00  0.00     0.009 A 
ENDBRANCH  28  29
ENDBRANCH  27  28
ENDBRANCH  10  27
TORSDOF 7
ENDMDL
MODEL 2
REMARK VINA RESULT:      -9.6      3.980      6.196
REMARK  7 active torsions:
REMARK  status: ('A' for Active; 'I' for Inactive)
REMARK    1  A    between atoms: C_7  and  C_8 
REMARK    2  A    between atoms: C_8  and  C_9 
REMARK       I    between atoms: C_9  and  N_10 
REMARK    3  A    between atoms: N_10  and  N_11 
REMARK       I    between atoms: N_11  and  C_12 
REMARK    4  A    between atoms: C_12  and  C_13 
REMARK    5  A    between atoms: C_23  and  O_24 
REMARK    6  A    between atoms: O_24  and  C_25 
REMARK    7  A    between atoms: C_25  and  C_26 
ROOT
HETATM    1  C   UNL     1      42.173  -9.872   5.672  1.00  0.00     0.068 C 
HETATM    2  C   UNL     1      42.260 -11.355   5.734  1.00  0.00     0.013 A 
HETATM    3  N   UNL     1      41.212 -12.153   5.349  1.00  0.00    -0.359 N 
HETATM    4  H   UNL     1      40.323 -11.819   5.001  1.00  0.00     0.166 HD
HETATM    5  C   UNL     1      41.536 -13.480   5.497  1.00  0.00     0.043 A 
HETATM    6  C   UNL     1      42.835 -13.534   5.996  1.00  0.00     0.002 A 
HETATM    7  C   UNL     1      43.289 -12.184   6.157  1.00  0.00    -0.015 A 
HETATM    8  C   UNL     1      40.782 -14.626   5.228  1.00  0.00     0.033 A 
HETATM    9  C   UNL     1      41.376 -15.873   5.468  1.00  0.00     0.039 A 
HETATM   10  C   UNL     1      42.678 -15.967   5.958  1.00  0.00     0.070 A 
HETATM   11  C   UNL     1      43.407 -14.802   6.230  1.00  0.00     0.051 A 
ENDROOT
BRANCH   7  12
HETATM   12  C   UNL     1      44.625 -11.754   6.683  1.00  0.00     0.146 C 
BRANCH  12  13
HETATM   13  C   UNL     1      44.599 -11.186   8.093  1.00  0.00     0.240 C 
HETATM   14  N   UNL     1      43.383 -11.221   8.743  1.00  0.00    -0.267 N 
HETATM   15  H   UNL     1      42.501 -11.389   8.257  1.00  0.00     0.190 HD
HETATM   16  O   UNL     1      45.630 -10.794   8.648  1.00  0.00    -0.272 OA
BRANCH  14  17
HETATM   17  N   UNL     1      43.297 -10.667  10.019  1.00  0.00    -0.262 N 
HETATM   18  C   UNL     1      42.518  -9.550  10.233  1.00  0.00     0.288 C 
HETATM   19  O   UNL     1      41.920  -8.954   9.342  1.00  0.00    -0.264 OA
HETATM   20  H   UNL     1      43.779 -11.134  10.790  1.00  0.00     0.190 HD
BRANCH  18  21
HETATM   21  C   UNL     1      42.451  -9.119  11.665  1.00  0.00     0.125 A 
HETATM   22  N   UNL     1      41.488  -9.704  12.429  1.00  0.00    -0.255 NA
HETATM   23  C   UNL     1      41.417  -9.303  13.717  1.00  0.00     0.117 A 
HETATM   24  C   UNL     1      42.255  -8.351  14.276  1.00  0.00     0.019 A 
HETATM   25  C   UNL     1      43.231  -7.770  13.471  1.00  0.00     0.004 A 
HETATM   26  C   UNL     1      43.336  -8.158  12.139  1.00  0.00     0.037 A 
ENDBRANCH  18  21
ENDBRANCH  14  17
ENDBRANCH  12  13
ENDBRANCH   7  12
BRANCH  10  27
HETATM   27  O   UNL     1      43.359 -17.128   6.214  1.00  0.00    -0.347 OA
BRANCH  27  28
HETATM   28  C   UNL     1      44.467 -17.435   5.367  1.00  0.00     0.214 C 
BRANCH  28  29
HETATM   29  C   UNL     1      44.075 -18.432   4.296  1.00  0.00    -0.034 A 
HETATM   30  C   UNL     1      44.204 -19.816   4.484  1.00  0.00     0.009 A 
HETATM   31  C   UNL     1      43.806 -20.709   3.487  1.00  0.00     0.001 A 
HETATM   32  C   UNL     1      43.263 -20.233   2.296  1.00  0.00     0.000 A 
HETATM   33  C   UNL     1      43.113 -18.861   2.102  1.00  0.00     0.001 A 
HETATM   34  C   UNL     1      43.512 -17.967   3.096  1.00  0.00     0.009 A 
ENDBRANCH  28  29
ENDBRANCH  27  28
ENDBRANCH  10  27
TORSDOF 7
ENDMDL
MODEL 3
REMARK VINA RESULT:      -9.5      2.886      5.894
REMARK  7 active torsions:
REMARK  status: ('A' for Active; 'I' for Inactive)
REMARK    1  A    between atoms: C_7  and  C_8 
REMARK    2  A    between atoms: C_8  and  C_9 
REMARK       I    between atoms: C_9  and  N_10 
REMARK    3  A    between atoms: N_10  and  N_11 
REMARK       I    between atoms: N_11  and  C_12 
REMARK    4  A    between atoms: C_12  and  C_13 
REMARK    5  A    between atoms: C_23  and  O_24 
REMARK    6  A    between atoms: O_24  and  C_25 
REMARK    7  A    between atoms: C_25  and  C_26 
ROOT
HETATM    1  C   UNL     1      41.628 -10.889   1.459  1.00  0.00     0.068 C 
HETATM    2  C   UNL     1      41.714 -12.132   2.271  1.00  0.00     0.013 A 
HETATM    3  N   UNL     1      40.859 -13.185   2.066  1.00  0.00    -0.359 N 
HETATM    4  H   UNL     1      40.124 -13.212   1.372  1.00  0.00     0.166 HD
HETATM    5  C   UNL     1      41.139 -14.211   2.935  1.00  0.00     0.043 A 
HETATM    6  C   UNL     1      42.209 -13.800   3.727  1.00  0.00     0.002 A 
HETATM    7  C   UNL     1      42.565 -12.475   3.312  1.00  0.00    -0.015 A 
HETATM    8  C   UNL     1      40.530 -15.461   3.079  1.00  0.00     0.033 A 
HETATM    9  C   UNL     1      41.034 -16.328   4.058  1.00  0.00     0.039 A 
HETATM   10  C   UNL     1      42.111 -15.956   4.863  1.00  0.00     0.070 A 
HETATM   11  C   UNL     1      42.695 -14.691   4.706  1.00  0.00     0.051 A 
ENDROOT
BRANCH   7  12
HETATM   12  C   UNL     1      43.654 -11.626   3.895  1.00  0.00     0.146 C 
BRANCH  12  13
HETATM   13  C   UNL     1      43.327 -11.019   5.250  1.00  0.00     0.240 C 
HETATM   14  N   UNL     1      43.851 -11.664   6.351  1.00  0.00    -0.267 N 
HETATM   15  H   UNL     1      44.231 -12.610   6.308  1.00  0.00     0.190 HD
HETATM   16  O   UNL     1      42.699  -9.960   5.346  1.00  0.00    -0.272 OA
BRANCH  14  17
HETATM   17  N   UNL     1      43.539 -11.173   7.618  1.00  0.00    -0.262 N 
HETATM   18  C   UNL     1      44.549 -10.843   8.495  1.00  0.00     0.288 C 
HETATM   19  O   UNL     1      45.742 -11.009   8.256  1.00  0.00    -0.264 OA
HETATM   20  H   UNL     1      42.557 -11.019   7.856  1.00  0.00     0.190 HD
BRANCH  18  21
HETATM   21  C   UNL     1      44.069 -10.248   9.782  1.00  0.00     0.125 A 
HETATM   22  N   UNL     1      43.800 -11.123  10.791  1.00  0.00    -0.255 NA
HETATM   23  C   UNL     1      43.351 -10.587  11.946  1.00  0.00     0.117 A 
HETATM   24  C   UNL     1      43.157  -9.229  12.143  1.00  0.00     0.019 A 
HETATM   25  C   UNL     1      43.442  -8.358  11.095  1.00  0.00     0.004 A 
HETATM   26  C   UNL     1      43.907  -8.872   9.888  1.00  0.00     0.037 A 
ENDBRANCH  18  21
ENDBRANCH  14  17
ENDBRANCH  12  13
ENDBRANCH   7  12
BRANCH  10  27
HETATM   27  O   UNL     1      42.691 -16.726   5.835  1.00  0.00    -0.347 OA
BRANCH  27  28
HETATM   28  C   UNL     1      43.997 -17.240   5.569  1.00  0.00     0.214 C 
BRANCH  28  29
HETATM   29  C   UNL     1      43.924 -18.535   4.787  1.00  0.00    -0.034 A 
HETATM   30  C   UNL     1      43.847 -18.556   3.387  1.00  0.00     0.009 A 
HETATM   31  C   UNL     1      43.811 -19.768   2.695  1.00  0.00     0.001 A 
HETATM   32  C   UNL     1      43.863 -20.975   3.391  1.00  0.00     0.000 A 
HETATM   33  C   UNL     1      43.955 -20.969   4.781  1.00  0.00     0.001 A 
HETATM   34  C   UNL     1      43.990 -19.758   5.475  1.00  0.00     0.009 A 
ENDBRANCH  28  29
ENDBRANCH  27  28
ENDBRANCH  10  27
TORSDOF 7
ENDMDL
MODEL 4
REMARK VINA RESULT:      -9.1      2.964      5.843
REMARK  7 active torsions:
REMARK  status: ('A' for Active; 'I' for Inactive)
REMARK    1  A    between atoms: C_7  and  C_8 
REMARK    2  A    between atoms: C_8  and  C_9 
REMARK       I    between atoms: C_9  and  N_10 
REMARK    3  A    between atoms: N_10  and  N_11 
REMARK       I    between atoms: N_11  and  C_12 
REMARK    4  A    between atoms: C_12  and  C_13 
REMARK    5  A    between atoms: C_23  and  O_24 
REMARK    6  A    between atoms: O_24  and  C_25 
REMARK    7  A    between atoms: C_25  and  C_26 
ROOT
HETATM    1  C   UNL     1      38.533 -10.667   2.557  1.00  0.00     0.068 C 
HETATM    2  C   UNL     1      39.378 -11.890   2.562  1.00  0.00     0.013 A 
HETATM    3  N   UNL     1      38.824 -13.146   2.587  1.00  0.00    -0.359 N 
HETATM    4  H   UNL     1      37.833 -13.346   2.601  1.00  0.00     0.166 HD
HETATM    5  C   UNL     1      39.806 -14.107   2.584  1.00  0.00     0.043 A 
HETATM    6  C   UNL     1      41.031 -13.444   2.561  1.00  0.00     0.002 A 
HETATM    7  C   UNL     1      40.757 -12.037   2.559  1.00  0.00    -0.015 A 
HETATM    8  C   UNL     1      39.702 -15.501   2.602  1.00  0.00     0.033 A 
HETATM    9  C   UNL     1      40.889 -16.247   2.586  1.00  0.00     0.039 A 
HETATM   10  C   UNL     1      42.133 -15.619   2.552  1.00  0.00     0.070 A 
HETATM   11  C   UNL     1      42.209 -14.220   2.547  1.00  0.00     0.051 A 
ENDROOT
BRANCH   7  12
HETATM   12  C   UNL     1      41.774 -10.936   2.553  1.00  0.00     0.146 C 
BRANCH  12  13
HETATM   13  C   UNL     1      42.125 -10.389   3.928  1.00  0.00     0.240 C 
HETATM   14  N   UNL     1      43.023 -11.129   4.668  1.00  0.00    -0.267 N 
HETATM   15  H   UNL     1      43.267 -12.093   4.439  1.00  0.00     0.190 HD
HETATM   16  O   UNL     1      41.691  -9.301   4.317  1.00  0.00    -0.272 OA
BRANCH  14  17
HETATM   17  N   UNL     1      43.339 -10.694   5.955  1.00  0.00    -0.262 N 
HETATM   18  C   UNL     1      44.288 -11.366   6.694  1.00  0.00     0.288 C 
HETATM   19  O   UNL     1      44.854 -12.386   6.313  1.00  0.00    -0.264 OA
HETATM   20  H   UNL     1      42.891  -9.846   6.310  1.00  0.00     0.190 HD
BRANCH  18  21
HETATM   21  C   UNL     1      44.587 -10.736   8.018  1.00  0.00     0.125 A 
HETATM   22  N   UNL     1      43.816 -11.138   9.068  1.00  0.00    -0.255 NA
HETATM   23  C   UNL     1      44.075 -10.558  10.259  1.00  0.00     0.117 A 
HETATM   24  C   UNL     1      45.058  -9.601  10.455  1.00  0.00     0.019 A 
HETATM   25  C   UNL     1      45.831  -9.210   9.365  1.00  0.00     0.004 A 
HETATM   26  C   UNL     1      45.596  -9.786   8.120  1.00  0.00     0.037 A 
ENDBRANCH  18  21
ENDBRANCH  14  17
ENDBRANCH  12  13
ENDBRANCH   7  12
BRANCH  10  27
HETATM   27  O   UNL     1      43.350 -16.248   2.519  1.00  0.00    -0.347 OA
BRANCH  27  28
HETATM   28  C   UNL     1      43.408 -17.525   1.882  1.00  0.00     0.214 C 
BRANCH  28  29
HETATM   29  C   UNL     1      43.621 -18.630   2.895  1.00  0.00    -0.034 A 
HETATM   30  C   UNL     1      43.681 -19.981   2.522  1.00  0.00     0.009 A 
HETATM   31  C   UNL     1      43.908 -20.973   3.477  1.00  0.00     0.001 A 
HETATM   32  C   UNL     1      44.090 -20.629   4.815  1.00  0.00     0.000 A 
HETATM   33  C   UNL     1      44.050 -19.290   5.198  1.00  0.00     0.001 A 
HETATM   34  C   UNL     1      43.821 -18.297   4.244  1.00  0.00     0.009 A 
ENDBRANCH  28  29
ENDBRANCH  27  28
ENDBRANCH  10  27
TORSDOF 7
ENDMDL
MODEL 5
REMARK VINA RESULT:      -9.0      3.016      8.273
REMARK  7 active torsions:
REMARK  status: ('A' for Active; 'I' for Inactive)
REMARK    1  A    between atoms: C_7  and  C_8 
REMARK    2  A    between atoms: C_8  and  C_9 
REMARK       I    between atoms: C_9  and  N_10 
REMARK    3  A    between atoms: N_10  and  N_11 
REMARK       I    between atoms: N_11  and  C_12 
REMARK    4  A    between atoms: C_12  and  C_13 
REMARK    5  A    between atoms: C_23  and  O_24 
REMARK    6  A    between atoms: O_24  and  C_25 
REMARK    7  A    between atoms: C_25  and  C_26 
ROOT
HETATM    1  C   UNL     1      40.270  -9.823   6.537  1.00  0.00     0.068 C 
HETATM    2  C   UNL     1      41.048 -11.080   6.389  1.00  0.00     0.013 A 
HETATM    3  N   UNL     1      42.363 -11.161   6.772  1.00  0.00    -0.359 N 
HETATM    4  H   UNL     1      42.900 -10.405   7.176  1.00  0.00     0.166 HD
HETATM    5  C   UNL     1      42.859 -12.421   6.537  1.00  0.00     0.043 A 
HETATM    6  C   UNL     1      41.826 -13.172   5.981  1.00  0.00     0.002 A 
HETATM    7  C   UNL     1      40.681 -12.317   5.876  1.00  0.00    -0.015 A 
HETATM    8  C   UNL     1      44.133 -12.946   6.773  1.00  0.00     0.033 A 
HETATM    9  C   UNL     1      44.361 -14.288   6.439  1.00  0.00     0.039 A 
HETATM   10  C   UNL     1      43.349 -15.075   5.890  1.00  0.00     0.070 A 
HETATM   11  C   UNL     1      42.084 -14.519   5.652  1.00  0.00     0.051 A 
ENDROOT
BRANCH   7  12
HETATM   12  C   UNL     1      39.341 -12.692   5.319  1.00  0.00     0.146 C 
BRANCH  12  13
HETATM   13  C   UNL     1      39.223 -12.558   3.809  1.00  0.00     0.240 C 
HETATM   14  N   UNL     1      39.261 -13.732   3.087  1.00  0.00    -0.267 N 
HETATM   15  H   UNL     1      39.583 -14.615   3.484  1.00  0.00     0.190 HD
HETATM   16  O   UNL     1      39.019 -11.464   3.275  1.00  0.00    -0.272 OA
BRANCH  14  17
HETATM   17  N   UNL     1      39.205 -13.657   1.695  1.00  0.00    -0.262 N 
HETATM   18  C   UNL     1      40.371 -13.608   0.962  1.00  0.00     0.288 C 
HETATM   19  O   UNL     1      41.491 -13.568   1.462  1.00  0.00    -0.264 OA
HETATM   20  H   UNL     1      38.291 -13.689   1.239  1.00  0.00     0.190 HD
BRANCH  18  21
HETATM   21  C   UNL     1      40.159 -13.618  -0.520  1.00  0.00     0.125 A 
HETATM   22  N   UNL     1      40.741 -12.605  -1.221  1.00  0.00    -0.255 NA
HETATM   23  C   UNL     1      40.537 -12.605  -2.556  1.00  0.00     0.117 A 
HETATM   24  C   UNL     1      39.783 -13.559  -3.222  1.00  0.00     0.019 A 
HETATM   25  C   UNL     1      39.201 -14.583  -2.480  1.00  0.00     0.004 A 
HETATM   26  C   UNL     1      39.390 -14.618  -1.101  1.00  0.00     0.037 A 
ENDBRANCH  18  21
ENDBRANCH  14  17
ENDBRANCH  12  13
ENDBRANCH   7  12
BRANCH  10  27
HETATM   27  O   UNL     1      43.457 -16.395   5.541  1.00  0.00    -0.347 OA
BRANCH  27  28
HETATM   28  C   UNL     1      43.483 -16.702   4.147  1.00  0.00     0.214 C 
BRANCH  28  29
HETATM   29  C   UNL     1      43.663 -18.189   3.920  1.00  0.00    -0.034 A 
HETATM   30  C   UNL     1      44.020 -19.063   4.957  1.00  0.00     0.009 A 
HETATM   31  C   UNL     1      44.149 -20.433   4.720  1.00  0.00     0.001 A 
HETATM   32  C   UNL     1      43.911 -20.949   3.447  1.00  0.00     0.000 A 
HETATM   33  C   UNL     1      43.540 -20.095   2.411  1.00  0.00     0.001 A 
HETATM   34  C   UNL     1      43.412 -18.725   2.646  1.00  0.00     0.009 A 
ENDBRANCH  28  29
ENDBRANCH  27  28
ENDBRANCH  10  27
TORSDOF 7
ENDMDL
MODEL 6
REMARK VINA RESULT:      -8.8      2.729      8.046
REMARK  7 active torsions:
REMARK  status: ('A' for Active; 'I' for Inactive)
REMARK    1  A    between atoms: C_7  and  C_8 
REMARK    2  A    between atoms: C_8  and  C_9 
REMARK       I    between atoms: C_9  and  N_10 
REMARK    3  A    between atoms: N_10  and  N_11 
REMARK       I    between atoms: N_11  and  C_12 
REMARK    4  A    between atoms: C_12  and  C_13 
REMARK    5  A    between atoms: C_23  and  O_24 
REMARK    6  A    between atoms: O_24  and  C_25 
REMARK    7  A    between atoms: C_25  and  C_26 
ROOT
HETATM    1  C   UNL     1      43.949 -19.562   2.721  1.00  0.00     0.068 C 
HETATM    2  C   UNL     1      43.772 -18.350   3.563  1.00  0.00     0.013 A 
HETATM    3  N   UNL     1      44.493 -18.163   4.715  1.00  0.00    -0.359 N 
HETATM    4  H   UNL     1      45.183 -18.805   5.080  1.00  0.00     0.166 HD
HETATM    5  C   UNL     1      44.152 -16.973   5.311  1.00  0.00     0.043 A 
HETATM    6  C   UNL     1      43.177 -16.378   4.514  1.00  0.00     0.002 A 
HETATM    7  C   UNL     1      42.928 -17.259   3.411  1.00  0.00    -0.015 A 
HETATM    8  C   UNL     1      44.631 -16.385   6.485  1.00  0.00     0.033 A 
HETATM    9  C   UNL     1      44.103 -15.141   6.857  1.00  0.00     0.039 A 
HETATM   10  C   UNL     1      43.132 -14.509   6.080  1.00  0.00     0.070 A 
HETATM   11  C   UNL     1      42.662 -15.127   4.913  1.00  0.00     0.051 A 
ENDROOT
BRANCH   7  12
HETATM   12  C   UNL     1      41.942 -17.038   2.304  1.00  0.00     0.146 C 
BRANCH  12  13
HETATM   13  C   UNL     1      42.149 -15.753   1.517  1.00  0.00     0.240 C 
HETATM   14  N   UNL     1      41.007 -15.082   1.132  1.00  0.00    -0.267 N 
HETATM   15  H   UNL     1      40.081 -15.510   1.151  1.00  0.00     0.190 HD
HETATM   16  O   UNL     1      43.279 -15.301   1.312  1.00  0.00    -0.272 OA
BRANCH  14  17
HETATM   17  N   UNL     1      41.145 -13.925   0.367  1.00  0.00    -0.262 N 
HETATM   18  C   UNL     1      40.304 -13.703  -0.703  1.00  0.00     0.288 C 
HETATM   19  O   UNL     1      39.451 -14.503  -1.077  1.00  0.00    -0.264 OA
HETATM   20  H   UNL     1      41.843 -13.232   0.646  1.00  0.00     0.190 HD
BRANCH  18  21
HETATM   21  C   UNL     1      40.510 -12.384  -1.377  1.00  0.00     0.125 A 
HETATM   22  N   UNL     1      39.984 -12.253  -2.627  1.00  0.00    -0.255 NA
HETATM   23  C   UNL     1      40.184 -11.068  -3.242  1.00  0.00     0.117 A 
HETATM   24  C   UNL     1      40.881 -10.011  -2.675  1.00  0.00     0.019 A 
HETATM   25  C   UNL     1      41.407 -10.173  -1.396  1.00  0.00     0.004 A 
HETATM   26  C   UNL     1      41.220 -11.380  -0.729  1.00  0.00     0.037 A 
ENDBRANCH  18  21
ENDBRANCH  14  17
ENDBRANCH  12  13
ENDBRANCH   7  12
BRANCH  10  27
HETATM   27  O   UNL     1      42.561 -13.292   6.340  1.00  0.00    -0.347 OA
BRANCH  27  28
HETATM   28  C   UNL     1      43.135 -12.151   5.700  1.00  0.00     0.214 C 
BRANCH  28  29
HETATM   29  C   UNL     1      44.054 -11.402   6.642  1.00  0.00    -0.034 A 
HETATM   30  C   UNL     1      45.450 -11.520   6.571  1.00  0.00     0.009 A 
HETATM   31  C   UNL     1      46.270 -10.792   7.436  1.00  0.00     0.001 A 
HETATM   32  C   UNL     1      45.707  -9.929   8.374  1.00  0.00     0.000 A 
HETATM   33  C   UNL     1      44.323  -9.789   8.446  1.00  0.00     0.001 A 
HETATM   34  C   UNL     1      43.502 -10.517   7.582  1.00  0.00     0.009 A 
ENDBRANCH  28  29
ENDBRANCH  27  28
ENDBRANCH  10  27
TORSDOF 7
ENDMDL
MODEL 7
REMARK VINA RESULT:      -8.7      1.968      3.346
REMARK  7 active torsions:
REMARK  status: ('A' for Active; 'I' for Inactive)
REMARK    1  A    between atoms: C_7  and  C_8 
REMARK    2  A    between atoms: C_8  and  C_9 
REMARK       I    between atoms: C_9  and  N_10 
REMARK    3  A    between atoms: N_10  and  N_11 
REMARK       I    between atoms: N_11  and  C_12 
REMARK    4  A    between atoms: C_12  and  C_13 
REMARK    5  A    between atoms: C_23  and  O_24 
REMARK    6  A    between atoms: O_24  and  C_25 
REMARK    7  A    between atoms: C_25  and  C_26 
ROOT
HETATM    1  C   UNL     1      43.966 -19.163   5.381  1.00  0.00     0.068 C 
HETATM    2  C   UNL     1      43.429 -17.993   4.637  1.00  0.00     0.013 A 
HETATM    3  N   UNL     1      43.690 -17.810   3.303  1.00  0.00    -0.359 N 
HETATM    4  H   UNL     1      44.245 -18.428   2.727  1.00  0.00     0.166 HD
HETATM    5  C   UNL     1      43.086 -16.664   2.845  1.00  0.00     0.043 A 
HETATM    6  C   UNL     1      42.417 -16.092   3.925  1.00  0.00     0.002 A 
HETATM    7  C   UNL     1      42.646 -16.931   5.064  1.00  0.00    -0.015 A 
HETATM    8  C   UNL     1      43.081 -16.096   1.568  1.00  0.00     0.033 A 
HETATM    9  C   UNL     1      42.363 -14.907   1.381  1.00  0.00     0.039 A 
HETATM   10  C   UNL     1      41.673 -14.310   2.436  1.00  0.00     0.070 A 
HETATM   11  C   UNL     1      41.704 -14.894   3.709  1.00  0.00     0.051 A 
ENDROOT
BRANCH   7  12
HETATM   12  C   UNL     1      42.133 -16.699   6.454  1.00  0.00     0.146 C 
BRANCH  12  13
HETATM   13  C   UNL     1      42.874 -15.624   7.233  1.00  0.00     0.240 C 
HETATM   14  N   UNL     1      42.549 -14.318   6.930  1.00  0.00    -0.267 N 
HETATM   15  H   UNL     1      42.033 -14.057   6.090  1.00  0.00     0.190 HD
HETATM   16  O   UNL     1      43.658 -15.913   8.141  1.00  0.00    -0.272 OA
BRANCH  14  17
HETATM   17  N   UNL     1      43.237 -13.296   7.584  1.00  0.00    -0.262 N 
HETATM   18  C   UNL     1      43.892 -12.330   6.851  1.00  0.00     0.288 C 
HETATM   19  O   UNL     1      43.965 -12.336   5.625  1.00  0.00    -0.264 OA
HETATM   20  H   UNL     1      43.200 -13.254   8.604  1.00  0.00     0.190 HD
BRANCH  18  21
HETATM   21  C   UNL     1      44.511 -11.250   7.681  1.00  0.00     0.125 A 
HETATM   22  N   UNL     1      43.798 -10.836   8.766  1.00  0.00    -0.255 NA
HETATM   23  C   UNL     1      44.349  -9.851   9.506  1.00  0.00     0.117 A 
HETATM   24  C   UNL     1      45.569  -9.258   9.218  1.00  0.00     0.019 A 
HETATM   25  C   UNL     1      46.276  -9.702   8.103  1.00  0.00     0.004 A 
HETATM   26  C   UNL     1      45.741 -10.717   7.316  1.00  0.00     0.037 A 
ENDBRANCH  18  21
ENDBRANCH  14  17
ENDBRANCH  12  13
ENDBRANCH   7  12
BRANCH  10  27
HETATM   27  O   UNL     1      40.930 -13.162   2.362  1.00  0.00    -0.347 OA
BRANCH  27  28
HETATM   28  C   UNL     1      40.039 -12.891   3.445  1.00  0.00     0.214 C 
BRANCH  28  29
HETATM   29  C   UNL     1      40.536 -11.732   4.283  1.00  0.00    -0.034 A 
HETATM   30  C   UNL     1      40.268 -11.636   5.656  1.00  0.00     0.009 A 
HETATM   31  C   UNL     1      40.766 -10.569   6.406  1.00  0.00     0.001 A 
HETATM   32  C   UNL     1      41.548  -9.590   5.797  1.00  0.00     0.000 A 
HETATM   33  C   UNL     1      41.837  -9.680   4.438  1.00  0.00     0.001 A 
HETATM   34  C   UNL     1      41.338 -10.745   3.686  1.00  0.00     0.009 A 
ENDBRANCH  28  29
ENDBRANCH  27  28
ENDBRANCH  10  27
TORSDOF 7
ENDMDL
MODEL 8
REMARK VINA RESULT:      -8.6      3.487      8.571
REMARK  7 active torsions:
REMARK  status: ('A' for Active; 'I' for Inactive)
REMARK    1  A    between atoms: C_7  and  C_8 
REMARK    2  A    between atoms: C_8  and  C_9 
REMARK       I    between atoms: C_9  and  N_10 
REMARK    3  A    between atoms: N_10  and  N_11 
REMARK       I    between atoms: N_11  and  C_12 
REMARK    4  A    between atoms: C_12  and  C_13 
REMARK    5  A    between atoms: C_23  and  O_24 
REMARK    6  A    between atoms: O_24  and  C_25 
REMARK    7  A    between atoms: C_25  and  C_26 
ROOT
HETATM    1  C   UNL     1      39.991  -9.828   6.286  1.00  0.00     0.068 C 
HETATM    2  C   UNL     1      40.469 -11.184   5.910  1.00  0.00     0.013 A 
HETATM    3  N   UNL     1      40.142 -12.292   6.649  1.00  0.00    -0.359 N 
HETATM    4  H   UNL     1      39.567 -12.289   7.481  1.00  0.00     0.166 HD
HETATM    5  C   UNL     1      40.700 -13.422   6.100  1.00  0.00     0.043 A 
HETATM    6  C   UNL     1      41.412 -13.022   4.972  1.00  0.00     0.002 A 
HETATM    7  C   UNL     1      41.275 -11.600   4.859  1.00  0.00    -0.015 A 
HETATM    8  C   UNL     1      40.628 -14.755   6.516  1.00  0.00     0.033 A 
HETATM    9  C   UNL     1      41.299 -15.717   5.749  1.00  0.00     0.039 A 
HETATM   10  C   UNL     1      42.014 -15.357   4.607  1.00  0.00     0.070 A 
HETATM   11  C   UNL     1      42.080 -14.012   4.220  1.00  0.00     0.051 A 
ENDROOT
BRANCH   7  12
HETATM   12  C   UNL     1      41.887 -10.731   3.803  1.00  0.00     0.146 C 
BRANCH  12  13
HETATM   13  C   UNL     1      41.457 -11.061   2.382  1.00  0.00     0.240 C 
HETATM   14  N   UNL     1      40.162 -11.510   2.225  1.00  0.00    -0.267 N 
HETATM   15  H   UNL     1      39.591 -11.834   3.006  1.00  0.00     0.190 HD
HETATM   16  O   UNL     1      42.203 -10.854   1.420  1.00  0.00    -0.272 OA
BRANCH  14  17
HETATM   17  N   UNL     1      39.737 -11.872   0.948  1.00  0.00    -0.262 N 
HETATM   18  C   UNL     1      39.757 -13.196   0.565  1.00  0.00     0.288 C 
HETATM   19  O   UNL     1      40.190 -14.103   1.269  1.00  0.00    -0.264 OA
HETATM   20  H   UNL     1      39.367 -11.146   0.330  1.00  0.00     0.190 HD
BRANCH  18  21
HETATM   21  C   UNL     1      39.191 -13.445  -0.798  1.00  0.00     0.125 A 
HETATM   22  N   UNL     1      39.548 -14.615  -1.398  1.00  0.00    -0.255 NA
HETATM   23  C   UNL     1      39.051 -14.832  -2.634  1.00  0.00     0.117 A 
HETATM   24  C   UNL     1      38.220 -13.943  -3.299  1.00  0.00     0.019 A 
HETATM   25  C   UNL     1      37.871 -12.756  -2.662  1.00  0.00     0.004 A 
HETATM   26  C   UNL     1      38.363 -12.496  -1.386  1.00  0.00     0.037 A 
ENDBRANCH  18  21
ENDBRANCH  14  17
ENDBRANCH  12  13
ENDBRANCH   7  12
BRANCH  10  27
HETATM   27  O   UNL     1      42.691 -16.213   3.779  1.00  0.00    -0.347 OA
BRANCH  27  28
HETATM   28  C   UNL     1      43.841 -16.869   4.317  1.00  0.00     0.214 C 
BRANCH  28  29
HETATM   29  C   UNL     1      43.858 -18.335   3.940  1.00  0.00    -0.034 A 
HETATM   30  C   UNL     1      44.140 -19.342   4.875  1.00  0.00     0.009 A 
HETATM   31  C   UNL     1      44.119 -20.687   4.501  1.00  0.00     0.001 A 
HETATM   32  C   UNL     1      43.804 -21.045   3.192  1.00  0.00     0.000 A 
HETATM   33  C   UNL     1      43.506 -20.058   2.256  1.00  0.00     0.001 A 
HETATM   34  C   UNL     1      43.528 -18.712   2.627  1.00  0.00     0.009 A 
ENDBRANCH  28  29
ENDBRANCH  27  28
ENDBRANCH  10  27
TORSDOF 7
ENDMDL
MODEL 9
REMARK VINA RESULT:      -8.5      3.399      8.567
REMARK  7 active torsions:
REMARK  status: ('A' for Active; 'I' for Inactive)
REMARK    1  A    between atoms: C_7  and  C_8 
REMARK    2  A    between atoms: C_8  and  C_9 
REMARK       I    between atoms: C_9  and  N_10 
REMARK    3  A    between atoms: N_10  and  N_11 
REMARK       I    between atoms: N_11  and  C_12 
REMARK    4  A    between atoms: C_12  and  C_13 
REMARK    5  A    between atoms: C_23  and  O_24 
REMARK    6  A    between atoms: O_24  and  C_25 
REMARK    7  A    between atoms: C_25  and  C_26 
ROOT
HETATM    1  C   UNL     1      41.022  -8.839   4.156  1.00  0.00     0.068 C 
HETATM    2  C   UNL     1      41.485 -10.116   4.760  1.00  0.00     0.013 A 
HETATM    3  N   UNL     1      42.779 -10.281   5.186  1.00  0.00    -0.359 N 
HETATM    4  H   UNL     1      43.504  -9.579   5.133  1.00  0.00     0.166 HD
HETATM    5  C   UNL     1      42.960 -11.541   5.706  1.00  0.00     0.043 A 
HETATM    6  C   UNL     1      41.740 -12.206   5.606  1.00  0.00     0.002 A 
HETATM    7  C   UNL     1      40.808 -11.304   4.995  1.00  0.00    -0.015 A 
HETATM    8  C   UNL     1      44.102 -12.134   6.251  1.00  0.00     0.033 A 
HETATM    9  C   UNL     1      43.995 -13.451   6.720  1.00  0.00     0.039 A 
HETATM   10  C   UNL     1      42.789 -14.146   6.647  1.00  0.00     0.070 A 
HETATM   11  C   UNL     1      41.662 -13.531   6.084  1.00  0.00     0.051 A 
ENDROOT
BRANCH   7  12
HETATM   12  C   UNL     1      39.374 -11.595   4.673  1.00  0.00     0.146 C 
BRANCH  12  13
HETATM   13  C   UNL     1      39.157 -12.354   3.373  1.00  0.00     0.240 C 
HETATM   14  N   UNL     1      38.553 -11.653   2.350  1.00  0.00    -0.267 N 
HETATM   15  H   UNL     1      38.064 -10.770   2.498  1.00  0.00     0.190 HD
HETATM   16  O   UNL     1      39.577 -13.505   3.223  1.00  0.00    -0.272 OA
BRANCH  14  17
HETATM   17  N   UNL     1      38.289 -12.321   1.154  1.00  0.00    -0.262 N 
HETATM   18  C   UNL     1      39.133 -12.160   0.076  1.00  0.00     0.288 C 
HETATM   19  O   UNL     1      40.100 -11.403   0.073  1.00  0.00    -0.264 OA
HETATM   20  H   UNL     1      37.494 -12.962   1.116  1.00  0.00     0.190 HD
BRANCH  18  21
HETATM   21  C   UNL     1      38.777 -13.002  -1.107  1.00  0.00     0.125 A 
HETATM   22  N   UNL     1      37.685 -12.612  -1.823  1.00  0.00    -0.255 NA
HETATM   23  C   UNL     1      37.353 -13.381  -2.881  1.00  0.00     0.117 A 
HETATM   24  C   UNL     1      38.052 -14.517  -3.259  1.00  0.00     0.019 A 
HETATM   25  C   UNL     1      39.165 -14.893  -2.511  1.00  0.00     0.004 A 
HETATM   26  C   UNL     1      39.539 -14.124  -1.412  1.00  0.00     0.037 A 
ENDBRANCH  18  21
ENDBRANCH  14  17
ENDBRANCH  12  13
ENDBRANCH   7  12
BRANCH  10  27
HETATM   27  O   UNL     1      42.569 -15.424   7.087  1.00  0.00    -0.347 OA
BRANCH  27  28
HETATM   28  C   UNL     1      41.643 -16.220   6.346  1.00  0.00     0.214 C 
BRANCH  28  29
HETATM   29  C   UNL     1      42.301 -16.828   5.125  1.00  0.00    -0.034 A 
HETATM   30  C   UNL     1      41.851 -16.560   3.825  1.00  0.00     0.009 A 
HETATM   31  C   UNL     1      42.498 -17.114   2.719  1.00  0.00     0.001 A 
HETATM   32  C   UNL     1      43.611 -17.933   2.897  1.00  0.00     0.000 A 
HETATM   33  C   UNL     1      44.080 -18.195   4.182  1.00  0.00     0.001 A 
HETATM   34  C   UNL     1      43.433 -17.643   5.289  1.00  0.00     0.009 A 
ENDBRANCH  28  29
ENDBRANCH  27  28
ENDBRANCH  10  27
TORSDOF 7
ENDMDL
MODEL 10
REMARK VINA RESULT:      -8.4      4.169      6.417
REMARK  7 active torsions:
REMARK  status: ('A' for Active; 'I' for Inactive)
REMARK    1  A    between atoms: C_7  and  C_8 
REMARK    2  A    between atoms: C_8  and  C_9 
REMARK       I    between atoms: C_9  and  N_10 
REMARK    3  A    between atoms: N_10  and  N_11 
REMARK       I    between atoms: N_11  and  C_12 
REMARK    4  A    between atoms: C_12  and  C_13 
REMARK    5  A    between atoms: C_23  and  O_24 
REMARK    6  A    between atoms: O_24  and  C_25 
REMARK    7  A    between atoms: C_25  and  C_26 
ROOT
HETATM    1  C   UNL     1      40.376  -7.674   4.522  1.00  0.00     0.068 C 
HETATM    2  C   UNL     1      40.848  -9.083   4.479  1.00  0.00     0.013 A 
HETATM    3  N   UNL     1      41.971  -9.443   3.777  1.00  0.00    -0.359 N 
HETATM    4  H   UNL     1      42.557  -8.810   3.250  1.00  0.00     0.166 HD
HETATM    5  C   UNL     1      42.199 -10.794   3.891  1.00  0.00     0.043 A 
HETATM    6  C   UNL     1      41.186 -11.317   4.691  1.00  0.00     0.002 A 
HETATM    7  C   UNL     1      40.322 -10.232   5.053  1.00  0.00    -0.015 A 
HETATM    8  C   UNL     1      43.218 -11.583   3.350  1.00  0.00     0.033 A 
HETATM    9  C   UNL     1      43.209 -12.954   3.641  1.00  0.00     0.039 A 
HETATM   10  C   UNL     1      42.217 -13.513   4.446  1.00  0.00     0.070 A 
HETATM   11  C   UNL     1      41.200 -12.700   4.966  1.00  0.00     0.051 A 
ENDROOT
BRANCH   7  12
HETATM   12  C   UNL     1      39.086 -10.325   5.895  1.00  0.00     0.146 C 
BRANCH  12  13
HETATM   13  C   UNL     1      39.339 -10.344   7.394  1.00  0.00     0.240 C 
HETATM   14  N   UNL     1      40.423  -9.616   7.839  1.00  0.00    -0.267 N 
HETATM   15  H   UNL     1      41.155  -9.277   7.215  1.00  0.00     0.190 HD
HETATM   16  O   UNL     1      38.565 -10.911   8.170  1.00  0.00    -0.272 OA
BRANCH  14  17
HETATM   17  N   UNL     1      40.725  -9.641   9.200  1.00  0.00    -0.262 N 
HETATM   18  C   UNL     1      41.784  -8.903   9.684  1.00  0.00     0.288 C 
HETATM   19  O   UNL     1      42.541  -8.249   8.972  1.00  0.00    -0.264 OA
HETATM   20  H   UNL     1      40.118 -10.173   9.827  1.00  0.00     0.190 HD
BRANCH  18  21
HETATM   21  C   UNL     1      41.936  -8.957  11.171  1.00  0.00     0.125 A 
HETATM   22  N   UNL     1      41.038  -9.729  11.844  1.00  0.00    -0.255 NA
HETATM   23  C   UNL     1      41.165  -9.765  13.188  1.00  0.00     0.117 A 
HETATM   24  C   UNL     1      42.137  -9.070  13.891  1.00  0.00     0.019 A 
HETATM   25  C   UNL     1      43.043  -8.290  13.177  1.00  0.00     0.004 A 
HETATM   26  C   UNL     1      42.945  -8.229  11.789  1.00  0.00     0.037 A 
ENDBRANCH  18  21
ENDBRANCH  14  17
ENDBRANCH  12  13
ENDBRANCH   7  12
BRANCH  10  27
HETATM   27  O   UNL     1      42.121 -14.831   4.806  1.00  0.00    -0.347 OA
BRANCH  27  28
HETATM   28  C   UNL     1      41.529 -15.724   3.862  1.00  0.00     0.214 C 
BRANCH  28  29
HETATM   29  C   UNL     1      42.426 -16.916   3.602  1.00  0.00    -0.034 A 
HETATM   30  C   UNL     1      42.353 -17.660   2.415  1.00  0.00     0.009 A 
HETATM   31  C   UNL     1      43.214 -18.736   2.195  1.00  0.00     0.001 A 
HETATM   32  C   UNL     1      44.169 -19.076   3.152  1.00  0.00     0.000 A 
HETATM   33  C   UNL     1      44.265 -18.336   4.328  1.00  0.00     0.001 A 
HETATM   34  C   UNL     1      43.403 -17.261   4.551  1.00  0.00     0.009 A 
ENDBRANCH  28  29
ENDBRANCH  27  28
ENDBRANCH  10  27
TORSDOF 7
ENDMDL
