MODEL 1
REMARK VINA RESULT:      -7.3      0.000      0.000
REMARK  11 active torsions:
REMARK  status: ('A' for Active; 'I' for Inactive)
REMARK    1  A    between atoms: C_5  and  C_6 
REMARK    2  A    between atoms: C_6  and  N_7 
REMARK    3  A    between atoms: N_7  and  C_10 
REMARK    4  A    between atoms: C_10  and  C_11 
REMARK    5  A    between atoms: C_13  and  O_14 
REMARK    6  A    between atoms: C_16  and  O_17 
REMARK    7  A    between atoms: O_17  and  C_18 
REMARK    8  A    between atoms: C_18  and  C_19 
REMARK    9  A    between atoms: C_19  and  O_20 
REMARK   10  A    between atoms: C_19  and  C_21 
REMARK   11  A    between atoms: C_21  and  N_22 
ROOT
HETATM    1  C   UNL     1      43.088 -13.394   3.462  1.00  0.00    -0.030 A 
HETATM    2  C   UNL     1      42.959 -13.959   4.742  1.00  0.00     0.048 A 
HETATM    3  C   UNL     1      43.346 -13.243   5.885  1.00  0.00     0.102 A 
HETATM    4  C   UNL     1      43.873 -11.943   5.751  1.00  0.00     0.102 A 
HETATM    5  C   UNL     1      44.032 -11.393   4.477  1.00  0.00     0.040 A 
HETATM    6  C   UNL     1      43.640 -12.110   3.343  1.00  0.00     0.012 A 
ENDROOT
BRANCH   4   7
HETATM    7  O   UNL     1      44.211 -11.306   6.919  1.00  0.00    -0.346 OA
BRANCH   7   8
HETATM    8  C   UNL     1      45.598 -11.129   7.211  1.00  0.00     0.209 C 
BRANCH   8   9
HETATM    9  C   UNL     1      45.704  -9.909   8.135  1.00  0.00     0.168 C 
BRANCH   9  10
HETATM   10  O   UNL     1      46.681  -8.973   7.639  1.00  0.00    -0.392 OA
HETATM   11  H   UNL     1      46.438  -8.800   6.701  1.00  0.00     0.210 HD
ENDBRANCH   9  10
BRANCH   9  12
HETATM   12  C   UNL     1      44.371  -9.154   8.241  1.00  0.00     0.268 C 
BRANCH  12  13
HETATM   13  N   UNL     1      43.578  -9.720   9.418  1.00  0.00    -0.067 N 
HETATM   14  H   UNL     1      43.177 -10.597   9.031  1.00  0.00     0.280 HD
HETATM   15  C   UNL     1      44.479 -10.095  10.584  1.00  0.00     0.245 C 
HETATM   16  C   UNL     1      43.728 -10.882  11.657  1.00  0.00     0.101 C 
HETATM   17  S   UNL     1      42.360  -9.926  12.372  1.00  0.00    -0.166 SA
HETATM   18  C   UNL     1      41.495  -9.511  10.831  1.00  0.00     0.101 C 
HETATM   19  C   UNL     1      42.420  -8.824   9.827  1.00  0.00     0.245 C 
ENDBRANCH  12  13
ENDBRANCH   9  12
ENDBRANCH   8   9
ENDBRANCH   7   8
ENDBRANCH   4   7
BRANCH   3  20
HETATM   20  O   UNL     1      43.242 -13.710   7.171  1.00  0.00    -0.353 OA
HETATM   21  C   UNL     1      43.031 -15.103   7.365  1.00  0.00     0.210 C 
ENDBRANCH   3  20
BRANCH   1  22
HETATM   22  C   UNL     1      42.661 -14.155   2.236  1.00  0.00     0.271 C 
BRANCH  22  23
HETATM   23  N   UNL     1      43.486 -15.361   2.025  1.00  0.00    -0.066 N 
HETATM   24  H   UNL     1      44.112 -15.532   2.821  1.00  0.00     0.277 HD
HETATM   25  H   UNL     1      44.147 -15.235   1.240  1.00  0.00     0.277 HD
BRANCH  23  26
HETATM   26  C   UNL     1      42.745 -16.631   1.715  1.00  0.00     0.293 C 
BRANCH  26  27
HETATM   27  C   UNL     1      43.187 -17.729   2.640  1.00  0.00     0.077 A 
HETATM   28  C   UNL     1      43.232 -19.051   2.227  1.00  0.00     0.145 A 
HETATM   29  N   UNL     1      43.651 -20.040   3.042  1.00  0.00    -0.262 NA
HETATM   30  C   UNL     1      44.033 -19.684   4.292  1.00  0.00     0.048 A 
HETATM   31  C   UNL     1      44.497 -20.761   5.223  1.00  0.00     0.072 C 
HETATM   32  C   UNL     1      43.990 -18.356   4.702  1.00  0.00     0.143 A 
HETATM   33  N   UNL     1      43.576 -17.346   3.892  1.00  0.00    -0.260 NA
ENDBRANCH  26  27
ENDBRANCH  23  26
ENDBRANCH  22  23
ENDBRANCH   1  22
TORSDOF 11
ENDMDL
MODEL 2
REMARK VINA RESULT:      -6.9      4.392      7.143
REMARK  11 active torsions:
REMARK  status: ('A' for Active; 'I' for Inactive)
REMARK    1  A    between atoms: C_5  and  C_6 
REMARK    2  A    between atoms: C_6  and  N_7 
REMARK    3  A    between atoms: N_7  and  C_10 
REMARK    4  A    between atoms: C_10  and  C_11 
REMARK    5  A    between atoms: C_13  and  O_14 
REMARK    6  A    between atoms: C_16  and  O_17 
REMARK    7  A    between atoms: O_17  and  C_18 
REMARK    8  A    between atoms: C_18  and  C_19 
REMARK    9  A    between atoms: C_19  and  O_20 
REMARK   10  A    between atoms: C_19  and  C_21 
REMARK   11  A    between atoms: C_21  and  N_22 
ROOT
HETATM    1  C   UNL     1      41.806 -14.714   6.364  1.00  0.00    -0.030 A 
HETATM    2  C   UNL     1      42.836 -13.917   5.835  1.00  0.00     0.048 A 
HETATM    3  C   UNL     1      42.541 -12.771   5.083  1.00  0.00     0.102 A 
HETATM    4  C   UNL     1      41.199 -12.412   4.851  1.00  0.00     0.102 A 
HETATM    5  C   UNL     1      40.174 -13.220   5.348  1.00  0.00     0.040 A 
HETATM    6  C   UNL     1      40.475 -14.359   6.101  1.00  0.00     0.012 A 
ENDROOT
BRANCH   4   7
HETATM    7  O   UNL     1      40.998 -11.268   4.120  1.00  0.00    -0.346 OA
BRANCH   7   8
HETATM    8  C   UNL     1      40.235 -11.364   2.915  1.00  0.00     0.209 C 
BRANCH   8   9
HETATM    9  C   UNL     1      41.238 -11.376   1.755  1.00  0.00     0.168 C 
BRANCH   9  10
HETATM   10  O   UNL     1      42.461 -10.709   2.127  1.00  0.00    -0.392 OA
HETATM   11  H   UNL     1      42.426  -9.824   1.701  1.00  0.00     0.210 HD
ENDBRANCH   9  10
BRANCH   9  12
HETATM   12  C   UNL     1      41.615 -12.805   1.339  1.00  0.00     0.268 C 
BRANCH  12  13
HETATM   13  N   UNL     1      41.169 -13.030  -0.106  1.00  0.00    -0.067 N 
HETATM   14  H   UNL     1      41.957 -13.569  -0.514  1.00  0.00     0.280 HD
HETATM   15  C   UNL     1      39.921 -13.894  -0.188  1.00  0.00     0.245 C 
HETATM   16  C   UNL     1      39.616 -14.323  -1.623  1.00  0.00     0.101 C 
HETATM   17  S   UNL     1      39.308 -12.900  -2.709  1.00  0.00    -0.166 SA
HETATM   18  C   UNL     1      40.840 -11.982  -2.381  1.00  0.00     0.101 C 
HETATM   19  C   UNL     1      41.044 -11.731  -0.887  1.00  0.00     0.245 C 
ENDBRANCH  12  13
ENDBRANCH   9  12
ENDBRANCH   8   9
ENDBRANCH   7   8
ENDBRANCH   4   7
BRANCH   3  20
HETATM   20  O   UNL     1      43.481 -11.929   4.543  1.00  0.00    -0.353 OA
HETATM   21  C   UNL     1      44.507 -11.433   5.393  1.00  0.00     0.210 C 
ENDBRANCH   3  20
BRANCH   1  22
HETATM   22  C   UNL     1      42.119 -15.937   7.183  1.00  0.00     0.271 C 
BRANCH  22  23
HETATM   23  N   UNL     1      43.430 -16.514   6.826  1.00  0.00    -0.066 N 
HETATM   24  H   UNL     1      44.192 -16.068   7.350  1.00  0.00     0.277 HD
HETATM   25  H   UNL     1      43.679 -16.308   5.844  1.00  0.00     0.277 HD
BRANCH  23  26
HETATM   26  C   UNL     1      43.562 -18.004   6.960  1.00  0.00     0.293 C 
BRANCH  26  27
HETATM   27  C   UNL     1      43.662 -18.641   5.602  1.00  0.00     0.077 A 
HETATM   28  C   UNL     1      43.855 -20.005   5.453  1.00  0.00     0.145 A 
HETATM   29  N   UNL     1      43.921 -20.589   4.239  1.00  0.00    -0.262 NA
HETATM   30  C   UNL     1      43.785 -19.778   3.161  1.00  0.00     0.048 A 
HETATM   31  C   UNL     1      43.861 -20.396   1.800  1.00  0.00     0.072 C 
HETATM   32  C   UNL     1      43.589 -18.411   3.315  1.00  0.00     0.143 A 
HETATM   33  N   UNL     1      43.515 -17.807   4.531  1.00  0.00    -0.260 NA
ENDBRANCH  26  27
ENDBRANCH  23  26
ENDBRANCH  22  23
ENDBRANCH   1  22
TORSDOF 11
ENDMDL
MODEL 3
REMARK VINA RESULT:      -6.8      3.951      8.292
REMARK  11 active torsions:
REMARK  status: ('A' for Active; 'I' for Inactive)
REMARK    1  A    between atoms: C_5  and  C_6 
REMARK    2  A    between atoms: C_6  and  N_7 
REMARK    3  A    between atoms: N_7  and  C_10 
REMARK    4  A    between atoms: C_10  and  C_11 
REMARK    5  A    between atoms: C_13  and  O_14 
REMARK    6  A    between atoms: C_16  and  O_17 
REMARK    7  A    between atoms: O_17  and  C_18 
REMARK    8  A    between atoms: C_18  and  C_19 
REMARK    9  A    between atoms: C_19  and  O_20 
REMARK   10  A    between atoms: C_19  and  C_21 
REMARK   11  A    between atoms: C_21  and  N_22 
ROOT
HETATM    1  C   UNL     1      42.591 -15.682   5.915  1.00  0.00    -0.030 A 
HETATM    2  C   UNL     1      43.334 -16.369   4.940  1.00  0.00     0.048 A 
HETATM    3  C   UNL     1      42.789 -16.632   3.675  1.00  0.00     0.102 A 
HETATM    4  C   UNL     1      41.481 -16.204   3.374  1.00  0.00     0.102 A 
HETATM    5  C   UNL     1      40.729 -15.549   4.352  1.00  0.00     0.040 A 
HETATM    6  C   UNL     1      41.280 -15.286   5.610  1.00  0.00     0.012 A 
ENDROOT
BRANCH   4   7
HETATM    7  O   UNL     1      41.030 -16.486   2.109  1.00  0.00    -0.346 OA
BRANCH   7   8
HETATM    8  C   UNL     1      39.785 -15.919   1.696  1.00  0.00     0.209 C 
BRANCH   8   9
HETATM    9  C   UNL     1      40.086 -15.017   0.494  1.00  0.00     0.168 C 
BRANCH   9  10
HETATM   10  O   UNL     1      39.233 -15.344  -0.621  1.00  0.00    -0.392 OA
HETATM   11  H   UNL     1      38.570 -15.983  -0.274  1.00  0.00     0.210 HD
ENDBRANCH   9  10
BRANCH   9  12
HETATM   12  C   UNL     1      39.851 -13.533   0.818  1.00  0.00     0.268 C 
BRANCH  12  13
HETATM   13  N   UNL     1      40.813 -13.115   1.929  1.00  0.00    -0.067 N 
HETATM   14  H   UNL     1      40.616 -13.804   2.681  1.00  0.00     0.280 HD
HETATM   15  C   UNL     1      42.267 -13.280   1.516  1.00  0.00     0.245 C 
HETATM   16  C   UNL     1      43.221 -13.100   2.696  1.00  0.00     0.101 C 
HETATM   17  S   UNL     1      43.096 -11.443   3.428  1.00  0.00    -0.166 SA
HETATM   18  C   UNL     1      41.308 -11.429   3.743  1.00  0.00     0.101 C 
HETATM   19  C   UNL     1      40.505 -11.731   2.479  1.00  0.00     0.245 C 
ENDBRANCH  12  13
ENDBRANCH   9  12
ENDBRANCH   8   9
ENDBRANCH   7   8
ENDBRANCH   4   7
BRANCH   3  20
HETATM   20  O   UNL     1      43.447 -17.282   2.662  1.00  0.00    -0.353 OA
HETATM   21  C   UNL     1      43.847 -18.630   2.876  1.00  0.00     0.210 C 
ENDBRANCH   3  20
BRANCH   1  22
HETATM   22  C   UNL     1      43.179 -15.387   7.269  1.00  0.00     0.271 C 
BRANCH  22  23
HETATM   23  N   UNL     1      43.152 -13.943   7.574  1.00  0.00    -0.066 N 
HETATM   24  H   UNL     1      43.340 -13.766   8.569  1.00  0.00     0.277 HD
HETATM   25  H   UNL     1      42.205 -13.547   7.449  1.00  0.00     0.277 HD
BRANCH  23  26
HETATM   26  C   UNL     1      44.054 -13.069   6.751  1.00  0.00     0.293 C 
BRANCH  26  27
HETATM   27  C   UNL     1      44.071 -11.672   7.304  1.00  0.00     0.077 A 
HETATM   28  C   UNL     1      43.007 -10.805   7.117  1.00  0.00     0.145 A 
HETATM   29  N   UNL     1      43.003  -9.558   7.631  1.00  0.00    -0.262 NA
HETATM   30  C   UNL     1      44.091  -9.187   8.349  1.00  0.00     0.048 A 
HETATM   31  C   UNL     1      44.118  -7.806   8.926  1.00  0.00     0.072 C 
HETATM   32  C   UNL     1      45.155 -10.061   8.538  1.00  0.00     0.143 A 
HETATM   33  N   UNL     1      45.174 -11.323   8.031  1.00  0.00    -0.260 NA
ENDBRANCH  26  27
ENDBRANCH  23  26
ENDBRANCH  22  23
ENDBRANCH   1  22
TORSDOF 11
ENDMDL
MODEL 4
REMARK VINA RESULT:      -6.7      2.199      3.908
REMARK  11 active torsions:
REMARK  status: ('A' for Active; 'I' for Inactive)
REMARK    1  A    between atoms: C_5  and  C_6 
REMARK    2  A    between atoms: C_6  and  N_7 
REMARK    3  A    between atoms: N_7  and  C_10 
REMARK    4  A    between atoms: C_10  and  C_11 
REMARK    5  A    between atoms: C_13  and  O_14 
REMARK    6  A    between atoms: C_16  and  O_17 
REMARK    7  A    between atoms: O_17  and  C_18 
REMARK    8  A    between atoms: C_18  and  C_19 
REMARK    9  A    between atoms: C_19  and  O_20 
REMARK   10  A    between atoms: C_19  and  C_21 
REMARK   11  A    between atoms: C_21  and  N_22 
ROOT
HETATM    1  C   UNL     1      43.793 -11.523   5.873  1.00  0.00    -0.030 A 
HETATM    2  C   UNL     1      42.840 -10.614   6.363  1.00  0.00     0.048 A 
HETATM    3  C   UNL     1      43.063  -9.916   7.559  1.00  0.00     0.102 A 
HETATM    4  C   UNL     1      44.254 -10.127   8.281  1.00  0.00     0.102 A 
HETATM    5  C   UNL     1      45.188 -11.055   7.813  1.00  0.00     0.040 A 
HETATM    6  C   UNL     1      44.961 -11.744   6.617  1.00  0.00     0.012 A 
ENDROOT
BRANCH   4   7
HETATM    7  O   UNL     1      44.401  -9.392   9.431  1.00  0.00    -0.346 OA
BRANCH   7   8
HETATM    8  C   UNL     1      44.812 -10.074  10.617  1.00  0.00     0.209 C 
BRANCH   8   9
HETATM    9  C   UNL     1      43.573 -10.791  11.168  1.00  0.00     0.168 C 
BRANCH   9  10
HETATM   10  O   UNL     1      43.949 -11.954  11.931  1.00  0.00    -0.392 OA
HETATM   11  H   UNL     1      44.654 -11.655  12.548  1.00  0.00     0.210 HD
ENDBRANCH   9  10
BRANCH   9  12
HETATM   12  C   UNL     1      42.756  -9.886  12.102  1.00  0.00     0.268 C 
BRANCH  12  13
HETATM   13  N   UNL     1      41.765  -9.080  11.263  1.00  0.00    -0.067 N 
HETATM   14  H   UNL     1      42.151  -9.162  10.302  1.00  0.00     0.280 HD
HETATM   15  C   UNL     1      40.379  -9.703  11.264  1.00  0.00     0.245 C 
HETATM   16  C   UNL     1      39.456  -9.047  10.238  1.00  0.00     0.101 C 
HETATM   17  S   UNL     1      39.207  -7.280  10.577  1.00  0.00    -0.166 SA
HETATM   18  C   UNL     1      40.950  -6.775  10.630  1.00  0.00     0.101 C 
HETATM   19  C   UNL     1      41.753  -7.605  11.631  1.00  0.00     0.245 C 
ENDBRANCH  12  13
ENDBRANCH   9  12
ENDBRANCH   8   9
ENDBRANCH   7   8
ENDBRANCH   4   7
BRANCH   3  20
HETATM   20  O   UNL     1      42.196  -9.001   8.101  1.00  0.00    -0.353 OA
HETATM   21  C   UNL     1      41.920  -7.816   7.364  1.00  0.00     0.210 C 
ENDBRANCH   3  20
BRANCH   1  22
HETATM   22  C   UNL     1      43.562 -12.264   4.583  1.00  0.00     0.271 C 
BRANCH  22  23
HETATM   23  N   UNL     1      42.172 -12.748   4.471  1.00  0.00    -0.066 N 
HETATM   24  H   UNL     1      41.911 -12.915   3.492  1.00  0.00     0.277 HD
HETATM   25  H   UNL     1      41.495 -12.024   4.765  1.00  0.00     0.277 HD
BRANCH  23  26
HETATM   26  C   UNL     1      41.821 -13.965   5.277  1.00  0.00     0.293 C 
BRANCH  26  27
HETATM   27  C   UNL     1      42.305 -15.206   4.582  1.00  0.00     0.077 A 
HETATM   28  C   UNL     1      43.285 -16.013   5.136  1.00  0.00     0.145 A 
HETATM   29  N   UNL     1      43.707 -17.143   4.531  1.00  0.00    -0.262 NA
HETATM   30  C   UNL     1      43.124 -17.459   3.349  1.00  0.00     0.048 A 
HETATM   31  C   UNL     1      43.576 -18.703   2.650  1.00  0.00     0.072 C 
HETATM   32  C   UNL     1      42.138 -16.649   2.797  1.00  0.00     0.143 A 
HETATM   33  N   UNL     1      41.697 -15.510   3.396  1.00  0.00    -0.260 NA
ENDBRANCH  26  27
ENDBRANCH  23  26
ENDBRANCH  22  23
ENDBRANCH   1  22
TORSDOF 11
ENDMDL
MODEL 5
REMARK VINA RESULT:      -6.7      6.249     12.593
REMARK  11 active torsions:
REMARK  status: ('A' for Active; 'I' for Inactive)
REMARK    1  A    between atoms: C_5  and  C_6 
REMARK    2  A    between atoms: C_6  and  N_7 
REMARK    3  A    between atoms: N_7  and  C_10 
REMARK    4  A    between atoms: C_10  and  C_11 
REMARK    5  A    between atoms: C_13  and  O_14 
REMARK    6  A    between atoms: C_16  and  O_17 
REMARK    7  A    between atoms: O_17  and  C_18 
REMARK    8  A    between atoms: C_18  and  C_19 
REMARK    9  A    between atoms: C_19  and  O_20 
REMARK   10  A    between atoms: C_19  and  C_21 
REMARK   11  A    between atoms: C_21  and  N_22 
ROOT
HETATM    1  C   UNL     1      42.065  -7.880  14.655  1.00  0.00    -0.030 A 
HETATM    2  C   UNL     1      41.113  -8.746  14.090  1.00  0.00     0.048 A 
HETATM    3  C   UNL     1      41.275  -9.239  12.787  1.00  0.00     0.102 A 
HETATM    4  C   UNL     1      42.403  -8.863  12.032  1.00  0.00     0.102 A 
HETATM    5  C   UNL     1      43.334  -7.977  12.579  1.00  0.00     0.040 A 
HETATM    6  C   UNL     1      43.169  -7.493  13.880  1.00  0.00     0.012 A 
ENDROOT
BRANCH   4   7
HETATM    7  O   UNL     1      42.492  -9.403  10.773  1.00  0.00    -0.346 OA
BRANCH   7   8
HETATM    8  C   UNL     1      43.607  -9.031   9.960  1.00  0.00     0.209 C 
BRANCH   8   9
HETATM    9  C   UNL     1      44.381 -10.319   9.655  1.00  0.00     0.168 C 
BRANCH   9  10
HETATM   10  O   UNL     1      43.639 -11.478  10.080  1.00  0.00    -0.392 OA
HETATM   11  H   UNL     1      44.215 -11.947  10.724  1.00  0.00     0.210 HD
ENDBRANCH   9  10
BRANCH   9  12
HETATM   12  C   UNL     1      44.648 -10.484   8.151  1.00  0.00     0.268 C 
BRANCH  12  13
HETATM   13  N   UNL     1      43.564 -11.383   7.556  1.00  0.00    -0.067 N 
HETATM   14  H   UNL     1      43.024 -11.684   8.391  1.00  0.00     0.280 HD
HETATM   15  C   UNL     1      42.621 -10.612   6.646  1.00  0.00     0.245 C 
HETATM   16  C   UNL     1      41.402 -11.443   6.248  1.00  0.00     0.101 C 
HETATM   17  S   UNL     1      41.867 -12.940   5.331  1.00  0.00    -0.166 SA
HETATM   18  C   UNL     1      43.039 -13.632   6.533  1.00  0.00     0.101 C 
HETATM   19  C   UNL     1      44.134 -12.631   6.900  1.00  0.00     0.245 C 
ENDBRANCH  12  13
ENDBRANCH   9  12
ENDBRANCH   8   9
ENDBRANCH   7   8
ENDBRANCH   4   7
BRANCH   3  20
HETATM   20  O   UNL     1      40.404 -10.097  12.165  1.00  0.00    -0.353 OA
HETATM   21  C   UNL     1      39.464 -10.802  12.968  1.00  0.00     0.210 C 
ENDBRANCH   3  20
BRANCH   1  22
HETATM   22  C   UNL     1      41.902  -7.361  16.058  1.00  0.00     0.271 C 
BRANCH  22  23
HETATM   23  N   UNL     1      40.903  -8.139  16.817  1.00  0.00    -0.066 N 
HETATM   24  H   UNL     1      41.300  -9.019  17.166  1.00  0.00     0.277 HD
HETATM   25  H   UNL     1      40.134  -8.463  16.207  1.00  0.00     0.277 HD
BRANCH  23  26
HETATM   26  C   UNL     1      40.229  -7.429  17.956  1.00  0.00     0.293 C 
BRANCH  26  27
HETATM   27  C   UNL     1      40.363  -8.232  19.220  1.00  0.00     0.077 A 
HETATM   28  C   UNL     1      39.252  -8.701  19.902  1.00  0.00     0.145 A 
HETATM   29  N   UNL     1      39.364  -9.443  21.023  1.00  0.00    -0.262 NA
HETATM   30  C   UNL     1      40.619  -9.716  21.455  1.00  0.00     0.048 A 
HETATM   31  C   UNL     1      40.774 -10.532  22.701  1.00  0.00     0.072 C 
HETATM   32  C   UNL     1      41.731  -9.247  20.766  1.00  0.00     0.143 A 
HETATM   33  N   UNL     1      41.637  -8.502  19.632  1.00  0.00    -0.260 NA
ENDBRANCH  26  27
ENDBRANCH  23  26
ENDBRANCH  22  23
ENDBRANCH   1  22
TORSDOF 11
ENDMDL
MODEL 6
REMARK VINA RESULT:      -6.7      4.003      8.952
REMARK  11 active torsions:
REMARK  status: ('A' for Active; 'I' for Inactive)
REMARK    1  A    between atoms: C_5  and  C_6 
REMARK    2  A    between atoms: C_6  and  N_7 
REMARK    3  A    between atoms: N_7  and  C_10 
REMARK    4  A    between atoms: C_10  and  C_11 
REMARK    5  A    between atoms: C_13  and  O_14 
REMARK    6  A    between atoms: C_16  and  O_17 
REMARK    7  A    between atoms: O_17  and  C_18 
REMARK    8  A    between atoms: C_18  and  C_19 
REMARK    9  A    between atoms: C_19  and  O_20 
REMARK   10  A    between atoms: C_19  and  C_21 
REMARK   11  A    between atoms: C_21  and  N_22 
ROOT
HETATM    1  C   UNL     1      43.299 -13.480   6.271  1.00  0.00    -0.030 A 
HETATM    2  C   UNL     1      42.092 -12.975   5.759  1.00  0.00     0.048 A 
HETATM    3  C   UNL     1      41.225 -13.796   5.022  1.00  0.00     0.102 A 
HETATM    4  C   UNL     1      41.567 -15.142   4.789  1.00  0.00     0.102 A 
HETATM    5  C   UNL     1      42.781 -15.638   5.269  1.00  0.00     0.040 A 
HETATM    6  C   UNL     1      43.638 -14.815   6.007  1.00  0.00     0.012 A 
ENDROOT
BRANCH   4   7
HETATM    7  O   UNL     1      40.656 -15.880   4.075  1.00  0.00    -0.346 OA
BRANCH   7   8
HETATM    8  C   UNL     1      41.007 -16.278   2.747  1.00  0.00     0.209 C 
BRANCH   8   9
HETATM    9  C   UNL     1      39.899 -15.759   1.823  1.00  0.00     0.168 C 
BRANCH   9  10
HETATM   10  O   UNL     1      38.909 -15.024   2.570  1.00  0.00    -0.392 OA
HETATM   11  H   UNL     1      38.956 -14.098   2.243  1.00  0.00     0.210 HD
ENDBRANCH   9  10
BRANCH   9  12
HETATM   12  C   UNL     1      40.448 -14.807   0.749  1.00  0.00     0.268 C 
BRANCH  12  13
HETATM   13  N   UNL     1      40.532 -13.399   1.338  1.00  0.00    -0.067 N 
HETATM   14  H   UNL     1      40.147 -13.522   2.295  1.00  0.00     0.280 HD
HETATM   15  C   UNL     1      41.969 -12.922   1.471  1.00  0.00     0.245 C 
HETATM   16  C   UNL     1      42.070 -11.629   2.279  1.00  0.00     0.101 C 
HETATM   17  S   UNL     1      41.162 -10.263   1.497  1.00  0.00    -0.166 SA
HETATM   18  C   UNL     1      39.544 -11.074   1.349  1.00  0.00     0.101 C 
HETATM   19  C   UNL     1      39.642 -12.406   0.606  1.00  0.00     0.245 C 
ENDBRANCH  12  13
ENDBRANCH   9  12
ENDBRANCH   8   9
ENDBRANCH   7   8
ENDBRANCH   4   7
BRANCH   3  20
HETATM   20  O   UNL     1      40.023 -13.390   4.500  1.00  0.00    -0.353 OA
HETATM   21  C   UNL     1      39.458 -12.175   4.977  1.00  0.00     0.210 C 
ENDBRANCH   3  20
BRANCH   1  22
HETATM   22  C   UNL     1      44.224 -12.605   7.073  1.00  0.00     0.271 C 
BRANCH  22  23
HETATM   23  N   UNL     1      43.522 -11.434   7.633  1.00  0.00    -0.066 N 
HETATM   24  H   UNL     1      42.671 -11.712   8.137  1.00  0.00     0.277 HD
HETATM   25  H   UNL     1      43.152 -10.822   6.887  1.00  0.00     0.277 HD
BRANCH  23  26
HETATM   26  C   UNL     1      44.331 -10.530   8.518  1.00  0.00     0.293 C 
BRANCH  26  27
HETATM   27  C   UNL     1      43.590 -10.255   9.797  1.00  0.00     0.077 A 
HETATM   28  C   UNL     1      42.508  -9.390   9.837  1.00  0.00     0.145 A 
HETATM   29  N   UNL     1      41.822  -9.157  10.974  1.00  0.00    -0.262 NA
HETATM   30  C   UNL     1      42.237  -9.813  12.086  1.00  0.00     0.048 A 
HETATM   31  C   UNL     1      41.500  -9.568  13.365  1.00  0.00     0.072 C 
HETATM   32  C   UNL     1      43.321 -10.682  12.041  1.00  0.00     0.143 A 
HETATM   33  N   UNL     1      44.020 -10.933  10.902  1.00  0.00    -0.260 NA
ENDBRANCH  26  27
ENDBRANCH  23  26
ENDBRANCH  22  23
ENDBRANCH   1  22
TORSDOF 11
ENDMDL
MODEL 7
REMARK VINA RESULT:      -6.6      4.650      7.910
REMARK  11 active torsions:
REMARK  status: ('A' for Active; 'I' for Inactive)
REMARK    1  A    between atoms: C_5  and  C_6 
REMARK    2  A    between atoms: C_6  and  N_7 
REMARK    3  A    between atoms: N_7  and  C_10 
REMARK    4  A    between atoms: C_10  and  C_11 
REMARK    5  A    between atoms: C_13  and  O_14 
REMARK    6  A    between atoms: C_16  and  O_17 
REMARK    7  A    between atoms: O_17  and  C_18 
REMARK    8  A    between atoms: C_18  and  C_19 
REMARK    9  A    between atoms: C_19  and  O_20 
REMARK   10  A    between atoms: C_19  and  C_21 
REMARK   11  A    between atoms: C_21  and  N_22 
ROOT
HETATM    1  C   UNL     1      41.996 -15.025   6.212  1.00  0.00    -0.030 A 
HETATM    2  C   UNL     1      42.658 -13.892   5.709  1.00  0.00     0.048 A 
HETATM    3  C   UNL     1      42.204 -13.253   4.546  1.00  0.00     0.102 A 
HETATM    4  C   UNL     1      41.072 -13.749   3.871  1.00  0.00     0.102 A 
HETATM    5  C   UNL     1      40.431 -14.893   4.351  1.00  0.00     0.040 A 
HETATM    6  C   UNL     1      40.886 -15.524   5.513  1.00  0.00     0.012 A 
ENDROOT
BRANCH   4   7
HETATM    7  O   UNL     1      40.685 -13.055   2.752  1.00  0.00    -0.346 OA
BRANCH   7   8
HETATM    8  C   UNL     1      39.948 -13.755   1.748  1.00  0.00     0.209 C 
BRANCH   8   9
HETATM    9  C   UNL     1      40.882 -13.914   0.542  1.00  0.00     0.168 C 
BRANCH   9  10
HETATM   10  O   UNL     1      41.689 -15.101   0.671  1.00  0.00    -0.392 OA
HETATM   11  H   UNL     1      42.566 -14.797   0.995  1.00  0.00     0.210 HD
ENDBRANCH   9  10
BRANCH   9  12
HETATM   12  C   UNL     1      40.101 -14.043  -0.774  1.00  0.00     0.268 C 
BRANCH  12  13
HETATM   13  N   UNL     1      39.802 -12.642  -1.307  1.00  0.00    -0.067 N 
HETATM   14  H   UNL     1      40.190 -12.022  -0.569  1.00  0.00     0.280 HD
HETATM   15  C   UNL     1      40.550 -12.352  -2.599  1.00  0.00     0.245 C 
HETATM   16  C   UNL     1      40.450 -10.881  -3.000  1.00  0.00     0.101 C 
HETATM   17  S   UNL     1      38.733 -10.369  -3.294  1.00  0.00    -0.166 SA
HETATM   18  C   UNL     1      38.028 -10.888  -1.703  1.00  0.00     0.101 C 
HETATM   19  C   UNL     1      38.311 -12.361  -1.409  1.00  0.00     0.245 C 
ENDBRANCH  12  13
ENDBRANCH   9  12
ENDBRANCH   8   9
ENDBRANCH   7   8
ENDBRANCH   4   7
BRANCH   3  20
HETATM   20  O   UNL     1      42.781 -12.136   3.995  1.00  0.00    -0.353 OA
HETATM   21  C   UNL     1      43.839 -11.504   4.705  1.00  0.00     0.210 C 
ENDBRANCH   3  20
BRANCH   1  22
HETATM   22  C   UNL     1      42.472 -15.705   7.467  1.00  0.00     0.271 C 
BRANCH  22  23
HETATM   23  N   UNL     1      42.980 -17.064   7.193  1.00  0.00    -0.066 N 
HETATM   24  H   UNL     1      42.263 -17.650   6.748  1.00  0.00     0.277 HD
HETATM   25  H   UNL     1      43.180 -17.576   8.069  1.00  0.00     0.277 HD
BRANCH  23  26
HETATM   26  C   UNL     1      44.244 -17.155   6.388  1.00  0.00     0.293 C 
BRANCH  26  27
HETATM   27  C   UNL     1      44.020 -17.994   5.161  1.00  0.00     0.077 A 
HETATM   28  C   UNL     1      43.698 -17.423   3.941  1.00  0.00     0.145 A 
HETATM   29  N   UNL     1      43.520 -18.166   2.829  1.00  0.00    -0.262 NA
HETATM   30  C   UNL     1      43.673 -19.507   2.957  1.00  0.00     0.048 A 
HETATM   31  C   UNL     1      43.474 -20.359   1.742  1.00  0.00     0.072 C 
HETATM   32  C   UNL     1      43.999 -20.076   4.183  1.00  0.00     0.143 A 
HETATM   33  N   UNL     1      44.188 -19.342   5.312  1.00  0.00    -0.260 NA
ENDBRANCH  26  27
ENDBRANCH  23  26
ENDBRANCH  22  23
ENDBRANCH   1  22
TORSDOF 11
ENDMDL
MODEL 8
REMARK VINA RESULT:      -6.6      3.550      6.560
REMARK  11 active torsions:
REMARK  status: ('A' for Active; 'I' for Inactive)
REMARK    1  A    between atoms: C_5  and  C_6 
REMARK    2  A    between atoms: C_6  and  N_7 
REMARK    3  A    between atoms: N_7  and  C_10 
REMARK    4  A    between atoms: C_10  and  C_11 
REMARK    5  A    between atoms: C_13  and  O_14 
REMARK    6  A    between atoms: C_16  and  O_17 
REMARK    7  A    between atoms: O_17  and  C_18 
REMARK    8  A    between atoms: C_18  and  C_19 
REMARK    9  A    between atoms: C_19  and  O_20 
REMARK   10  A    between atoms: C_19  and  C_21 
REMARK   11  A    between atoms: C_21  and  N_22 
ROOT
HETATM    1  C   UNL     1      40.709 -16.097   2.197  1.00  0.00    -0.030 A 
HETATM    2  C   UNL     1      41.973 -16.708   2.141  1.00  0.00     0.048 A 
HETATM    3  C   UNL     1      42.752 -16.852   3.299  1.00  0.00     0.102 A 
HETATM    4  C   UNL     1      42.265 -16.380   4.533  1.00  0.00     0.102 A 
HETATM    5  C   UNL     1      41.023 -15.744   4.585  1.00  0.00     0.040 A 
HETATM    6  C   UNL     1      40.249 -15.607   3.428  1.00  0.00     0.012 A 
ENDROOT
BRANCH   4   7
HETATM    7  O   UNL     1      43.082 -16.575   5.618  1.00  0.00    -0.346 OA
BRANCH   7   8
HETATM    8  C   UNL     1      42.470 -16.764   6.896  1.00  0.00     0.209 C 
BRANCH   8   9
HETATM    9  C   UNL     1      42.723 -15.483   7.701  1.00  0.00     0.168 C 
BRANCH   9  10
HETATM   10  O   UNL     1      43.361 -15.785   8.958  1.00  0.00    -0.392 OA
HETATM   11  H   UNL     1      44.043 -16.464   8.758  1.00  0.00     0.210 HD
ENDBRANCH   9  10
BRANCH   9  12
HETATM   12  C   UNL     1      43.644 -14.509   6.953  1.00  0.00     0.268 C 
BRANCH  12  13
HETATM   13  N   UNL     1      43.064 -13.099   7.066  1.00  0.00    -0.067 N 
HETATM   14  H   UNL     1      42.478 -13.155   7.922  1.00  0.00     0.280 HD
HETATM   15  C   UNL     1      44.143 -12.056   7.308  1.00  0.00     0.245 C 
HETATM   16  C   UNL     1      43.552 -10.693   7.665  1.00  0.00     0.101 C 
HETATM   17  S   UNL     1      42.510 -10.032   6.332  1.00  0.00    -0.166 SA
HETATM   18  C   UNL     1      41.388 -11.447   6.149  1.00  0.00     0.101 C 
HETATM   19  C   UNL     1      42.150 -12.749   5.902  1.00  0.00     0.245 C 
ENDBRANCH  12  13
ENDBRANCH   9  12
ENDBRANCH   8   9
ENDBRANCH   7   8
ENDBRANCH   4   7
BRANCH   3  20
HETATM   20  O   UNL     1      43.988 -17.447   3.338  1.00  0.00    -0.353 OA
HETATM   21  C   UNL     1      44.069 -18.846   3.093  1.00  0.00     0.210 C 
ENDBRANCH   3  20
BRANCH   1  22
HETATM   22  C   UNL     1      39.865 -15.953   0.959  1.00  0.00     0.271 C 
BRANCH  22  23
HETATM   23  N   UNL     1      39.664 -14.536   0.595  1.00  0.00    -0.066 N 
HETATM   24  H   UNL     1      40.099 -13.908   1.281  1.00  0.00     0.277 HD
HETATM   25  H   UNL     1      38.666 -14.271   0.645  1.00  0.00     0.277 HD
BRANCH  23  26
HETATM   26  C   UNL     1      40.110 -14.130  -0.780  1.00  0.00     0.293 C 
BRANCH  26  27
HETATM   27  C   UNL     1      40.628 -12.719  -0.763  1.00  0.00     0.077 A 
HETATM   28  C   UNL     1      40.925 -12.041  -1.934  1.00  0.00     0.145 A 
HETATM   29  N   UNL     1      41.366 -10.766  -1.929  1.00  0.00    -0.262 NA
HETATM   30  C   UNL     1      41.503 -10.170  -0.719  1.00  0.00     0.048 A 
HETATM   31  C   UNL     1      41.998  -8.757  -0.681  1.00  0.00     0.072 C 
HETATM   32  C   UNL     1      41.200 -10.852   0.453  1.00  0.00     0.143 A 
HETATM   33  N   UNL     1      40.750 -12.135   0.467  1.00  0.00    -0.260 NA
ENDBRANCH  26  27
ENDBRANCH  23  26
ENDBRANCH  22  23
ENDBRANCH   1  22
TORSDOF 11
ENDMDL
MODEL 9
REMARK VINA RESULT:      -6.6      4.447      7.178
REMARK  11 active torsions:
REMARK  status: ('A' for Active; 'I' for Inactive)
REMARK    1  A    between atoms: C_5  and  C_6 
REMARK    2  A    between atoms: C_6  and  N_7 
REMARK    3  A    between atoms: N_7  and  C_10 
REMARK    4  A    between atoms: C_10  and  C_11 
REMARK    5  A    between atoms: C_13  and  O_14 
REMARK    6  A    between atoms: C_16  and  O_17 
REMARK    7  A    between atoms: O_17  and  C_18 
REMARK    8  A    between atoms: C_18  and  C_19 
REMARK    9  A    between atoms: C_19  and  O_20 
REMARK   10  A    between atoms: C_19  and  C_21 
REMARK   11  A    between atoms: C_21  and  N_22 
ROOT
HETATM    1  C   UNL     1      44.906  -9.136   9.349  1.00  0.00    -0.030 A 
HETATM    2  C   UNL     1      44.022  -8.044   9.324  1.00  0.00     0.048 A 
HETATM    3  C   UNL     1      43.088  -7.854  10.353  1.00  0.00     0.102 A 
HETATM    4  C   UNL     1      43.030  -8.767  11.424  1.00  0.00     0.102 A 
HETATM    5  C   UNL     1      43.886  -9.871  11.434  1.00  0.00     0.040 A 
HETATM    6  C   UNL     1      44.818 -10.052  10.408  1.00  0.00     0.012 A 
ENDROOT
BRANCH   4   7
HETATM    7  O   UNL     1      42.099  -8.499  12.396  1.00  0.00    -0.346 OA
BRANCH   7   8
HETATM    8  C   UNL     1      41.663  -9.577  13.226  1.00  0.00     0.209 C 
BRANCH   8   9
HETATM    9  C   UNL     1      40.345 -10.089  12.632  1.00  0.00     0.168 C 
BRANCH   9  10
HETATM   10  O   UNL     1      39.795 -11.147  13.440  1.00  0.00    -0.392 OA
HETATM   11  H   UNL     1      40.271 -11.107  14.299  1.00  0.00     0.210 HD
ENDBRANCH   9  10
BRANCH   9  12
HETATM   12  C   UNL     1      39.283  -8.982  12.558  1.00  0.00     0.268 C 
BRANCH  12  13
HETATM   13  N   UNL     1      38.992  -8.678  11.089  1.00  0.00    -0.067 N 
HETATM   14  H   UNL     1      37.981  -8.898  10.999  1.00  0.00     0.280 HD
HETATM   15  C   UNL     1      39.178  -7.204  10.764  1.00  0.00     0.245 C 
HETATM   16  C   UNL     1      38.656  -6.854   9.372  1.00  0.00     0.101 C 
HETATM   17  S   UNL     1      39.530  -7.766   8.066  1.00  0.00    -0.166 SA
HETATM   18  C   UNL     1      39.267  -9.448   8.699  1.00  0.00     0.101 C 
HETATM   19  C   UNL     1      39.750  -9.594  10.141  1.00  0.00     0.245 C 
ENDBRANCH  12  13
ENDBRANCH   9  12
ENDBRANCH   8   9
ENDBRANCH   7   8
ENDBRANCH   4   7
BRANCH   3  20
HETATM   20  O   UNL     1      42.199  -6.810  10.416  1.00  0.00    -0.353 OA
HETATM   21  C   UNL     1      42.699  -5.489  10.244  1.00  0.00     0.210 C 
ENDBRANCH   3  20
BRANCH   1  22
HETATM   22  C   UNL     1      45.919  -9.335   8.254  1.00  0.00     0.271 C 
BRANCH  22  23
HETATM   23  N   UNL     1      46.086 -10.762   7.916  1.00  0.00    -0.066 N 
HETATM   24  H   UNL     1      45.527 -11.362   8.534  1.00  0.00     0.277 HD
HETATM   25  H   UNL     1      47.051 -11.084   8.101  1.00  0.00     0.277 HD
BRANCH  23  26
HETATM   26  C   UNL     1      45.810 -11.148   6.491  1.00  0.00     0.293 C 
BRANCH  26  27
HETATM   27  C   UNL     1      44.426 -11.720   6.367  1.00  0.00     0.077 A 
HETATM   28  C   UNL     1      43.350 -10.938   5.980  1.00  0.00     0.145 A 
HETATM   29  N   UNL     1      42.109 -11.448   5.841  1.00  0.00    -0.262 NA
HETATM   30  C   UNL     1      41.959 -12.771   6.095  1.00  0.00     0.048 A 
HETATM   31  C   UNL     1      40.591 -13.365   5.957  1.00  0.00     0.072 C 
HETATM   32  C   UNL     1      43.041 -13.553   6.479  1.00  0.00     0.143 A 
HETATM   33  N   UNL     1      44.299 -13.057   6.619  1.00  0.00    -0.260 NA
ENDBRANCH  26  27
ENDBRANCH  23  26
ENDBRANCH  22  23
ENDBRANCH   1  22
TORSDOF 11
ENDMDL
MODEL 10
REMARK VINA RESULT:      -6.6      4.875      7.391
REMARK  11 active torsions:
REMARK  status: ('A' for Active; 'I' for Inactive)
REMARK    1  A    between atoms: C_5  and  C_6 
REMARK    2  A    between atoms: C_6  and  N_7 
REMARK    3  A    between atoms: N_7  and  C_10 
REMARK    4  A    between atoms: C_10  and  C_11 
REMARK    5  A    between atoms: C_13  and  O_14 
REMARK    6  A    between atoms: C_16  and  O_17 
REMARK    7  A    between atoms: O_17  and  C_18 
REMARK    8  A    between atoms: C_18  and  C_19 
REMARK    9  A    between atoms: C_19  and  O_20 
REMARK   10  A    between atoms: C_19  and  C_21 
REMARK   11  A    between atoms: C_21  and  N_22 
ROOT
HETATM    1  C   UNL     1      42.203 -14.891   6.129  1.00  0.00    -0.030 A 
HETATM    2  C   UNL     1      41.237 -15.124   5.136  1.00  0.00     0.048 A 
HETATM    3  C   UNL     1      41.206 -14.347   3.969  1.00  0.00     0.102 A 
HETATM    4  C   UNL     1      42.151 -13.319   3.787  1.00  0.00     0.102 A 
HETATM    5  C   UNL     1      43.092 -13.065   4.787  1.00  0.00     0.040 A 
HETATM    6  C   UNL     1      43.121 -13.846   5.946  1.00  0.00     0.012 A 
ENDROOT
BRANCH   4   7
HETATM    7  O   UNL     1      42.061 -12.618   2.610  1.00  0.00    -0.346 OA
BRANCH   7   8
HETATM    8  C   UNL     1      41.456 -11.324   2.643  1.00  0.00     0.209 C 
BRANCH   8   9
HETATM    9  C   UNL     1      41.165 -10.934   1.189  1.00  0.00     0.168 C 
BRANCH   9  10
HETATM   10  O   UNL     1      42.074  -9.910   0.740  1.00  0.00    -0.392 OA
HETATM   11  H   UNL     1      42.946 -10.352   0.631  1.00  0.00     0.210 HD
ENDBRANCH   9  10
BRANCH   9  12
HETATM   12  C   UNL     1      41.324 -12.126   0.234  1.00  0.00     0.268 C 
BRANCH  12  13
HETATM   13  N   UNL     1      40.256 -12.028  -0.856  1.00  0.00    -0.067 N 
HETATM   14  H   UNL     1      40.686 -11.384  -1.548  1.00  0.00     0.280 HD
HETATM   15  C   UNL     1      40.021 -13.363  -1.544  1.00  0.00     0.245 C 
HETATM   16  C   UNL     1      39.144 -13.219  -2.787  1.00  0.00     0.101 C 
HETATM   17  S   UNL     1      37.496 -12.569  -2.386  1.00  0.00    -0.166 SA
HETATM   18  C   UNL     1      38.013 -11.067  -1.506  1.00  0.00     0.101 C 
HETATM   19  C   UNL     1      38.972 -11.383  -0.359  1.00  0.00     0.245 C 
ENDBRANCH  12  13
ENDBRANCH   9  12
ENDBRANCH   8   9
ENDBRANCH   7   8
ENDBRANCH   4   7
BRANCH   3  20
HETATM   20  O   UNL     1      40.308 -14.515   2.944  1.00  0.00    -0.353 OA
HETATM   21  C   UNL     1      40.376 -15.713   2.180  1.00  0.00     0.210 C 
ENDBRANCH   3  20
BRANCH   1  22
HETATM   22  C   UNL     1      42.248 -15.732   7.376  1.00  0.00     0.271 C 
BRANCH  22  23
HETATM   23  N   UNL     1      42.731 -17.099   7.098  1.00  0.00    -0.066 N 
HETATM   24  H   UNL     1      42.042 -17.638   6.560  1.00  0.00     0.277 HD
HETATM   25  H   UNL     1      42.823 -17.652   7.967  1.00  0.00     0.277 HD
BRANCH  23  26
HETATM   26  C   UNL     1      44.065 -17.210   6.418  1.00  0.00     0.293 C 
BRANCH  26  27
HETATM   27  C   UNL     1      43.955 -18.077   5.195  1.00  0.00     0.077 A 
HETATM   28  C   UNL     1      44.071 -19.456   5.271  1.00  0.00     0.145 A 
HETATM   29  N   UNL     1      43.949 -20.243   4.183  1.00  0.00    -0.262 NA
HETATM   30  C   UNL     1      43.700 -19.624   3.003  1.00  0.00     0.048 A 
HETATM   31  C   UNL     1      43.566 -20.472   1.776  1.00  0.00     0.072 C 
HETATM   32  C   UNL     1      43.581 -18.242   2.931  1.00  0.00     0.143 A 
HETATM   33  N   UNL     1      43.696 -17.433   4.018  1.00  0.00    -0.260 NA
ENDBRANCH  26  27
ENDBRANCH  23  26
ENDBRANCH  22  23
ENDBRANCH   1  22
TORSDOF 11
ENDMDL
