MODEL 1
REMARK VINA RESULT:      -8.0      0.000      0.000
REMARK  3 active torsions:
REMARK  status: ('A' for Active; 'I' for Inactive)
REMARK    1  A    between atoms: C_2  and  C_3 
REMARK    2  A    between atoms: C_3  and  C_4 
REMARK    3  A    between atoms: C_24  and  N_25 
ROOT
HETATM    1  C   UNL     1      43.306 -14.058   6.816  1.00  0.00     0.067 A 
HETATM    2  N   UNL     1      44.026 -13.218   7.583  1.00  0.00    -0.177 NA
HETATM    3  N   UNL     1      43.563 -11.995   7.270  1.00  0.00    -0.256 N 
HETATM    4  H   UNL     1      43.955 -11.187   7.742  1.00  0.00     0.191 HD
HETATM    5  C   UNL     1      42.578 -12.030   6.341  1.00  0.00     0.176 A 
HETATM    6  C   UNL     1      42.390 -13.346   5.996  1.00  0.00     0.049 A 
HETATM    7  C   UNL     1      41.336 -13.687   4.999  1.00  0.00     0.145 A 
HETATM    8  C   UNL     1      40.306 -14.688   5.593  1.00  0.00     0.246 A 
HETATM    9  O   UNL     1      39.529 -14.503   6.516  1.00  0.00    -0.271 OA
HETATM   10  N   UNL     1      40.408 -15.866   4.860  1.00  0.00    -0.325 N 
HETATM   11  C   UNL     1      41.376 -15.768   3.870  1.00  0.00     0.043 A 
HETATM   12  C   UNL     1      41.985 -14.503   3.894  1.00  0.00     0.003 A 
HETATM   13  C   UNL     1      41.717 -16.753   2.969  1.00  0.00     0.030 A 
HETATM   14  C   UNL     1      42.715 -16.453   2.045  1.00  0.00     0.003 A 
HETATM   15  C   UNL     1      43.335 -15.191   2.042  1.00  0.00     0.007 A 
HETATM   16  C   UNL     1      42.975 -14.189   2.961  1.00  0.00    -0.051 A 
HETATM   17  C   UNL     1      43.675 -12.863   2.928  1.00  0.00     0.049 C 
HETATM   18  C   UNL     1      40.595 -12.439   4.520  1.00  0.00     0.095 A 
HETATM   19  C   UNL     1      39.545 -12.622   3.572  1.00  0.00     0.101 C 
HETATM   20  N   UNL     1      38.681 -12.774   2.812  1.00  0.00    -0.191 NA
HETATM   21  C   UNL     1      40.901 -11.191   4.967  1.00  0.00     0.141 A 
HETATM   22  O   UNL     1      41.929 -10.962   5.896  1.00  0.00    -0.279 OA
HETATM   23  H   UNL     1      39.828 -16.673   5.039  1.00  0.00     0.169 HD
ENDROOT
BRANCH  21  24
HETATM   24  N   UNL     1      40.273 -10.027   4.580  1.00  0.00    -0.282 NA
HETATM   25  H   UNL     1      39.955 -10.003   3.613  1.00  0.00     0.126 HD
HETATM   26  H   UNL     1      39.544  -9.755   5.236  1.00  0.00     0.126 HD
ENDBRANCH  21  24
BRANCH   1  27
HETATM   27  C   UNL     1      43.523 -15.530   6.960  1.00  0.00     0.061 C 
BRANCH  27  28
HETATM   28  C   UNL     1      44.705 -16.080   6.158  1.00  0.00     0.002 C 
HETATM   29  C   UNL     1      44.371 -17.331   5.357  1.00  0.00     0.005 C 
ENDBRANCH  27  28
ENDBRANCH   1  27
TORSDOF 3
ENDMDL
MODEL 2
REMARK VINA RESULT:      -8.0      1.921      2.690
REMARK  3 active torsions:
REMARK  status: ('A' for Active; 'I' for Inactive)
REMARK    1  A    between atoms: C_2  and  C_3 
REMARK    2  A    between atoms: C_3  and  C_4 
REMARK    3  A    between atoms: C_24  and  N_25 
ROOT
HETATM    1  C   UNL     1      43.678 -16.825   5.098  1.00  0.00     0.067 A 
HETATM    2  N   UNL     1      44.893 -16.878   5.674  1.00  0.00    -0.177 NA
HETATM    3  N   UNL     1      45.023 -15.693   6.296  1.00  0.00    -0.256 N 
HETATM    4  H   UNL     1      45.871 -15.505   6.820  1.00  0.00     0.191 HD
HETATM    5  C   UNL     1      43.938 -14.898   6.139  1.00  0.00     0.176 A 
HETATM    6  C   UNL     1      43.045 -15.579   5.348  1.00  0.00     0.049 A 
HETATM    7  C   UNL     1      41.735 -14.944   5.029  1.00  0.00     0.145 A 
HETATM    8  C   UNL     1      40.551 -15.843   5.488  1.00  0.00     0.246 A 
HETATM    9  O   UNL     1      40.247 -16.157   6.627  1.00  0.00    -0.271 OA
HETATM   10  N   UNL     1      39.862 -16.229   4.343  1.00  0.00    -0.325 N 
HETATM   11  C   UNL     1      40.444 -15.707   3.196  1.00  0.00     0.043 A 
HETATM   12  C   UNL     1      41.574 -14.938   3.519  1.00  0.00     0.003 A 
HETATM   13  C   UNL     1      40.001 -15.892   1.905  1.00  0.00     0.030 A 
HETATM   14  C   UNL     1      40.725 -15.275   0.888  1.00  0.00     0.003 A 
HETATM   15  C   UNL     1      41.856 -14.493   1.184  1.00  0.00     0.007 A 
HETATM   16  C   UNL     1      42.296 -14.303   2.507  1.00  0.00    -0.051 A 
HETATM   17  C   UNL     1      43.516 -13.473   2.772  1.00  0.00     0.049 C 
HETATM   18  C   UNL     1      41.601 -13.573   5.691  1.00  0.00     0.095 A 
HETATM   19  C   UNL     1      40.384 -12.859   5.482  1.00  0.00     0.101 C 
HETATM   20  N   UNL     1      39.388 -12.285   5.323  1.00  0.00    -0.191 NA
HETATM   21  C   UNL     1      42.586 -13.033   6.459  1.00  0.00     0.141 A 
HETATM   22  O   UNL     1      43.802 -13.698   6.689  1.00  0.00    -0.279 OA
HETATM   23  H   UNL     1      39.034 -16.806   4.372  1.00  0.00     0.169 HD
ENDROOT
BRANCH  21  24
HETATM   24  N   UNL     1      42.530 -11.807   7.086  1.00  0.00    -0.282 NA
HETATM   25  H   UNL     1      42.764 -11.813   8.076  1.00  0.00     0.126 HD
HETATM   26  H   UNL     1      43.043 -11.096   6.569  1.00  0.00     0.126 HD
ENDBRANCH  21  24
BRANCH   1  27
HETATM   27  C   UNL     1      43.176 -18.027   4.363  1.00  0.00     0.061 C 
BRANCH  27  28
HETATM   28  C   UNL     1      43.396 -17.984   2.849  1.00  0.00     0.002 C 
HETATM   29  C   UNL     1      43.184 -19.326   2.162  1.00  0.00     0.005 C 
ENDBRANCH  27  28
ENDBRANCH   1  27
TORSDOF 3
ENDMDL
MODEL 3
REMARK VINA RESULT:      -7.5      1.939      5.182
REMARK  3 active torsions:
REMARK  status: ('A' for Active; 'I' for Inactive)
REMARK    1  A    between atoms: C_2  and  C_3 
REMARK    2  A    between atoms: C_3  and  C_4 
REMARK    3  A    between atoms: C_24  and  N_25 
ROOT
HETATM    1  C   UNL     1      39.666 -13.065   4.228  1.00  0.00     0.067 A 
HETATM    2  N   UNL     1      38.778 -13.062   3.217  1.00  0.00    -0.177 NA
HETATM    3  N   UNL     1      39.161 -14.083   2.429  1.00  0.00    -0.256 N 
HETATM    4  H   UNL     1      38.621 -14.286   1.595  1.00  0.00     0.191 HD
HETATM    5  C   UNL     1      40.250 -14.732   2.906  1.00  0.00     0.176 A 
HETATM    6  C   UNL     1      40.631 -14.094   4.061  1.00  0.00     0.049 A 
HETATM    7  C   UNL     1      41.802 -14.617   4.820  1.00  0.00     0.145 A 
HETATM    8  C   UNL     1      41.407 -14.977   6.280  1.00  0.00     0.246 A 
HETATM    9  O   UNL     1      40.636 -15.846   6.655  1.00  0.00    -0.271 OA
HETATM   10  N   UNL     1      42.117 -14.125   7.120  1.00  0.00    -0.325 N 
HETATM   11  C   UNL     1      42.919 -13.250   6.400  1.00  0.00     0.043 A 
HETATM   12  C   UNL     1      42.780 -13.471   5.020  1.00  0.00     0.003 A 
HETATM   13  C   UNL     1      43.751 -12.289   6.930  1.00  0.00     0.030 A 
HETATM   14  C   UNL     1      44.481 -11.513   6.033  1.00  0.00     0.003 A 
HETATM   15  C   UNL     1      44.366 -11.718   4.646  1.00  0.00     0.007 A 
HETATM   16  C   UNL     1      43.519 -12.708   4.115  1.00  0.00    -0.051 A 
HETATM   17  C   UNL     1      43.419 -12.880   2.629  1.00  0.00     0.049 C 
HETATM   18  C   UNL     1      42.398 -15.854   4.149  1.00  0.00     0.095 A 
HETATM   19  C   UNL     1      43.519 -16.469   4.782  1.00  0.00     0.101 C 
HETATM   20  N   UNL     1      44.421 -16.978   5.305  1.00  0.00    -0.191 NA
HETATM   21  C   UNL     1      41.895 -16.372   2.995  1.00  0.00     0.141 A 
HETATM   22  O   UNL     1      40.797 -15.798   2.335  1.00  0.00    -0.279 OA
HETATM   23  H   UNL     1      42.050 -14.169   8.126  1.00  0.00     0.169 HD
ENDROOT
BRANCH  21  24
HETATM   24  N   UNL     1      42.380 -17.483   2.340  1.00  0.00    -0.282 NA
HETATM   25  H   UNL     1      43.251 -17.343   1.832  1.00  0.00     0.126 HD
HETATM   26  H   UNL     1      42.411 -18.297   2.949  1.00  0.00     0.126 HD
ENDBRANCH  21  24
BRANCH   1  27
HETATM   27  C   UNL     1      39.495 -12.080   5.340  1.00  0.00     0.061 C 
BRANCH  27  28
HETATM   28  C   UNL     1      40.309 -10.794   5.181  1.00  0.00     0.002 C 
HETATM   29  C   UNL     1      40.758 -10.187   6.503  1.00  0.00     0.005 C 
ENDBRANCH  27  28
ENDBRANCH   1  27
TORSDOF 3
ENDMDL
MODEL 4
REMARK VINA RESULT:      -7.4      2.309      3.101
REMARK  3 active torsions:
REMARK  status: ('A' for Active; 'I' for Inactive)
REMARK    1  A    between atoms: C_2  and  C_3 
REMARK    2  A    between atoms: C_3  and  C_4 
REMARK    3  A    between atoms: C_24  and  N_25 
ROOT
HETATM    1  C   UNL     1      40.873 -12.399   5.313  1.00  0.00     0.067 A 
HETATM    2  N   UNL     1      41.363 -11.431   6.108  1.00  0.00    -0.177 NA
HETATM    3  N   UNL     1      41.837 -10.503   5.258  1.00  0.00    -0.256 N 
HETATM    4  H   UNL     1      42.250  -9.658   5.636  1.00  0.00     0.191 HD
HETATM    5  C   UNL     1      41.660 -10.845   3.959  1.00  0.00     0.176 A 
HETATM    6  C   UNL     1      41.059 -12.080   3.941  1.00  0.00     0.049 A 
HETATM    7  C   UNL     1      40.720 -12.698   2.628  1.00  0.00     0.145 A 
HETATM    8  C   UNL     1      39.200 -13.014   2.535  1.00  0.00     0.246 A 
HETATM    9  O   UNL     1      38.269 -12.225   2.528  1.00  0.00    -0.271 OA
HETATM   10  N   UNL     1      39.074 -14.397   2.437  1.00  0.00    -0.325 N 
HETATM   11  C   UNL     1      40.312 -15.025   2.463  1.00  0.00     0.043 A 
HETATM   12  C   UNL     1      41.345 -14.082   2.587  1.00  0.00     0.003 A 
HETATM   13  C   UNL     1      40.535 -16.382   2.378  1.00  0.00     0.030 A 
HETATM   14  C   UNL     1      41.858 -16.813   2.416  1.00  0.00     0.003 A 
HETATM   15  C   UNL     1      42.912 -15.889   2.531  1.00  0.00     0.007 A 
HETATM   16  C   UNL     1      42.675 -14.505   2.610  1.00  0.00    -0.051 A 
HETATM   17  C   UNL     1      43.830 -13.559   2.747  1.00  0.00     0.049 C 
HETATM   18  C   UNL     1      41.108 -11.787   1.464  1.00  0.00     0.095 A 
HETATM   19  C   UNL     1      40.824 -12.249   0.145  1.00  0.00     0.101 C 
HETATM   20  N   UNL     1      40.578 -12.620  -0.927  1.00  0.00    -0.191 NA
HETATM   21  C   UNL     1      41.699 -10.575   1.650  1.00  0.00     0.141 A 
HETATM   22  O   UNL     1      42.002 -10.081   2.930  1.00  0.00    -0.279 OA
HETATM   23  H   UNL     1      38.181 -14.858   2.346  1.00  0.00     0.169 HD
ENDROOT
BRANCH  21  24
HETATM   24  N   UNL     1      42.072  -9.705   0.649  1.00  0.00    -0.282 NA
HETATM   25  H   UNL     1      42.893  -9.137   0.849  1.00  0.00     0.126 HD
HETATM   26  H   UNL     1      42.131 -10.171  -0.253  1.00  0.00     0.126 HD
ENDBRANCH  21  24
BRANCH   1  27
HETATM   27  C   UNL     1      40.200 -13.577   5.942  1.00  0.00     0.061 C 
BRANCH  27  28
HETATM   28  C   UNL     1      41.137 -14.738   6.281  1.00  0.00     0.002 C 
HETATM   29  C   UNL     1      40.526 -16.110   6.032  1.00  0.00     0.005 C 
ENDBRANCH  27  28
ENDBRANCH   1  27
TORSDOF 3
ENDMDL
MODEL 5
REMARK VINA RESULT:      -7.4      7.526     10.269
REMARK  3 active torsions:
REMARK  status: ('A' for Active; 'I' for Inactive)
REMARK    1  A    between atoms: C_2  and  C_3 
REMARK    2  A    between atoms: C_3  and  C_4 
REMARK    3  A    between atoms: C_24  and  N_25 
ROOT
HETATM    1  C   UNL     1      39.776  -6.048  10.062  1.00  0.00     0.067 A 
HETATM    2  N   UNL     1      39.435  -5.837   8.778  1.00  0.00    -0.177 NA
HETATM    3  N   UNL     1      39.024  -7.039   8.335  1.00  0.00    -0.256 N 
HETATM    4  H   UNL     1      38.700  -7.124   7.379  1.00  0.00     0.191 HD
HETATM    5  C   UNL     1      39.089  -7.997   9.291  1.00  0.00     0.176 A 
HETATM    6  C   UNL     1      39.594  -7.409  10.424  1.00  0.00     0.049 A 
HETATM    7  C   UNL     1      39.752  -8.234  11.656  1.00  0.00     0.145 A 
HETATM    8  C   UNL     1      38.957  -7.624  12.844  1.00  0.00     0.246 A 
HETATM    9  O   UNL     1      37.748  -7.497  12.951  1.00  0.00    -0.271 OA
HETATM   10  N   UNL     1      39.886  -7.248  13.809  1.00  0.00    -0.325 N 
HETATM   11  C   UNL     1      41.184  -7.526  13.403  1.00  0.00     0.043 A 
HETATM   12  C   UNL     1      41.191  -8.105  12.124  1.00  0.00     0.003 A 
HETATM   13  C   UNL     1      42.331  -7.285  14.129  1.00  0.00     0.030 A 
HETATM   14  C   UNL     1      43.542  -7.644  13.543  1.00  0.00     0.003 A 
HETATM   15  C   UNL     1      43.577  -8.233  12.267  1.00  0.00     0.007 A 
HETATM   16  C   UNL     1      42.400  -8.482  11.537  1.00  0.00    -0.051 A 
HETATM   17  C   UNL     1      42.488  -9.099  10.173  1.00  0.00     0.049 C 
HETATM   18  C   UNL     1      39.281  -9.671  11.431  1.00  0.00     0.095 A 
HETATM   19  C   UNL     1      39.360 -10.569  12.536  1.00  0.00     0.101 C 
HETATM   20  N   UNL     1      39.411 -11.295  13.440  1.00  0.00    -0.191 NA
HETATM   21  C   UNL     1      38.795 -10.101  10.235  1.00  0.00     0.141 A 
HETATM   22  O   UNL     1      38.702  -9.254   9.118  1.00  0.00    -0.279 OA
HETATM   23  H   UNL     1      39.621  -6.838  14.693  1.00  0.00     0.169 HD
ENDROOT
BRANCH  21  24
HETATM   24  N   UNL     1      38.351 -11.378   9.965  1.00  0.00    -0.282 NA
HETATM   25  H   UNL     1      38.902 -11.895   9.283  1.00  0.00     0.126 HD
HETATM   26  H   UNL     1      38.188 -11.909  10.817  1.00  0.00     0.126 HD
ENDBRANCH  21  24
BRANCH   1  27
HETATM   27  C   UNL     1      40.225  -4.885  10.889  1.00  0.00     0.061 C 
BRANCH  27  28
HETATM   28  C   UNL     1      41.740  -4.673  10.917  1.00  0.00     0.002 C 
HETATM   29  C   UNL     1      42.260  -4.149  12.249  1.00  0.00     0.005 C 
ENDBRANCH  27  28
ENDBRANCH   1  27
TORSDOF 3
ENDMDL
MODEL 6
REMARK VINA RESULT:      -7.1      1.911      4.502
REMARK  3 active torsions:
REMARK  status: ('A' for Active; 'I' for Inactive)
REMARK    1  A    between atoms: C_2  and  C_3 
REMARK    2  A    between atoms: C_3  and  C_4 
REMARK    3  A    between atoms: C_24  and  N_25 
ROOT
HETATM    1  C   UNL     1      39.782 -12.241   2.945  1.00  0.00     0.067 A 
HETATM    2  N   UNL     1      38.655 -11.515   3.064  1.00  0.00    -0.177 NA
HETATM    3  N   UNL     1      38.809 -10.837   4.215  1.00  0.00    -0.256 N 
HETATM    4  H   UNL     1      38.077 -10.202   4.511  1.00  0.00     0.191 HD
HETATM    5  C   UNL     1      39.990 -11.102   4.824  1.00  0.00     0.176 A 
HETATM    6  C   UNL     1      40.648 -12.027   4.051  1.00  0.00     0.049 A 
HETATM    7  C   UNL     1      42.001 -12.488   4.474  1.00  0.00     0.145 A 
HETATM    8  C   UNL     1      43.056 -12.221   3.364  1.00  0.00     0.246 A 
HETATM    9  O   UNL     1      43.436 -11.143   2.936  1.00  0.00    -0.271 OA
HETATM   10  N   UNL     1      43.525 -13.459   2.936  1.00  0.00    -0.325 N 
HETATM   11  C   UNL     1      42.909 -14.500   3.616  1.00  0.00     0.043 A 
HETATM   12  C   UNL     1      41.977 -14.006   4.543  1.00  0.00     0.003 A 
HETATM   13  C   UNL     1      43.153 -15.844   3.436  1.00  0.00     0.030 A 
HETATM   14  C   UNL     1      42.430 -16.735   4.226  1.00  0.00     0.003 A 
HETATM   15  C   UNL     1      41.498 -16.266   5.167  1.00  0.00     0.007 A 
HETATM   16  C   UNL     1      41.260 -14.891   5.349  1.00  0.00    -0.051 A 
HETATM   17  C   UNL     1      40.244 -14.439   6.356  1.00  0.00     0.049 C 
HETATM   18  C   UNL     1      42.451 -11.798   5.761  1.00  0.00     0.095 A 
HETATM   19  C   UNL     1      43.739 -12.135   6.272  1.00  0.00     0.101 C 
HETATM   20  N   UNL     1      44.794 -12.399   6.679  1.00  0.00    -0.191 NA
HETATM   21  C   UNL     1      41.674 -10.889   6.412  1.00  0.00     0.141 A 
HETATM   22  O   UNL     1      40.398 -10.530   5.949  1.00  0.00    -0.279 OA
HETATM   23  H   UNL     1      44.237 -13.558   2.227  1.00  0.00     0.169 HD
ENDROOT
BRANCH  21  24
HETATM   24  N   UNL     1      42.018 -10.229   7.572  1.00  0.00    -0.282 NA
HETATM   25  H   UNL     1      41.719  -9.257   7.625  1.00  0.00     0.126 HD
HETATM   26  H   UNL     1      41.760 -10.761   8.399  1.00  0.00     0.126 HD
ENDBRANCH  21  24
BRANCH   1  27
HETATM   27  C   UNL     1      39.974 -13.080   1.722  1.00  0.00     0.061 C 
BRANCH  27  28
HETATM   28  C   UNL     1      39.614 -14.556   1.901  1.00  0.00     0.002 C 
HETATM   29  C   UNL     1      40.419 -15.494   1.013  1.00  0.00     0.005 C 
ENDBRANCH  27  28
ENDBRANCH   1  27
TORSDOF 3
ENDMDL
MODEL 7
REMARK VINA RESULT:      -7.0      1.852      4.102
REMARK  3 active torsions:
REMARK  status: ('A' for Active; 'I' for Inactive)
REMARK    1  A    between atoms: C_2  and  C_3 
REMARK    2  A    between atoms: C_3  and  C_4 
REMARK    3  A    between atoms: C_24  and  N_25 
ROOT
HETATM    1  C   UNL     1      41.462 -15.716   3.902  1.00  0.00     0.067 A 
HETATM    2  N   UNL     1      42.323 -16.740   4.045  1.00  0.00    -0.177 NA
HETATM    3  N   UNL     1      43.241 -16.291   4.918  1.00  0.00    -0.256 N 
HETATM    4  H   UNL     1      43.998 -16.907   5.194  1.00  0.00     0.191 HD
HETATM    5  C   UNL     1      42.991 -15.027   5.336  1.00  0.00     0.176 A 
HETATM    6  C   UNL     1      41.859 -14.600   4.686  1.00  0.00     0.049 A 
HETATM    7  C   UNL     1      41.332 -13.236   4.977  1.00  0.00     0.145 A 
HETATM    8  C   UNL     1      39.864 -13.300   5.484  1.00  0.00     0.246 A 
HETATM    9  O   UNL     1      39.449 -13.800   6.517  1.00  0.00    -0.271 OA
HETATM   10  N   UNL     1      39.074 -12.653   4.539  1.00  0.00    -0.325 N 
HETATM   11  C   UNL     1      39.833 -12.181   3.477  1.00  0.00     0.043 A 
HETATM   12  C   UNL     1      41.189 -12.499   3.656  1.00  0.00     0.003 A 
HETATM   13  C   UNL     1      39.359 -11.490   2.383  1.00  0.00     0.030 A 
HETATM   14  C   UNL     1      40.289 -11.097   1.424  1.00  0.00     0.003 A 
HETATM   15  C   UNL     1      41.654 -11.395   1.584  1.00  0.00     0.007 A 
HETATM   16  C   UNL     1      42.130 -12.095   2.707  1.00  0.00    -0.051 A 
HETATM   17  C   UNL     1      43.593 -12.403   2.826  1.00  0.00     0.049 C 
HETATM   18  C   UNL     1      42.186 -12.517   6.020  1.00  0.00     0.095 A 
HETATM   19  C   UNL     1      41.784 -11.203   6.406  1.00  0.00     0.101 C 
HETATM   20  N   UNL     1      41.448 -10.141   6.730  1.00  0.00    -0.191 NA
HETATM   21  C   UNL     1      43.288 -13.085   6.580  1.00  0.00     0.141 A 
HETATM   22  O   UNL     1      43.724 -14.373   6.228  1.00  0.00    -0.279 OA
HETATM   23  H   UNL     1      38.076 -12.541   4.645  1.00  0.00     0.169 HD
ENDROOT
BRANCH  21  24
HETATM   24  N   UNL     1      44.099 -12.496   7.525  1.00  0.00    -0.282 NA
HETATM   25  H   UNL     1      44.856 -13.080   7.875  1.00  0.00     0.126 HD
HETATM   26  H   UNL     1      44.422 -11.579   7.226  1.00  0.00     0.126 HD
ENDBRANCH  21  24
BRANCH   1  27
HETATM   27  C   UNL     1      40.260 -15.901   3.033  1.00  0.00     0.061 C 
BRANCH  27  28
HETATM   28  C   UNL     1      40.572 -16.079   1.546  1.00  0.00     0.002 C 
HETATM   29  C   UNL     1      40.433 -14.799   0.734  1.00  0.00     0.005 C 
ENDBRANCH  27  28
ENDBRANCH   1  27
TORSDOF 3
ENDMDL
MODEL 8
REMARK VINA RESULT:      -7.0      7.088      9.794
REMARK  3 active torsions:
REMARK  status: ('A' for Active; 'I' for Inactive)
REMARK    1  A    between atoms: C_2  and  C_3 
REMARK    2  A    between atoms: C_3  and  C_4 
REMARK    3  A    between atoms: C_24  and  N_25 
ROOT
HETATM    1  C   UNL     1      40.581  -9.842  13.052  1.00  0.00     0.067 A 
HETATM    2  N   UNL     1      39.750 -10.824  13.447  1.00  0.00    -0.177 NA
HETATM    3  N   UNL     1      39.030 -11.120  12.351  1.00  0.00    -0.256 N 
HETATM    4  H   UNL     1      38.334 -11.855  12.405  1.00  0.00     0.191 HD
HETATM    5  C   UNL     1      39.377 -10.367  11.279  1.00  0.00     0.176 A 
HETATM    6  C   UNL     1      40.364  -9.505  11.689  1.00  0.00     0.049 A 
HETATM    7  C   UNL     1      40.959  -8.565  10.697  1.00  0.00     0.145 A 
HETATM    8  C   UNL     1      42.497  -8.762  10.591  1.00  0.00     0.246 A 
HETATM    9  O   UNL     1      43.101  -9.744  10.189  1.00  0.00    -0.271 OA
HETATM   10  N   UNL     1      43.093  -7.585  11.031  1.00  0.00    -0.325 N 
HETATM   11  C   UNL     1      42.146  -6.647  11.417  1.00  0.00     0.043 A 
HETATM   12  C   UNL     1      40.848  -7.158  11.260  1.00  0.00     0.003 A 
HETATM   13  C   UNL     1      42.405  -5.379  11.892  1.00  0.00     0.030 A 
HETATM   14  C   UNL     1      41.309  -4.586  12.221  1.00  0.00     0.003 A 
HETATM   15  C   UNL     1      39.998  -5.071  12.064  1.00  0.00     0.007 A 
HETATM   16  C   UNL     1      39.743  -6.364  11.573  1.00  0.00    -0.051 A 
HETATM   17  C   UNL     1      38.329  -6.842  11.437  1.00  0.00     0.049 C 
HETATM   18  C   UNL     1      40.340  -8.749   9.311  1.00  0.00     0.095 A 
HETATM   19  C   UNL     1      40.830  -7.921   8.258  1.00  0.00     0.101 C 
HETATM   20  N   UNL     1      41.240  -7.258   7.398  1.00  0.00    -0.191 NA
HETATM   21  C   UNL     1      39.362  -9.662   9.064  1.00  0.00     0.141 A 
HETATM   22  O   UNL     1      38.846 -10.494  10.070  1.00  0.00    -0.279 OA
HETATM   23  H   UNL     1      44.094  -7.450  11.044  1.00  0.00     0.169 HD
ENDROOT
BRANCH  21  24
HETATM   24  N   UNL     1      38.763  -9.881   7.842  1.00  0.00    -0.282 NA
HETATM   25  H   UNL     1      37.907  -9.356   7.675  1.00  0.00     0.126 HD
HETATM   26  H   UNL     1      39.427  -9.796   7.076  1.00  0.00     0.126 HD
ENDBRANCH  21  24
BRANCH   1  27
HETATM   27  C   UNL     1      41.584  -9.311  14.026  1.00  0.00     0.061 C 
BRANCH  27  28
HETATM   28  C   UNL     1      41.137  -8.055  14.777  1.00  0.00     0.002 C 
HETATM   29  C   UNL     1      42.284  -7.128  15.154  1.00  0.00     0.005 C 
ENDBRANCH  27  28
ENDBRANCH   1  27
TORSDOF 3
ENDMDL
MODEL 9
REMARK VINA RESULT:      -7.0      7.751     10.441
REMARK  3 active torsions:
REMARK  status: ('A' for Active; 'I' for Inactive)
REMARK    1  A    between atoms: C_2  and  C_3 
REMARK    2  A    between atoms: C_3  and  C_4 
REMARK    3  A    between atoms: C_24  and  N_25 
ROOT
HETATM    1  C   UNL     1      41.972  -7.364  13.694  1.00  0.00     0.067 A 
HETATM    2  N   UNL     1      42.116  -7.707  14.986  1.00  0.00    -0.177 NA
HETATM    3  N   UNL     1      41.361  -8.811  15.129  1.00  0.00    -0.256 N 
HETATM    4  H   UNL     1      41.325  -9.266  16.035  1.00  0.00     0.191 HD
HETATM    5  C   UNL     1      40.752  -9.180  13.977  1.00  0.00     0.176 A 
HETATM    6  C   UNL     1      41.097  -8.258  13.020  1.00  0.00     0.049 A 
HETATM    7  C   UNL     1      40.583  -8.432  11.632  1.00  0.00     0.145 A 
HETATM    8  C   UNL     1      41.750  -8.516  10.609  1.00  0.00     0.246 A 
HETATM    9  O   UNL     1      42.606  -9.382  10.518  1.00  0.00    -0.271 OA
HETATM   10  N   UNL     1      41.643  -7.410   9.772  1.00  0.00    -0.325 N 
HETATM   11  C   UNL     1      40.563  -6.611  10.119  1.00  0.00     0.043 A 
HETATM   12  C   UNL     1      39.885  -7.145  11.227  1.00  0.00     0.003 A 
HETATM   13  C   UNL     1      40.176  -5.449   9.486  1.00  0.00     0.030 A 
HETATM   14  C   UNL     1      39.054  -4.794   9.988  1.00  0.00     0.003 A 
HETATM   15  C   UNL     1      38.353  -5.312  11.091  1.00  0.00     0.007 A 
HETATM   16  C   UNL     1      38.751  -6.502  11.726  1.00  0.00    -0.051 A 
HETATM   17  C   UNL     1      37.980  -7.008  12.908  1.00  0.00     0.049 C 
HETATM   18  C   UNL     1      39.723  -9.690  11.508  1.00  0.00     0.095 A 
HETATM   19  C   UNL     1      39.178  -9.989  10.224  1.00  0.00     0.101 C 
HETATM   20  N   UNL     1      38.747 -10.239   9.175  1.00  0.00    -0.191 NA
HETATM   21  C   UNL     1      39.477 -10.514  12.562  1.00  0.00     0.141 A 
HETATM   22  O   UNL     1      39.989 -10.257  13.845  1.00  0.00    -0.279 OA
HETATM   23  H   UNL     1      42.278  -7.242   9.004  1.00  0.00     0.169 HD
ENDROOT
BRANCH  21  24
HETATM   24  N   UNL     1      38.716 -11.662  12.520  1.00  0.00    -0.282 NA
HETATM   25  H   UNL     1      37.990 -11.677  11.806  1.00  0.00     0.126 HD
HETATM   26  H   UNL     1      39.295 -12.498  12.504  1.00  0.00     0.126 HD
ENDBRANCH  21  24
BRANCH   1  27
HETATM   27  C   UNL     1      42.740  -6.193  13.168  1.00  0.00     0.061 C 
BRANCH  27  28
HETATM   28  C   UNL     1      41.958  -4.878  13.146  1.00  0.00     0.002 C 
HETATM   29  C   UNL     1      42.399  -3.923  12.046  1.00  0.00     0.005 C 
ENDBRANCH  27  28
ENDBRANCH   1  27
TORSDOF 3
ENDMDL
MODEL 10
REMARK VINA RESULT:      -6.9      2.467      5.145
REMARK  3 active torsions:
REMARK  status: ('A' for Active; 'I' for Inactive)
REMARK    1  A    between atoms: C_2  and  C_3 
REMARK    2  A    between atoms: C_3  and  C_4 
REMARK    3  A    between atoms: C_24  and  N_25 
ROOT
HETATM    1  C   UNL     1      39.976 -12.756   1.096  1.00  0.00     0.067 A 
HETATM    2  N   UNL     1      38.726 -12.282   0.947  1.00  0.00    -0.177 NA
HETATM    3  N   UNL     1      38.276 -12.111   2.203  1.00  0.00    -0.256 N 
HETATM    4  H   UNL     1      37.343 -11.742   2.344  1.00  0.00     0.191 HD
HETATM    5  C   UNL     1      39.195 -12.454   3.138  1.00  0.00     0.176 A 
HETATM    6  C   UNL     1      40.308 -12.903   2.470  1.00  0.00     0.049 A 
HETATM    7  C   UNL     1      41.500 -13.328   3.258  1.00  0.00     0.145 A 
HETATM    8  C   UNL     1      42.759 -12.511   2.853  1.00  0.00     0.246 A 
HETATM    9  O   UNL     1      42.954 -11.314   2.997  1.00  0.00    -0.271 OA
HETATM   10  N   UNL     1      43.668 -13.405   2.296  1.00  0.00    -0.325 N 
HETATM   11  C   UNL     1      43.164 -14.698   2.277  1.00  0.00     0.043 A 
HETATM   12  C   UNL     1      41.870 -14.736   2.822  1.00  0.00     0.003 A 
HETATM   13  C   UNL     1      43.814 -15.816   1.800  1.00  0.00     0.030 A 
HETATM   14  C   UNL     1      43.135 -17.029   1.876  1.00  0.00     0.003 A 
HETATM   15  C   UNL     1      41.842 -17.096   2.425  1.00  0.00     0.007 A 
HETATM   16  C   UNL     1      41.189 -15.950   2.916  1.00  0.00    -0.051 A 
HETATM   17  C   UNL     1      39.804 -16.068   3.479  1.00  0.00     0.049 C 
HETATM   18  C   UNL     1      41.265 -13.166   4.759  1.00  0.00     0.095 A 
HETATM   19  C   UNL     1      42.334 -13.522   5.634  1.00  0.00     0.101 C 
HETATM   20  N   UNL     1      43.210 -13.798   6.344  1.00  0.00    -0.191 NA
HETATM   21  C   UNL     1      40.093 -12.697   5.269  1.00  0.00     0.141 A 
HETATM   22  O   UNL     1      39.012 -12.339   4.447  1.00  0.00    -0.279 OA
HETATM   23  H   UNL     1      44.580 -13.123   1.968  1.00  0.00     0.169 HD
ENDROOT
BRANCH  21  24
HETATM   24  N   UNL     1      39.816 -12.524   6.607  1.00  0.00    -0.282 NA
HETATM   25  H   UNL     1      39.673 -11.560   6.901  1.00  0.00     0.126 HD
HETATM   26  H   UNL     1      39.071 -13.141   6.921  1.00  0.00     0.126 HD
ENDBRANCH  21  24
BRANCH   1  27
HETATM   27  C   UNL     1      40.804 -13.001  -0.124  1.00  0.00     0.061 C 
BRANCH  27  28
HETATM   28  C   UNL     1      40.082 -12.737  -1.447  1.00  0.00     0.002 C 
HETATM   29  C   UNL     1      40.195 -13.880  -2.445  1.00  0.00     0.005 C 
ENDBRANCH  27  28
ENDBRANCH   1  27
TORSDOF 3
ENDMDL
