MODEL 1
REMARK VINA RESULT:      -9.7      0.000      0.000
REMARK  7 active torsions:
REMARK  status: ('A' for Active; 'I' for Inactive)
REMARK    1  A    between atoms: C_2  and  N_3 
REMARK    2  A    between atoms: N_3  and  N_4 
REMARK       I    between atoms: N_4  and  C_5 
REMARK    3  A    between atoms: C_5  and  C_6 
REMARK       I    between atoms: C_6  and  N_7 
REMARK    4  A    between atoms: N_7  and  C_8 
REMARK    5  A    between atoms: C_9  and  O_10 
REMARK    6  A    between atoms: C_18  and  C_19 
REMARK       I    between atoms: C_19  and  N_20 
REMARK    7  A    between atoms: N_20  and  C_21 
ROOT
HETATM    1  N   UNL     1      43.609 -11.982   7.913  1.00  0.00    -0.302 N 
HETATM    2  H   UNL     1      43.155 -12.288   8.783  1.00  0.00     0.186 HD
ENDROOT
BRANCH   1   3
HETATM    3  C   UNL     1      43.358 -12.767   6.799  1.00  0.00     0.027 C 
HETATM    4  C   UNL     1      43.663 -12.093   5.478  1.00  0.00     0.070 C 
HETATM    5  C   UNL     1      42.861 -14.019   6.877  1.00  0.00     0.100 C 
BRANCH   5   6
HETATM    6  C   UNL     1      42.442 -14.833   5.698  1.00  0.00     0.247 C 
HETATM    7  N   UNL     1      43.448 -15.687   5.288  1.00  0.00    -0.323 N 
HETATM    8  H   UNL     1      44.318 -15.626   5.794  1.00  0.00     0.169 HD
HETATM    9  O   UNL     1      41.321 -14.720   5.221  1.00  0.00    -0.268 OA
BRANCH   7  10
HETATM   10  C   UNL     1      43.419 -16.608   4.208  1.00  0.00     0.041 A 
HETATM   11  C   UNL     1      43.566 -17.994   4.477  1.00  0.00    -0.025 A 
HETATM   12  C   UNL     1      43.618 -18.910   3.397  1.00  0.00    -0.050 A 
HETATM   13  C   UNL     1      43.722 -18.506   5.897  1.00  0.00     0.041 C 
HETATM   14  C   UNL     1      43.793 -20.397   3.607  1.00  0.00     0.039 C 
HETATM   15  C   UNL     1      43.456 -18.452   2.083  1.00  0.00     0.008 A 
HETATM   16  C   UNL     1      44.354 -20.747   4.978  1.00  0.00     0.005 C 
HETATM   17  C   UNL     1      43.568 -20.017   6.053  1.00  0.00     0.005 C 
HETATM   18  C   UNL     1      43.276 -17.099   1.828  1.00  0.00     0.003 A 
HETATM   19  C   UNL     1      43.264 -16.187   2.882  1.00  0.00     0.030 A 
ENDBRANCH   7  10
ENDBRANCH   5   6
ENDBRANCH   1   3
BRANCH   1  20
HETATM   20  N   UNL     1      43.833 -10.599   7.864  1.00  0.00    -0.262 N 
HETATM   21  C   UNL     1      44.789 -10.115   8.751  1.00  0.00     0.328 C 
HETATM   22  O   UNL     1      45.563 -10.806   9.401  1.00  0.00    -0.261 OA
HETATM   23  H   UNL     1      43.021 -10.006   7.708  1.00  0.00     0.190 HD
BRANCH  21  24
HETATM   24  C   UNL     1      44.706  -8.600   8.945  1.00  0.00     0.315 C 
HETATM   25  N   UNL     1      43.733  -8.062   9.749  1.00  0.00    -0.316 N 
HETATM   26  H   UNL     1      43.511  -7.092   9.542  1.00  0.00     0.169 HD
HETATM   27  O   UNL     1      45.485  -7.901   8.298  1.00  0.00    -0.262 OA
BRANCH  25  28
HETATM   28  C   UNL     1      42.964  -8.631  10.783  1.00  0.00     0.068 A 
HETATM   29  C   UNL     1      41.680  -9.103  10.443  1.00  0.00     0.095 A 
HETATM   30  C   UNL     1      40.830  -9.609  11.431  1.00  0.00     0.039 A 
HETATM   31  C   UNL     1      41.261  -9.664  12.757  1.00  0.00     0.003 A 
HETATM   32  C   UNL     1      42.530  -9.203  13.097  1.00  0.00     0.002 A 
HETATM   33  C   UNL     1      43.379  -8.682  12.116  1.00  0.00     0.032 A 
BRANCH  29  34
HETATM   34  O   UNL     1      41.321  -9.006   9.118  1.00  0.00    -0.354 OA
HETATM   35  C   UNL     1      39.995  -9.447   8.834  1.00  0.00     0.210 C 
ENDBRANCH  29  34
ENDBRANCH  25  28
ENDBRANCH  21  24
ENDBRANCH   1  20
TORSDOF 7
ENDMDL
MODEL 2
REMARK VINA RESULT:      -8.7      6.688      9.232
REMARK  7 active torsions:
REMARK  status: ('A' for Active; 'I' for Inactive)
REMARK    1  A    between atoms: C_2  and  N_3 
REMARK    2  A    between atoms: N_3  and  N_4 
REMARK       I    between atoms: N_4  and  C_5 
REMARK    3  A    between atoms: C_5  and  C_6 
REMARK       I    between atoms: C_6  and  N_7 
REMARK    4  A    between atoms: N_7  and  C_8 
REMARK    5  A    between atoms: C_9  and  O_10 
REMARK    6  A    between atoms: C_18  and  C_19 
REMARK       I    between atoms: C_19  and  N_20 
REMARK    7  A    between atoms: N_20  and  C_21 
ROOT
HETATM    1  N   UNL     1      39.506 -14.348  -0.813  1.00  0.00    -0.302 N 
HETATM    2  H   UNL     1      40.181 -14.479  -1.576  1.00  0.00     0.186 HD
ENDROOT
BRANCH   1   3
HETATM    3  C   UNL     1      40.001 -14.556   0.466  1.00  0.00     0.027 C 
HETATM    4  C   UNL     1      40.722 -13.364   1.058  1.00  0.00     0.070 C 
HETATM    5  C   UNL     1      39.876 -15.728   1.122  1.00  0.00     0.100 C 
BRANCH   5   6
HETATM    6  C   UNL     1      40.523 -16.032   2.432  1.00  0.00     0.247 C 
HETATM    7  N   UNL     1      41.833 -16.442   2.268  1.00  0.00    -0.323 N 
HETATM    8  H   UNL     1      42.160 -16.518   1.317  1.00  0.00     0.169 HD
HETATM    9  O   UNL     1      39.914 -15.892   3.483  1.00  0.00    -0.268 OA
BRANCH   7  10
HETATM   10  C   UNL     1      42.759 -16.815   3.277  1.00  0.00     0.041 A 
HETATM   11  C   UNL     1      43.253 -18.146   3.304  1.00  0.00    -0.025 A 
HETATM   12  C   UNL     1      44.115 -18.547   4.354  1.00  0.00    -0.050 A 
HETATM   13  C   UNL     1      42.831 -19.161   2.257  1.00  0.00     0.041 C 
HETATM   14  C   UNL     1      44.663 -19.951   4.457  1.00  0.00     0.039 C 
HETATM   15  C   UNL     1      44.526 -17.614   5.315  1.00  0.00     0.008 A 
HETATM   16  C   UNL     1      43.871 -20.966   3.646  1.00  0.00     0.005 C 
HETATM   17  C   UNL     1      43.663 -20.441   2.235  1.00  0.00     0.005 C 
HETATM   18  C   UNL     1      44.068 -16.304   5.264  1.00  0.00     0.003 A 
HETATM   19  C   UNL     1      43.188 -15.913   4.257  1.00  0.00     0.030 A 
ENDBRANCH   7  10
ENDBRANCH   5   6
ENDBRANCH   1   3
BRANCH   1  20
HETATM   20  N   UNL     1      38.494 -13.429  -1.122  1.00  0.00    -0.262 N 
HETATM   21  C   UNL     1      38.521 -12.920  -2.415  1.00  0.00     0.328 C 
HETATM   22  O   UNL     1      39.211 -13.351  -3.329  1.00  0.00    -0.261 OA
HETATM   23  H   UNL     1      38.221 -12.779  -0.387  1.00  0.00     0.190 HD
BRANCH  21  24
HETATM   24  C   UNL     1      37.676 -11.654  -2.575  1.00  0.00     0.315 C 
HETATM   25  N   UNL     1      38.142 -10.453  -2.101  1.00  0.00    -0.316 N 
HETATM   26  H   UNL     1      37.414  -9.771  -1.908  1.00  0.00     0.169 HD
HETATM   27  O   UNL     1      36.554 -11.778  -3.063  1.00  0.00    -0.262 OA
BRANCH  25  28
HETATM   28  C   UNL     1      39.447 -10.017  -1.802  1.00  0.00     0.068 A 
HETATM   29  C   UNL     1      39.844 -10.058  -0.449  1.00  0.00     0.095 A 
HETATM   30  C   UNL     1      41.096  -9.569  -0.067  1.00  0.00     0.039 A 
HETATM   31  C   UNL     1      41.965  -9.054  -1.028  1.00  0.00     0.003 A 
HETATM   32  C   UNL     1      41.580  -9.015  -2.366  1.00  0.00     0.002 A 
HETATM   33  C   UNL     1      40.323  -9.489  -2.753  1.00  0.00     0.032 A 
BRANCH  29  34
HETATM   34  O   UNL     1      38.929 -10.570   0.443  1.00  0.00    -0.354 OA
HETATM   35  C   UNL     1      39.049 -10.055   1.767  1.00  0.00     0.210 C 
ENDBRANCH  29  34
ENDBRANCH  25  28
ENDBRANCH  21  24
ENDBRANCH   1  20
TORSDOF 7
ENDMDL
MODEL 3
REMARK VINA RESULT:      -8.7      2.013      2.726
REMARK  7 active torsions:
REMARK  status: ('A' for Active; 'I' for Inactive)
REMARK    1  A    between atoms: C_2  and  N_3 
REMARK    2  A    between atoms: N_3  and  N_4 
REMARK       I    between atoms: N_4  and  C_5 
REMARK    3  A    between atoms: C_5  and  C_6 
REMARK       I    between atoms: C_6  and  N_7 
REMARK    4  A    between atoms: N_7  and  C_8 
REMARK    5  A    between atoms: C_9  and  O_10 
REMARK    6  A    between atoms: C_18  and  C_19 
REMARK       I    between atoms: C_19  and  N_20 
REMARK    7  A    between atoms: N_20  and  C_21 
ROOT
HETATM    1  N   UNL     1      43.310 -10.018   7.605  1.00  0.00    -0.302 N 
HETATM    2  H   UNL     1      43.785  -9.112   7.510  1.00  0.00     0.186 HD
ENDROOT
BRANCH   1   3
HETATM    3  C   UNL     1      43.649 -10.974   6.660  1.00  0.00     0.027 C 
HETATM    4  C   UNL     1      44.868 -11.799   7.013  1.00  0.00     0.070 C 
HETATM    5  C   UNL     1      42.968 -11.143   5.507  1.00  0.00     0.100 C 
BRANCH   5   6
HETATM    6  C   UNL     1      43.391 -12.057   4.405  1.00  0.00     0.247 C 
HETATM    7  N   UNL     1      42.732 -13.270   4.471  1.00  0.00    -0.323 N 
HETATM    8  H   UNL     1      42.101 -13.393   5.248  1.00  0.00     0.169 HD
HETATM    9  O   UNL     1      44.210 -11.700   3.571  1.00  0.00    -0.268 OA
BRANCH   7  10
HETATM   10  C   UNL     1      42.872 -14.382   3.601  1.00  0.00     0.041 A 
HETATM   11  C   UNL     1      43.120 -15.666   4.154  1.00  0.00    -0.025 A 
HETATM   12  C   UNL     1      43.339 -16.766   3.289  1.00  0.00    -0.050 A 
HETATM   13  C   UNL     1      43.205 -15.870   5.656  1.00  0.00     0.041 C 
HETATM   14  C   UNL     1      43.628 -18.156   3.807  1.00  0.00     0.039 C 
HETATM   15  C   UNL     1      43.244 -16.594   1.902  1.00  0.00     0.008 A 
HETATM   16  C   UNL     1      44.106 -18.171   5.252  1.00  0.00     0.005 C 
HETATM   17  C   UNL     1      43.174 -17.329   6.107  1.00  0.00     0.005 C 
HETATM   18  C   UNL     1      42.967 -15.344   1.366  1.00  0.00     0.003 A 
HETATM   19  C   UNL     1      42.789 -14.249   2.210  1.00  0.00     0.030 A 
ENDBRANCH   7  10
ENDBRANCH   5   6
ENDBRANCH   1   3
BRANCH   1  20
HETATM   20  N   UNL     1      42.947 -10.316   8.926  1.00  0.00    -0.262 N 
HETATM   21  C   UNL     1      43.778  -9.788   9.909  1.00  0.00     0.328 C 
HETATM   22  O   UNL     1      44.648  -8.948   9.721  1.00  0.00    -0.261 OA
HETATM   23  H   UNL     1      42.573 -11.246   9.103  1.00  0.00     0.190 HD
BRANCH  21  24
HETATM   24  C   UNL     1      43.588 -10.459  11.271  1.00  0.00     0.315 C 
HETATM   25  N   UNL     1      43.022  -9.761  12.308  1.00  0.00    -0.316 N 
HETATM   26  H   UNL     1      43.263 -10.116  13.229  1.00  0.00     0.169 HD
HETATM   27  O   UNL     1      44.031 -11.599  11.409  1.00  0.00    -0.262 OA
BRANCH  25  28
HETATM   28  C   UNL     1      42.200  -8.617  12.317  1.00  0.00     0.068 A 
HETATM   29  C   UNL     1      40.824  -8.814  12.083  1.00  0.00     0.095 A 
HETATM   30  C   UNL     1      39.959  -7.719  12.000  1.00  0.00     0.039 A 
HETATM   31  C   UNL     1      40.456  -6.427  12.166  1.00  0.00     0.003 A 
HETATM   32  C   UNL     1      41.814  -6.227  12.402  1.00  0.00     0.002 A 
HETATM   33  C   UNL     1      42.687  -7.317  12.472  1.00  0.00     0.032 A 
BRANCH  29  34
HETATM   34  O   UNL     1      40.410 -10.116  11.918  1.00  0.00    -0.354 OA
HETATM   35  C   UNL     1      39.545 -10.593  12.947  1.00  0.00     0.210 C 
ENDBRANCH  29  34
ENDBRANCH  25  28
ENDBRANCH  21  24
ENDBRANCH   1  20
TORSDOF 7
ENDMDL
MODEL 4
REMARK VINA RESULT:      -8.6      1.522      2.098
REMARK  7 active torsions:
REMARK  status: ('A' for Active; 'I' for Inactive)
REMARK    1  A    between atoms: C_2  and  N_3 
REMARK    2  A    between atoms: N_3  and  N_4 
REMARK       I    between atoms: N_4  and  C_5 
REMARK    3  A    between atoms: C_5  and  C_6 
REMARK       I    between atoms: C_6  and  N_7 
REMARK    4  A    between atoms: N_7  and  C_8 
REMARK    5  A    between atoms: C_9  and  O_10 
REMARK    6  A    between atoms: C_18  and  C_19 
REMARK       I    between atoms: C_19  and  N_20 
REMARK    7  A    between atoms: N_20  and  C_21 
ROOT
HETATM    1  N   UNL     1      43.649 -11.685   7.929  1.00  0.00    -0.302 N 
HETATM    2  H   UNL     1      43.241 -12.050   8.799  1.00  0.00     0.186 HD
ENDROOT
BRANCH   1   3
HETATM    3  C   UNL     1      43.398 -12.434   6.790  1.00  0.00     0.027 C 
HETATM    4  C   UNL     1      44.036 -13.808   6.792  1.00  0.00     0.070 C 
HETATM    5  C   UNL     1      42.669 -11.975   5.753  1.00  0.00     0.100 C 
BRANCH   5   6
HETATM    6  C   UNL     1      42.504 -12.694   4.455  1.00  0.00     0.247 C 
HETATM    7  N   UNL     1      41.707 -13.814   4.594  1.00  0.00    -0.323 N 
HETATM    8  H   UNL     1      41.383 -14.017   5.527  1.00  0.00     0.169 HD
HETATM    9  O   UNL     1      43.023 -12.273   3.431  1.00  0.00    -0.268 OA
BRANCH   7  10
HETATM   10  C   UNL     1      41.329 -14.742   3.588  1.00  0.00     0.041 A 
HETATM   11  C   UNL     1      42.060 -15.951   3.453  1.00  0.00    -0.025 A 
HETATM   12  C   UNL     1      41.739 -16.844   2.401  1.00  0.00    -0.050 A 
HETATM   13  C   UNL     1      43.214 -16.279   4.383  1.00  0.00     0.041 C 
HETATM   14  C   UNL     1      42.487 -18.139   2.184  1.00  0.00     0.039 C 
HETATM   15  C   UNL     1      40.664 -16.561   1.547  1.00  0.00     0.008 A 
HETATM   16  C   UNL     1      43.848 -18.169   2.867  1.00  0.00     0.005 C 
HETATM   17  C   UNL     1      43.702 -17.725   4.313  1.00  0.00     0.005 C 
HETATM   18  C   UNL     1      39.930 -15.394   1.706  1.00  0.00     0.003 A 
HETATM   19  C   UNL     1      40.265 -14.492   2.714  1.00  0.00     0.030 A 
ENDBRANCH   7  10
ENDBRANCH   5   6
ENDBRANCH   1   3
BRANCH   1  20
HETATM   20  N   UNL     1      43.806 -10.292   7.934  1.00  0.00    -0.262 N 
HETATM   21  C   UNL     1      44.627  -9.785   8.934  1.00  0.00     0.328 C 
HETATM   22  O   UNL     1      45.357 -10.453   9.655  1.00  0.00    -0.261 OA
HETATM   23  H   UNL     1      42.987  -9.736   7.696  1.00  0.00     0.190 HD
BRANCH  21  24
HETATM   24  C   UNL     1      44.444  -8.281   9.148  1.00  0.00     0.315 C 
HETATM   25  N   UNL     1      43.468  -7.820   9.995  1.00  0.00    -0.316 N 
HETATM   26  H   UNL     1      43.169  -6.868   9.807  1.00  0.00     0.169 HD
HETATM   27  O   UNL     1      45.144  -7.523   8.477  1.00  0.00    -0.262 OA
BRANCH  25  28
HETATM   28  C   UNL     1      42.784  -8.451  11.053  1.00  0.00     0.068 A 
HETATM   29  C   UNL     1      41.468  -8.885  10.797  1.00  0.00     0.095 A 
HETATM   30  C   UNL     1      40.701  -9.449  11.821  1.00  0.00     0.039 A 
HETATM   31  C   UNL     1      41.245  -9.599  13.096  1.00  0.00     0.003 A 
HETATM   32  C   UNL     1      42.548  -9.176  13.352  1.00  0.00     0.002 A 
HETATM   33  C   UNL     1      43.315  -8.598  12.336  1.00  0.00     0.032 A 
BRANCH  29  34
HETATM   34  O   UNL     1      40.995  -8.694   9.519  1.00  0.00    -0.354 OA
HETATM   35  C   UNL     1      39.805  -9.419   9.218  1.00  0.00     0.210 C 
ENDBRANCH  29  34
ENDBRANCH  25  28
ENDBRANCH  21  24
ENDBRANCH   1  20
TORSDOF 7
ENDMDL
MODEL 5
REMARK VINA RESULT:      -8.5      1.534      1.790
REMARK  7 active torsions:
REMARK  status: ('A' for Active; 'I' for Inactive)
REMARK    1  A    between atoms: C_2  and  N_3 
REMARK    2  A    between atoms: N_3  and  N_4 
REMARK       I    between atoms: N_4  and  C_5 
REMARK    3  A    between atoms: C_5  and  C_6 
REMARK       I    between atoms: C_6  and  N_7 
REMARK    4  A    between atoms: N_7  and  C_8 
REMARK    5  A    between atoms: C_9  and  O_10 
REMARK    6  A    between atoms: C_18  and  C_19 
REMARK       I    between atoms: C_19  and  N_20 
REMARK    7  A    between atoms: N_20  and  C_21 
ROOT
HETATM    1  N   UNL     1      42.381 -10.688   7.456  1.00  0.00    -0.302 N 
HETATM    2  H   UNL     1      41.363 -10.691   7.594  1.00  0.00     0.186 HD
ENDROOT
BRANCH   1   3
HETATM    3  C   UNL     1      42.863 -11.604   6.533  1.00  0.00     0.027 C 
HETATM    4  C   UNL     1      44.063 -12.396   7.008  1.00  0.00     0.070 C 
HETATM    5  C   UNL     1      42.328 -11.762   5.305  1.00  0.00     0.100 C 
BRANCH   5   6
HETATM    6  C   UNL     1      42.912 -12.629   4.239  1.00  0.00     0.247 C 
HETATM    7  N   UNL     1      42.401 -13.912   4.291  1.00  0.00    -0.323 N 
HETATM    8  H   UNL     1      41.752 -14.102   5.040  1.00  0.00     0.169 HD
HETATM    9  O   UNL     1      43.722 -12.183   3.438  1.00  0.00    -0.268 OA
BRANCH   7  10
HETATM   10  C   UNL     1      42.716 -15.007   3.446  1.00  0.00     0.041 A 
HETATM   11  C   UNL     1      43.065 -16.253   4.030  1.00  0.00    -0.025 A 
HETATM   12  C   UNL     1      43.458 -17.328   3.195  1.00  0.00    -0.050 A 
HETATM   13  C   UNL     1      43.077 -16.438   5.537  1.00  0.00     0.041 C 
HETATM   14  C   UNL     1      43.862 -18.675   3.747  1.00  0.00     0.039 C 
HETATM   15  C   UNL     1      43.433 -17.175   1.802  1.00  0.00     0.008 A 
HETATM   16  C   UNL     1      44.245 -18.629   5.220  1.00  0.00     0.005 C 
HETATM   17  C   UNL     1      43.174 -17.889   6.003  1.00  0.00     0.005 C 
HETATM   18  C   UNL     1      43.057 -15.966   1.234  1.00  0.00     0.003 A 
HETATM   19  C   UNL     1      42.707 -14.892   2.051  1.00  0.00     0.030 A 
ENDBRANCH   7  10
ENDBRANCH   5   6
ENDBRANCH   1   3
BRANCH   1  20
HETATM   20  N   UNL     1      42.967  -9.439   7.701  1.00  0.00    -0.262 N 
HETATM   21  C   UNL     1      43.612  -9.310   8.927  1.00  0.00     0.328 C 
HETATM   22  O   UNL     1      43.870 -10.232   9.689  1.00  0.00    -0.261 OA
HETATM   23  H   UNL     1      42.463  -8.619   7.368  1.00  0.00     0.190 HD
BRANCH  21  24
HETATM   24  C   UNL     1      43.870  -7.852   9.313  1.00  0.00     0.315 C 
HETATM   25  N   UNL     1      43.199  -7.291  10.370  1.00  0.00    -0.316 N 
HETATM   26  H   UNL     1      43.136  -6.278  10.333  1.00  0.00     0.169 HD
HETATM   27  O   UNL     1      44.629  -7.201   8.596  1.00  0.00    -0.262 OA
BRANCH  25  28
HETATM   28  C   UNL     1      42.550  -7.879  11.474  1.00  0.00     0.068 A 
HETATM   29  C   UNL     1      41.171  -8.141  11.343  1.00  0.00     0.095 A 
HETATM   30  C   UNL     1      40.445  -8.651  12.424  1.00  0.00     0.039 A 
HETATM   31  C   UNL     1      41.090  -8.917  13.631  1.00  0.00     0.003 A 
HETATM   32  C   UNL     1      42.454  -8.664  13.764  1.00  0.00     0.002 A 
HETATM   33  C   UNL     1      43.182  -8.141  12.691  1.00  0.00     0.032 A 
BRANCH  29  34
HETATM   34  O   UNL     1      40.602  -7.842  10.126  1.00  0.00    -0.354 OA
HETATM   35  C   UNL     1      39.822  -8.897   9.567  1.00  0.00     0.210 C 
ENDBRANCH  29  34
ENDBRANCH  25  28
ENDBRANCH  21  24
ENDBRANCH   1  20
TORSDOF 7
ENDMDL
MODEL 6
REMARK VINA RESULT:      -8.5      2.503      3.382
REMARK  7 active torsions:
REMARK  status: ('A' for Active; 'I' for Inactive)
REMARK    1  A    between atoms: C_2  and  N_3 
REMARK    2  A    between atoms: N_3  and  N_4 
REMARK       I    between atoms: N_4  and  C_5 
REMARK    3  A    between atoms: C_5  and  C_6 
REMARK       I    between atoms: C_6  and  N_7 
REMARK    4  A    between atoms: N_7  and  C_8 
REMARK    5  A    between atoms: C_9  and  O_10 
REMARK    6  A    between atoms: C_18  and  C_19 
REMARK       I    between atoms: C_19  and  N_20 
REMARK    7  A    between atoms: N_20  and  C_21 
ROOT
HETATM    1  N   UNL     1      39.580 -11.383   7.011  1.00  0.00    -0.302 N 
HETATM    2  H   UNL     1      38.575 -11.590   6.967  1.00  0.00     0.186 HD
ENDROOT
BRANCH   1   3
HETATM    3  C   UNL     1      40.331 -11.834   5.935  1.00  0.00     0.027 C 
HETATM    4  C   UNL     1      39.688 -11.601   4.584  1.00  0.00     0.070 C 
HETATM    5  C   UNL     1      41.522 -12.451   6.075  1.00  0.00     0.100 C 
BRANCH   5   6
HETATM    6  C   UNL     1      42.283 -13.078   4.954  1.00  0.00     0.247 C 
HETATM    7  N   UNL     1      41.831 -14.356   4.688  1.00  0.00    -0.323 N 
HETATM    8  H   UNL     1      41.099 -14.704   5.288  1.00  0.00     0.169 HD
HETATM    9  O   UNL     1      43.169 -12.466   4.375  1.00  0.00    -0.268 OA
BRANCH   7  10
HETATM   10  C   UNL     1      42.307 -15.258   3.700  1.00  0.00     0.041 A 
HETATM   11  C   UNL     1      42.879 -16.492   4.108  1.00  0.00    -0.025 A 
HETATM   12  C   UNL     1      43.428 -17.360   3.133  1.00  0.00    -0.050 A 
HETATM   13  C   UNL     1      42.958 -16.873   5.575  1.00  0.00     0.041 C 
HETATM   14  C   UNL     1      44.069 -18.680   3.496  1.00  0.00     0.039 C 
HETATM   15  C   UNL     1      43.343 -17.028   1.774  1.00  0.00     0.008 A 
HETATM   16  C   UNL     1      44.476 -18.767   4.960  1.00  0.00     0.005 C 
HETATM   17  C   UNL     1      43.314 -18.334   5.839  1.00  0.00     0.005 C 
HETATM   18  C   UNL     1      42.752 -15.836   1.378  1.00  0.00     0.003 A 
HETATM   19  C   UNL     1      42.245 -14.958   2.334  1.00  0.00     0.030 A 
ENDBRANCH   7  10
ENDBRANCH   5   6
ENDBRANCH   1   3
BRANCH   1  20
HETATM   20  N   UNL     1      39.875 -10.225   7.742  1.00  0.00    -0.262 N 
HETATM   21  C   UNL     1      39.121 -10.036   8.895  1.00  0.00     0.328 C 
HETATM   22  O   UNL     1      38.391 -10.875   9.406  1.00  0.00    -0.261 OA
HETATM   23  H   UNL     1      40.101  -9.388   7.209  1.00  0.00     0.190 HD
BRANCH  21  24
HETATM   24  C   UNL     1      39.188  -8.601   9.421  1.00  0.00     0.315 C 
HETATM   25  N   UNL     1      40.083  -8.271  10.407  1.00  0.00    -0.316 N 
HETATM   26  H   UNL     1      39.827  -7.448  10.944  1.00  0.00     0.169 HD
HETATM   27  O   UNL     1      38.365  -7.797   8.984  1.00  0.00    -0.262 OA
BRANCH  25  28
HETATM   28  C   UNL     1      41.273  -8.897  10.827  1.00  0.00     0.068 A 
HETATM   29  C   UNL     1      41.253  -9.538  12.083  1.00  0.00     0.095 A 
HETATM   30  C   UNL     1      42.417 -10.113  12.599  1.00  0.00     0.039 A 
HETATM   31  C   UNL     1      43.601 -10.069  11.863  1.00  0.00     0.003 A 
HETATM   32  C   UNL     1      43.625  -9.442  10.619  1.00  0.00     0.002 A 
HETATM   33  C   UNL     1      42.467  -8.851  10.104  1.00  0.00     0.032 A 
BRANCH  29  34
HETATM   34  O   UNL     1      40.052  -9.531  12.756  1.00  0.00    -0.354 OA
HETATM   35  C   UNL     1      39.471 -10.821  12.934  1.00  0.00     0.210 C 
ENDBRANCH  29  34
ENDBRANCH  25  28
ENDBRANCH  21  24
ENDBRANCH   1  20
TORSDOF 7
ENDMDL
MODEL 7
REMARK VINA RESULT:      -8.4      2.020      3.636
REMARK  7 active torsions:
REMARK  status: ('A' for Active; 'I' for Inactive)
REMARK    1  A    between atoms: C_2  and  N_3 
REMARK    2  A    between atoms: N_3  and  N_4 
REMARK       I    between atoms: N_4  and  C_5 
REMARK    3  A    between atoms: C_5  and  C_6 
REMARK       I    between atoms: C_6  and  N_7 
REMARK    4  A    between atoms: N_7  and  C_8 
REMARK    5  A    between atoms: C_9  and  O_10 
REMARK    6  A    between atoms: C_18  and  C_19 
REMARK       I    between atoms: C_19  and  N_20 
REMARK    7  A    between atoms: N_20  and  C_21 
ROOT
HETATM    1  N   UNL     1      40.836  -9.812   5.267  1.00  0.00    -0.302 N 
HETATM    2  H   UNL     1      40.288  -9.347   4.533  1.00  0.00     0.186 HD
ENDROOT
BRANCH   1   3
HETATM    3  C   UNL     1      40.989 -11.182   5.122  1.00  0.00     0.027 C 
HETATM    4  C   UNL     1      40.963 -11.664   3.687  1.00  0.00     0.070 C 
HETATM    5  C   UNL     1      41.126 -12.023   6.167  1.00  0.00     0.100 C 
BRANCH   5   6
HETATM    6  C   UNL     1      41.145 -13.512   6.054  1.00  0.00     0.247 C 
HETATM    7  N   UNL     1      42.436 -13.999   5.982  1.00  0.00    -0.323 N 
HETATM    8  H   UNL     1      43.172 -13.310   5.976  1.00  0.00     0.169 HD
HETATM    9  O   UNL     1      40.105 -14.156   6.053  1.00  0.00    -0.268 OA
BRANCH   7  10
HETATM   10  C   UNL     1      42.848 -15.352   5.867  1.00  0.00     0.041 A 
HETATM   11  C   UNL     1      43.046 -15.907   4.576  1.00  0.00    -0.025 A 
HETATM   12  C   UNL     1      43.380 -17.278   4.452  1.00  0.00    -0.050 A 
HETATM   13  C   UNL     1      42.855 -15.070   3.324  1.00  0.00     0.041 C 
HETATM   14  C   UNL     1      43.587 -17.941   3.109  1.00  0.00     0.039 C 
HETATM   15  C   UNL     1      43.578 -18.056   5.601  1.00  0.00     0.008 A 
HETATM   16  C   UNL     1      42.971 -17.163   1.955  1.00  0.00     0.005 C 
HETATM   17  C   UNL     1      43.389 -15.705   2.042  1.00  0.00     0.005 C 
HETATM   18  C   UNL     1      43.418 -17.500   6.862  1.00  0.00     0.003 A 
HETATM   19  C   UNL     1      43.050 -16.161   6.991  1.00  0.00     0.030 A 
ENDBRANCH   7  10
ENDBRANCH   5   6
ENDBRANCH   1   3
BRANCH   1  20
HETATM   20  N   UNL     1      41.790  -8.974   5.860  1.00  0.00    -0.262 N 
HETATM   21  C   UNL     1      41.382  -8.327   7.021  1.00  0.00     0.328 C 
HETATM   22  O   UNL     1      40.364  -8.583   7.651  1.00  0.00    -0.261 OA
HETATM   23  H   UNL     1      42.388  -8.440   5.232  1.00  0.00     0.190 HD
BRANCH  21  24
HETATM   24  C   UNL     1      42.280  -7.145   7.391  1.00  0.00     0.315 C 
HETATM   25  N   UNL     1      42.922  -7.123   8.604  1.00  0.00    -0.316 N 
HETATM   26  H   UNL     1      43.178  -6.193   8.923  1.00  0.00     0.169 HD
HETATM   27  O   UNL     1      42.333  -6.203   6.602  1.00  0.00    -0.262 OA
BRANCH  25  28
HETATM   28  C   UNL     1      43.251  -8.161   9.498  1.00  0.00     0.068 A 
HETATM   29  C   UNL     1      44.531  -8.738   9.368  1.00  0.00     0.095 A 
HETATM   30  C   UNL     1      44.899  -9.823  10.169  1.00  0.00     0.039 A 
HETATM   31  C   UNL     1      44.004 -10.327  11.112  1.00  0.00     0.003 A 
HETATM   32  C   UNL     1      42.740  -9.757  11.248  1.00  0.00     0.002 A 
HETATM   33  C   UNL     1      42.361  -8.680  10.440  1.00  0.00     0.032 A 
BRANCH  29  34
HETATM   34  O   UNL     1      45.355  -8.195   8.409  1.00  0.00    -0.354 OA
HETATM   35  C   UNL     1      46.298  -9.112   7.857  1.00  0.00     0.210 C 
ENDBRANCH  29  34
ENDBRANCH  25  28
ENDBRANCH  21  24
ENDBRANCH   1  20
TORSDOF 7
ENDMDL
MODEL 8
REMARK VINA RESULT:      -8.3      2.153     10.382
REMARK  7 active torsions:
REMARK  status: ('A' for Active; 'I' for Inactive)
REMARK    1  A    between atoms: C_2  and  N_3 
REMARK    2  A    between atoms: N_3  and  N_4 
REMARK       I    between atoms: N_4  and  C_5 
REMARK    3  A    between atoms: C_5  and  C_6 
REMARK       I    between atoms: C_6  and  N_7 
REMARK    4  A    between atoms: N_7  and  C_8 
REMARK    5  A    between atoms: C_9  and  O_10 
REMARK    6  A    between atoms: C_18  and  C_19 
REMARK       I    between atoms: C_19  and  N_20 
REMARK    7  A    between atoms: N_20  and  C_21 
ROOT
HETATM    1  N   UNL     1      43.553 -12.024   5.690  1.00  0.00    -0.302 N 
HETATM    2  H   UNL     1      43.564 -11.700   4.715  1.00  0.00     0.186 HD
ENDROOT
BRANCH   1   3
HETATM    3  C   UNL     1      43.776 -11.046   6.648  1.00  0.00     0.027 C 
HETATM    4  C   UNL     1      45.124 -11.136   7.331  1.00  0.00     0.070 C 
HETATM    5  C   UNL     1      42.862 -10.106   6.966  1.00  0.00     0.100 C 
BRANCH   5   6
HETATM    6  C   UNL     1      43.010  -9.135   8.091  1.00  0.00     0.247 C 
HETATM    7  N   UNL     1      42.429  -9.611   9.250  1.00  0.00    -0.323 N 
HETATM    8  H   UNL     1      41.963 -10.502   9.182  1.00  0.00     0.169 HD
HETATM    9  O   UNL     1      43.604  -8.078   7.935  1.00  0.00    -0.268 OA
BRANCH   7  10
HETATM   10  C   UNL     1      42.369  -8.972  10.516  1.00  0.00     0.041 A 
HETATM   11  C   UNL     1      41.189  -8.272  10.882  1.00  0.00    -0.025 A 
HETATM   12  C   UNL     1      41.151  -7.565  12.110  1.00  0.00    -0.050 A 
HETATM   13  C   UNL     1      39.987  -8.223   9.957  1.00  0.00     0.041 C 
HETATM   14  C   UNL     1      39.937  -6.783  12.555  1.00  0.00     0.039 C 
HETATM   15  C   UNL     1      42.248  -7.618  12.980  1.00  0.00     0.008 A 
HETATM   16  C   UNL     1      38.988  -6.448  11.413  1.00  0.00     0.005 C 
HETATM   17  C   UNL     1      38.704  -7.700  10.601  1.00  0.00     0.005 C 
HETATM   18  C   UNL     1      43.386  -8.333  12.634  1.00  0.00     0.003 A 
HETATM   19  C   UNL     1      43.446  -8.998  11.410  1.00  0.00     0.030 A 
ENDBRANCH   7  10
ENDBRANCH   5   6
ENDBRANCH   1   3
BRANCH   1  20
HETATM   20  N   UNL     1      42.740 -13.147   5.890  1.00  0.00    -0.262 N 
HETATM   21  C   UNL     1      41.553 -13.164   5.165  1.00  0.00     0.328 C 
HETATM   22  O   UNL     1      41.275 -12.402   4.249  1.00  0.00    -0.261 OA
HETATM   23  H   UNL     1      42.696 -13.522   6.836  1.00  0.00     0.190 HD
BRANCH  21  24
HETATM   24  C   UNL     1      40.539 -14.173   5.708  1.00  0.00     0.315 C 
HETATM   25  N   UNL     1      40.485 -15.441   5.188  1.00  0.00    -0.316 N 
HETATM   26  H   UNL     1      39.591 -15.907   5.319  1.00  0.00     0.169 HD
HETATM   27  O   UNL     1      39.741 -13.775   6.556  1.00  0.00    -0.262 OA
BRANCH  25  28
HETATM   28  C   UNL     1      41.438 -16.192   4.472  1.00  0.00     0.068 A 
HETATM   29  C   UNL     1      41.191 -16.403   3.101  1.00  0.00     0.095 A 
HETATM   30  C   UNL     1      42.052 -17.204   2.345  1.00  0.00     0.039 A 
HETATM   31  C   UNL     1      43.170 -17.782   2.944  1.00  0.00     0.003 A 
HETATM   32  C   UNL     1      43.422 -17.572   4.298  1.00  0.00     0.002 A 
HETATM   33  C   UNL     1      42.556 -16.785   5.064  1.00  0.00     0.032 A 
BRANCH  29  34
HETATM   34  O   UNL     1      40.062 -15.810   2.582  1.00  0.00    -0.354 OA
HETATM   35  C   UNL     1      40.201 -15.360   1.236  1.00  0.00     0.210 C 
ENDBRANCH  29  34
ENDBRANCH  25  28
ENDBRANCH  21  24
ENDBRANCH   1  20
TORSDOF 7
ENDMDL
MODEL 9
REMARK VINA RESULT:      -8.3      2.126     10.507
REMARK  7 active torsions:
REMARK  status: ('A' for Active; 'I' for Inactive)
REMARK    1  A    between atoms: C_2  and  N_3 
REMARK    2  A    between atoms: N_3  and  N_4 
REMARK       I    between atoms: N_4  and  C_5 
REMARK    3  A    between atoms: C_5  and  C_6 
REMARK       I    between atoms: C_6  and  N_7 
REMARK    4  A    between atoms: N_7  and  C_8 
REMARK    5  A    between atoms: C_9  and  O_10 
REMARK    6  A    between atoms: C_18  and  C_19 
REMARK       I    between atoms: C_19  and  N_20 
REMARK    7  A    between atoms: N_20  and  C_21 
ROOT
HETATM    1  N   UNL     1      43.135 -11.315   6.314  1.00  0.00    -0.302 N 
HETATM    2  H   UNL     1      42.957 -10.890   5.395  1.00  0.00     0.186 HD
ENDROOT
BRANCH   1   3
HETATM    3  C   UNL     1      43.569 -10.445   7.301  1.00  0.00     0.027 C 
HETATM    4  C   UNL     1      44.260 -11.119   8.468  1.00  0.00     0.070 C 
HETATM    5  C   UNL     1      43.375  -9.111   7.246  1.00  0.00     0.100 C 
BRANCH   5   6
HETATM    6  C   UNL     1      43.696  -8.166   8.356  1.00  0.00     0.247 C 
HETATM    7  N   UNL     1      42.605  -7.964   9.180  1.00  0.00    -0.323 N 
HETATM    8  H   UNL     1      41.753  -8.431   8.914  1.00  0.00     0.169 HD
HETATM    9  O   UNL     1      44.815  -7.687   8.471  1.00  0.00    -0.268 OA
BRANCH   7  10
HETATM   10  C   UNL     1      42.529  -7.136  10.331  1.00  0.00     0.041 A 
HETATM   11  C   UNL     1      42.436  -7.740  11.612  1.00  0.00    -0.025 A 
HETATM   12  C   UNL     1      42.280  -6.921  12.757  1.00  0.00    -0.050 A 
HETATM   13  C   UNL     1      42.448  -9.249  11.771  1.00  0.00     0.041 C 
HETATM   14  C   UNL     1      42.154  -7.495  14.150  1.00  0.00     0.039 C 
HETATM   15  C   UNL     1      42.286  -5.526  12.626  1.00  0.00     0.008 A 
HETATM   16  C   UNL     1      41.755  -8.964  14.160  1.00  0.00     0.005 C 
HETATM   17  C   UNL     1      42.645  -9.741  13.203  1.00  0.00     0.005 C 
HETATM   18  C   UNL     1      42.412  -4.939  11.374  1.00  0.00     0.003 A 
HETATM   19  C   UNL     1      42.527  -5.739  10.238  1.00  0.00     0.030 A 
ENDBRANCH   7  10
ENDBRANCH   5   6
ENDBRANCH   1   3
BRANCH   1  20
HETATM   20  N   UNL     1      42.351 -12.451   6.558  1.00  0.00    -0.262 N 
HETATM   21  C   UNL     1      41.569 -12.880   5.492  1.00  0.00     0.328 C 
HETATM   22  O   UNL     1      41.665 -12.479   4.340  1.00  0.00    -0.261 OA
HETATM   23  H   UNL     1      41.936 -12.534   7.484  1.00  0.00     0.190 HD
BRANCH  21  24
HETATM   24  C   UNL     1      40.457 -13.841   5.918  1.00  0.00     0.315 C 
HETATM   25  N   UNL     1      40.374 -15.090   5.355  1.00  0.00    -0.316 N 
HETATM   26  H   UNL     1      39.448 -15.506   5.398  1.00  0.00     0.169 HD
HETATM   27  O   UNL     1      39.616 -13.420   6.711  1.00  0.00    -0.262 OA
BRANCH  25  28
HETATM   28  C   UNL     1      41.340 -15.876   4.696  1.00  0.00     0.068 A 
HETATM   29  C   UNL     1      41.171 -16.070   3.309  1.00  0.00     0.095 A 
HETATM   30  C   UNL     1      42.045 -16.902   2.603  1.00  0.00     0.039 A 
HETATM   31  C   UNL     1      43.098 -17.529   3.268  1.00  0.00     0.003 A 
HETATM   32  C   UNL     1      43.272 -17.336   4.637  1.00  0.00     0.002 A 
HETATM   33  C   UNL     1      42.392 -16.518   5.352  1.00  0.00     0.032 A 
BRANCH  29  34
HETATM   34  O   UNL     1      40.103 -15.428   2.725  1.00  0.00    -0.354 OA
HETATM   35  C   UNL     1      39.953 -15.688   1.331  1.00  0.00     0.210 C 
ENDBRANCH  29  34
ENDBRANCH  25  28
ENDBRANCH  21  24
ENDBRANCH   1  20
TORSDOF 7
ENDMDL
MODEL 10
REMARK VINA RESULT:      -8.2      2.023     10.432
REMARK  7 active torsions:
REMARK  status: ('A' for Active; 'I' for Inactive)
REMARK    1  A    between atoms: C_2  and  N_3 
REMARK    2  A    between atoms: N_3  and  N_4 
REMARK       I    between atoms: N_4  and  C_5 
REMARK    3  A    between atoms: C_5  and  C_6 
REMARK       I    between atoms: C_6  and  N_7 
REMARK    4  A    between atoms: N_7  and  C_8 
REMARK    5  A    between atoms: C_9  and  O_10 
REMARK    6  A    between atoms: C_18  and  C_19 
REMARK       I    between atoms: C_19  and  N_20 
REMARK    7  A    between atoms: N_20  and  C_21 
ROOT
HETATM    1  N   UNL     1      43.382 -12.220   5.899  1.00  0.00    -0.302 N 
HETATM    2  H   UNL     1      43.493 -11.882   4.936  1.00  0.00     0.186 HD
ENDROOT
BRANCH   1   3
HETATM    3  C   UNL     1      43.422 -11.244   6.884  1.00  0.00     0.027 C 
HETATM    4  C   UNL     1      42.744  -9.945   6.503  1.00  0.00     0.070 C 
HETATM    5  C   UNL     1      44.033 -11.422   8.073  1.00  0.00     0.100 C 
BRANCH   5   6
HETATM    6  C   UNL     1      44.222 -10.347   9.092  1.00  0.00     0.247 C 
HETATM    7  N   UNL     1      43.100 -10.196   9.883  1.00  0.00    -0.323 N 
HETATM    8  H   UNL     1      42.311 -10.781   9.654  1.00  0.00     0.169 HD
HETATM    9  O   UNL     1      45.277  -9.734   9.171  1.00  0.00    -0.268 OA
BRANCH   7  10
HETATM   10  C   UNL     1      42.907  -9.279  10.949  1.00  0.00     0.041 A 
HETATM   11  C   UNL     1      42.624  -7.921  10.651  1.00  0.00    -0.025 A 
HETATM   12  C   UNL     1      42.508  -6.985  11.708  1.00  0.00    -0.050 A 
HETATM   13  C   UNL     1      42.495  -7.443   9.216  1.00  0.00     0.041 C 
HETATM   14  C   UNL     1      42.228  -5.520  11.465  1.00  0.00     0.039 C 
HETATM   15  C   UNL     1      42.607  -7.418  13.038  1.00  0.00     0.008 A 
HETATM   16  C   UNL     1      42.537  -5.079  10.040  1.00  0.00     0.005 C 
HETATM   17  C   UNL     1      41.899  -6.046   9.057  1.00  0.00     0.005 C 
HETATM   18  C   UNL     1      42.848  -8.754  13.326  1.00  0.00     0.003 A 
HETATM   19  C   UNL     1      43.002  -9.673  12.289  1.00  0.00     0.030 A 
ENDBRANCH   7  10
ENDBRANCH   5   6
ENDBRANCH   1   3
BRANCH   1  20
HETATM   20  N   UNL     1      42.624 -13.395   5.990  1.00  0.00    -0.262 N 
HETATM   21  C   UNL     1      41.424 -13.389   5.287  1.00  0.00     0.328 C 
HETATM   22  O   UNL     1      41.092 -12.546   4.464  1.00  0.00    -0.261 OA
HETATM   23  H   UNL     1      42.617 -13.872   6.890  1.00  0.00     0.190 HD
BRANCH  21  24
HETATM   24  C   UNL     1      40.467 -14.496   5.734  1.00  0.00     0.315 C 
HETATM   25  N   UNL     1      40.457 -15.702   5.079  1.00  0.00    -0.316 N 
HETATM   26  H   UNL     1      39.588 -16.220   5.174  1.00  0.00     0.169 HD
HETATM   27  O   UNL     1      39.671 -14.229   6.634  1.00  0.00    -0.262 OA
BRANCH  25  28
HETATM   28  C   UNL     1      41.426 -16.326   4.269  1.00  0.00     0.068 A 
HETATM   29  C   UNL     1      42.470 -17.008   4.928  1.00  0.00     0.095 A 
HETATM   30  C   UNL     1      43.509 -17.584   4.192  1.00  0.00     0.039 A 
HETATM   31  C   UNL     1      43.505 -17.500   2.800  1.00  0.00     0.003 A 
HETATM   32  C   UNL     1      42.474 -16.831   2.144  1.00  0.00     0.002 A 
HETATM   33  C   UNL     1      41.440 -16.240   2.876  1.00  0.00     0.032 A 
BRANCH  29  34
HETATM   34  O   UNL     1      42.411 -17.040   6.302  1.00  0.00    -0.354 OA
HETATM   35  C   UNL     1      43.642 -16.727   6.950  1.00  0.00     0.210 C 
ENDBRANCH  29  34
ENDBRANCH  25  28
ENDBRANCH  21  24
ENDBRANCH   1  20
TORSDOF 7
ENDMDL
