MODEL 1
REMARK VINA RESULT:      -7.1      0.000      0.000
REMARK  9 active torsions:
REMARK  status: ('A' for Active; 'I' for Inactive)
REMARK    1  A    between atoms: C_2  and  O_3 
REMARK    2  A    between atoms: O_3  and  C_4 
REMARK    3  A    between atoms: C_4  and  C_5 
REMARK    4  A    between atoms: C_11  and  O_12 
REMARK    5  A    between atoms: C_13  and  C_14 
REMARK    6  A    between atoms: C_14  and  N_15 
REMARK    7  A    between atoms: N_19  and  C_20 
REMARK    8  A    between atoms: C_26  and  C_27 
REMARK    9  A    between atoms: C_27  and  N_28 
ROOT
HETATM    1  C   UNL     1      41.093 -11.246   0.748  1.00  0.00     0.077 A 
HETATM    2  C   UNL     1      40.302 -11.977  -0.231  1.00  0.00     0.020 A 
HETATM    3  C   UNL     1      40.446 -13.335   0.092  1.00  0.00     0.053 A 
HETATM    4  C   UNL     1      39.876 -14.358  -0.690  1.00  0.00     0.053 A 
HETATM    5  C   UNL     1      39.145 -14.008  -1.816  1.00  0.00     0.047 A 
HETATM    6 BR   UNL     1      38.408 -15.389  -2.885  1.00  0.00    -0.048 Br
HETATM    7  C   UNL     1      38.969 -12.671  -2.155  1.00  0.00     0.092 A 
HETATM    8  C   UNL     1      39.491 -11.611  -1.369  1.00  0.00     0.016 A 
HETATM    9  N   UNL     1      41.283 -13.441   1.197  1.00  0.00    -0.312 N 
HETATM   10  C   UNL     1      41.635 -12.176   1.645  1.00  0.00     0.060 A 
ENDROOT
BRANCH  10  11
HETATM   11  C   UNL     1      42.471 -11.963   2.877  1.00  0.00     0.293 C 
BRANCH  11  12
HETATM   12  N   UNL     1      41.669 -11.618   4.103  1.00  0.00    -0.066 N 
HETATM   13  H   UNL     1      41.749 -10.602   4.247  1.00  0.00     0.280 HD
HETATM   14  C   UNL     1      42.099 -12.297   5.387  1.00  0.00     0.235 C 
HETATM   15  C   UNL     1      40.955 -13.224   5.735  1.00  0.00     0.029 C 
HETATM   16  C   UNL     1      39.740 -12.451   5.268  1.00  0.00     0.029 C 
HETATM   17  C   UNL     1      40.181 -11.903   3.926  1.00  0.00     0.235 C 
ENDBRANCH  11  12
ENDBRANCH  10  11
BRANCH   1  18
HETATM   18  C   UNL     1      41.323  -9.796   0.783  1.00  0.00     0.296 C 
HETATM   19  O   UNL     1      40.746  -9.058   1.567  1.00  0.00    -0.259 OA
BRANCH  18  20
HETATM   20  O   UNL     1      42.269  -9.387  -0.106  1.00  0.00    -0.318 OA
BRANCH  20  21
HETATM   21  C   UNL     1      42.082  -8.073  -0.667  1.00  0.00     0.174 C 
HETATM   22  C   UNL     1      43.226  -7.741  -1.604  1.00  0.00     0.034 C 
ENDBRANCH  20  21
ENDBRANCH  18  20
ENDBRANCH   1  18
BRANCH   9  23
HETATM   23  C   UNL     1      41.699 -14.669   1.777  1.00  0.00     0.040 A 
HETATM   24  C   UNL     1      42.916 -15.242   1.390  1.00  0.00     0.030 A 
HETATM   25  C   UNL     1      43.326 -16.443   1.969  1.00  0.00     0.002 A 
HETATM   26  C   UNL     1      42.524 -17.067   2.923  1.00  0.00     0.000 A 
HETATM   27  C   UNL     1      41.305 -16.501   3.296  1.00  0.00     0.002 A 
HETATM   28  C   UNL     1      40.883 -15.302   2.721  1.00  0.00     0.030 A 
ENDBRANCH   9  23
BRANCH   8  29
HETATM   29  C   UNL     1      39.276 -10.167  -1.805  1.00  0.00     0.276 C 
BRANCH  29  30
HETATM   30  N   UNL     1      39.503  -9.839  -3.264  1.00  0.00    -0.075 N 
HETATM   31  H   UNL     1      38.999 -10.587  -3.774  1.00  0.00     0.279 HD
HETATM   32  C   UNL     1      38.891  -8.543  -3.689  1.00  0.00     0.269 C 
HETATM   33  C   UNL     1      40.945  -9.942  -3.655  1.00  0.00     0.269 C 
ENDBRANCH  29  30
ENDBRANCH   8  29
BRANCH   7  34
HETATM   34  O   UNL     1      38.273 -12.353  -3.303  1.00  0.00    -0.359 OA
HETATM   35  H   UNL     1      38.820 -12.659  -4.062  1.00  0.00     0.218 HD
ENDBRANCH   7  34
TORSDOF 9
ENDMDL
MODEL 2
REMARK VINA RESULT:      -6.9      3.002      5.282
REMARK  9 active torsions:
REMARK  status: ('A' for Active; 'I' for Inactive)
REMARK    1  A    between atoms: C_2  and  O_3 
REMARK    2  A    between atoms: O_3  and  C_4 
REMARK    3  A    between atoms: C_4  and  C_5 
REMARK    4  A    between atoms: C_11  and  O_12 
REMARK    5  A    between atoms: C_13  and  C_14 
REMARK    6  A    between atoms: C_14  and  N_15 
REMARK    7  A    between atoms: N_19  and  C_20 
REMARK    8  A    between atoms: C_26  and  C_27 
REMARK    9  A    between atoms: C_27  and  N_28 
ROOT
HETATM    1  C   UNL     1      40.871 -13.216   1.976  1.00  0.00     0.077 A 
HETATM    2  C   UNL     1      40.197 -12.019   2.455  1.00  0.00     0.020 A 
HETATM    3  C   UNL     1      40.931 -11.582   3.568  1.00  0.00     0.053 A 
HETATM    4  C   UNL     1      40.529 -10.479   4.347  1.00  0.00     0.053 A 
HETATM    5  C   UNL     1      39.370  -9.802   3.996  1.00  0.00     0.047 A 
HETATM    6 BR   UNL     1      38.815  -8.339   5.066  1.00  0.00    -0.048 Br
HETATM    7  C   UNL     1      38.629 -10.199   2.888  1.00  0.00     0.092 A 
HETATM    8  C   UNL     1      39.024 -11.277   2.055  1.00  0.00     0.016 A 
HETATM    9  N   UNL     1      41.989 -12.460   3.775  1.00  0.00    -0.312 N 
HETATM   10  C   UNL     1      42.003 -13.423   2.777  1.00  0.00     0.060 A 
ENDROOT
BRANCH  10  11
HETATM   11  C   UNL     1      43.081 -14.468   2.683  1.00  0.00     0.293 C 
BRANCH  11  12
HETATM   12  N   UNL     1      42.580 -15.875   2.871  1.00  0.00    -0.066 N 
HETATM   13  H   UNL     1      41.580 -15.881   2.628  1.00  0.00     0.280 HD
HETATM   14  C   UNL     1      42.713 -16.444   4.269  1.00  0.00     0.235 C 
HETATM   15  C   UNL     1      43.734 -17.553   4.138  1.00  0.00     0.029 C 
HETATM   16  C   UNL     1      43.451 -18.111   2.761  1.00  0.00     0.029 C 
HETATM   17  C   UNL     1      43.249 -16.864   1.923  1.00  0.00     0.235 C 
ENDBRANCH  11  12
ENDBRANCH  10  11
BRANCH   1  18
HETATM   18  C   UNL     1      40.439 -14.085   0.874  1.00  0.00     0.296 C 
HETATM   19  O   UNL     1      39.907 -15.169   1.061  1.00  0.00    -0.259 OA
BRANCH  18  20
HETATM   20  O   UNL     1      40.651 -13.532  -0.352  1.00  0.00    -0.318 OA
BRANCH  20  21
HETATM   21  C   UNL     1      39.848 -14.054  -1.428  1.00  0.00     0.174 C 
HETATM   22  C   UNL     1      40.358 -13.535  -2.757  1.00  0.00     0.034 C 
ENDBRANCH  20  21
ENDBRANCH  18  20
ENDBRANCH   1  18
BRANCH   9  23
HETATM   23  C   UNL     1      42.917 -12.364   4.845  1.00  0.00     0.040 A 
HETATM   24  C   UNL     1      44.019 -11.508   4.734  1.00  0.00     0.030 A 
HETATM   25  C   UNL     1      44.923 -11.408   5.791  1.00  0.00     0.002 A 
HETATM   26  C   UNL     1      44.729 -12.162   6.948  1.00  0.00     0.000 A 
HETATM   27  C   UNL     1      43.637 -13.025   7.050  1.00  0.00     0.002 A 
HETATM   28  C   UNL     1      42.729 -13.135   5.998  1.00  0.00     0.030 A 
ENDBRANCH   9  23
BRANCH   8  29
HETATM   29  C   UNL     1      38.158 -11.673   0.865  1.00  0.00     0.276 C 
BRANCH  29  30
HETATM   30  N   UNL     1      38.121 -10.725  -0.314  1.00  0.00    -0.075 N 
HETATM   31  H   UNL     1      37.605  -9.899   0.039  1.00  0.00     0.279 HD
HETATM   32  C   UNL     1      39.471 -10.239  -0.734  1.00  0.00     0.269 C 
HETATM   33  C   UNL     1      37.331 -11.274  -1.462  1.00  0.00     0.269 C 
ENDBRANCH  29  30
ENDBRANCH   8  29
BRANCH   7  34
HETATM   34  O   UNL     1      37.459  -9.533   2.587  1.00  0.00    -0.359 OA
HETATM   35  H   UNL     1      37.155  -9.873   1.714  1.00  0.00     0.218 HD
ENDBRANCH   7  34
TORSDOF 9
ENDMDL
MODEL 3
REMARK VINA RESULT:      -6.8      1.879      3.128
REMARK  9 active torsions:
REMARK  status: ('A' for Active; 'I' for Inactive)
REMARK    1  A    between atoms: C_2  and  O_3 
REMARK    2  A    between atoms: O_3  and  C_4 
REMARK    3  A    between atoms: C_4  and  C_5 
REMARK    4  A    between atoms: C_11  and  O_12 
REMARK    5  A    between atoms: C_13  and  C_14 
REMARK    6  A    between atoms: C_14  and  N_15 
REMARK    7  A    between atoms: N_19  and  C_20 
REMARK    8  A    between atoms: C_26  and  C_27 
REMARK    9  A    between atoms: C_27  and  N_28 
ROOT
HETATM    1  C   UNL     1      39.806 -11.668   2.347  1.00  0.00     0.077 A 
HETATM    2  C   UNL     1      39.317 -12.111   1.050  1.00  0.00     0.020 A 
HETATM    3  C   UNL     1      39.911 -13.362   0.821  1.00  0.00     0.053 A 
HETATM    4  C   UNL     1      39.729 -14.071  -0.382  1.00  0.00     0.053 A 
HETATM    5  C   UNL     1      38.932 -13.514  -1.371  1.00  0.00     0.047 A 
HETATM    6 BR   UNL     1      38.716 -14.456  -3.001  1.00  0.00    -0.048 Br
HETATM    7  C   UNL     1      38.315 -12.284  -1.169  1.00  0.00     0.092 A 
HETATM    8  C   UNL     1      38.440 -11.560   0.045  1.00  0.00     0.016 A 
HETATM    9  N   UNL     1      40.727 -13.671   1.904  1.00  0.00    -0.312 N 
HETATM   10  C   UNL     1      40.624 -12.679   2.869  1.00  0.00     0.060 A 
ENDROOT
BRANCH  10  11
HETATM   11  C   UNL     1      41.328 -12.770   4.195  1.00  0.00     0.293 C 
BRANCH  11  12
HETATM   12  N   UNL     1      42.110 -11.535   4.553  1.00  0.00    -0.066 N 
HETATM   13  H   UNL     1      41.581 -10.724   4.203  1.00  0.00     0.280 HD
HETATM   14  C   UNL     1      43.510 -11.449   3.982  1.00  0.00     0.235 C 
HETATM   15  C   UNL     1      44.424 -11.547   5.184  1.00  0.00     0.029 C 
HETATM   16  C   UNL     1      43.643 -10.825   6.260  1.00  0.00     0.029 C 
HETATM   17  C   UNL     1      42.231 -11.339   6.060  1.00  0.00     0.235 C 
ENDBRANCH  11  12
ENDBRANCH  10  11
BRANCH   1  18
HETATM   18  C   UNL     1      39.529 -10.379   2.994  1.00  0.00     0.296 C 
HETATM   19  O   UNL     1      40.285  -9.423   2.907  1.00  0.00    -0.259 OA
BRANCH  18  20
HETATM   20  O   UNL     1      38.333 -10.358   3.647  1.00  0.00    -0.318 OA
BRANCH  20  21
HETATM   21  C   UNL     1      38.332  -9.726   4.941  1.00  0.00     0.174 C 
HETATM   22  C   UNL     1      38.618 -10.751   6.020  1.00  0.00     0.034 C 
ENDBRANCH  20  21
ENDBRANCH  18  20
ENDBRANCH   1  18
BRANCH   9  23
HETATM   23  C   UNL     1      41.530 -14.838   2.000  1.00  0.00     0.040 A 
HETATM   24  C   UNL     1      40.972 -16.025   2.489  1.00  0.00     0.030 A 
HETATM   25  C   UNL     1      41.761 -17.172   2.573  1.00  0.00     0.002 A 
HETATM   26  C   UNL     1      43.096 -17.131   2.175  1.00  0.00     0.000 A 
HETATM   27  C   UNL     1      43.653 -15.942   1.701  1.00  0.00     0.002 A 
HETATM   28  C   UNL     1      42.874 -14.788   1.616  1.00  0.00     0.030 A 
ENDBRANCH   9  23
BRANCH   8  29
HETATM   29  C   UNL     1      37.751 -10.208   0.196  1.00  0.00     0.276 C 
BRANCH  29  30
HETATM   30  N   UNL     1      38.176  -9.101  -0.744  1.00  0.00    -0.075 N 
HETATM   31  H   UNL     1      38.124  -9.531  -1.685  1.00  0.00     0.279 HD
HETATM   32  C   UNL     1      37.243  -7.933  -0.755  1.00  0.00     0.269 C 
HETATM   33  C   UNL     1      39.600  -8.690  -0.533  1.00  0.00     0.269 C 
ENDBRANCH  29  30
ENDBRANCH   8  29
BRANCH   7  34
HETATM   34  O   UNL     1      37.561 -11.733  -2.185  1.00  0.00    -0.359 OA
HETATM   35  H   UNL     1      38.193 -11.320  -2.817  1.00  0.00     0.218 HD
ENDBRANCH   7  34
TORSDOF 9
ENDMDL
MODEL 4
REMARK VINA RESULT:      -6.7      3.241      7.779
REMARK  9 active torsions:
REMARK  status: ('A' for Active; 'I' for Inactive)
REMARK    1  A    between atoms: C_2  and  O_3 
REMARK    2  A    between atoms: O_3  and  C_4 
REMARK    3  A    between atoms: C_4  and  C_5 
REMARK    4  A    between atoms: C_11  and  O_12 
REMARK    5  A    between atoms: C_13  and  C_14 
REMARK    6  A    between atoms: C_14  and  N_15 
REMARK    7  A    between atoms: N_19  and  C_20 
REMARK    8  A    between atoms: C_26  and  C_27 
REMARK    9  A    between atoms: C_27  and  N_28 
ROOT
HETATM    1  C   UNL     1      40.487 -13.642   1.897  1.00  0.00     0.077 A 
HETATM    2  C   UNL     1      40.490 -12.766   3.058  1.00  0.00     0.020 A 
HETATM    3  C   UNL     1      40.463 -11.456   2.555  1.00  0.00     0.053 A 
HETATM    4  C   UNL     1      40.534 -10.327   3.393  1.00  0.00     0.053 A 
HETATM    5  C   UNL     1      40.631 -10.518   4.763  1.00  0.00     0.047 A 
HETATM    6 BR   UNL     1      40.760  -8.997   5.886  1.00  0.00    -0.048 Br
HETATM    7  C   UNL     1      40.644 -11.803   5.296  1.00  0.00     0.092 A 
HETATM    8  C   UNL     1      40.531 -12.963   4.488  1.00  0.00     0.016 A 
HETATM    9  N   UNL     1      40.452 -11.516   1.165  1.00  0.00    -0.312 N 
HETATM   10  C   UNL     1      40.403 -12.839   0.751  1.00  0.00     0.060 A 
ENDROOT
BRANCH  10  11
HETATM   11  C   UNL     1      40.301 -13.224  -0.699  1.00  0.00     0.293 C 
BRANCH  11  12
HETATM   12  N   UNL     1      38.969 -13.814  -1.078  1.00  0.00    -0.066 N 
HETATM   13  H   UNL     1      38.541 -14.182  -0.218  1.00  0.00     0.280 HD
HETATM   14  C   UNL     1      39.009 -14.941  -2.089  1.00  0.00     0.235 C 
HETATM   15  C   UNL     1      38.341 -14.376  -3.323  1.00  0.00     0.029 C 
HETATM   16  C   UNL     1      37.274 -13.471  -2.745  1.00  0.00     0.029 C 
HETATM   17  C   UNL     1      38.000 -12.767  -1.616  1.00  0.00     0.235 C 
ENDBRANCH  11  12
ENDBRANCH  10  11
BRANCH   1  18
HETATM   18  C   UNL     1      40.586 -15.107   1.903  1.00  0.00     0.296 C 
HETATM   19  O   UNL     1      39.651 -15.831   1.597  1.00  0.00    -0.259 OA
BRANCH  18  20
HETATM   20  O   UNL     1      41.830 -15.553   2.234  1.00  0.00    -0.318 OA
BRANCH  20  21
HETATM   21  C   UNL     1      41.895 -16.874   2.804  1.00  0.00     0.174 C 
HETATM   22  C   UNL     1      43.094 -17.620   2.251  1.00  0.00     0.034 C 
ENDBRANCH  20  21
ENDBRANCH  18  20
ENDBRANCH   1  18
BRANCH   9  23
HETATM   23  C   UNL     1      40.477 -10.382   0.311  1.00  0.00     0.040 A 
HETATM   24  C   UNL     1      39.277  -9.754  -0.043  1.00  0.00     0.030 A 
HETATM   25  C   UNL     1      39.304  -8.634  -0.874  1.00  0.00     0.002 A 
HETATM   26  C   UNL     1      40.521  -8.149  -1.350  1.00  0.00     0.000 A 
HETATM   27  C   UNL     1      41.715  -8.786  -1.007  1.00  0.00     0.002 A 
HETATM   28  C   UNL     1      41.699  -9.908  -0.179  1.00  0.00     0.030 A 
ENDBRANCH   9  23
BRANCH   8  29
HETATM   29  C   UNL     1      40.569 -14.344   5.134  1.00  0.00     0.276 C 
BRANCH  29  30
HETATM   30  N   UNL     1      41.708 -14.635   6.086  1.00  0.00    -0.075 N 
HETATM   31  H   UNL     1      41.655 -13.875   6.788  1.00  0.00     0.279 HD
HETATM   32  C   UNL     1      41.549 -15.921   6.834  1.00  0.00     0.269 C 
HETATM   33  C   UNL     1      43.047 -14.524   5.425  1.00  0.00     0.269 C 
ENDBRANCH  29  30
ENDBRANCH   8  29
BRANCH   7  34
HETATM   34  O   UNL     1      40.784 -11.965   6.659  1.00  0.00    -0.359 OA
HETATM   35  H   UNL     1      40.020 -12.509   6.961  1.00  0.00     0.218 HD
ENDBRANCH   7  34
TORSDOF 9
ENDMDL
MODEL 5
REMARK VINA RESULT:      -6.6     17.498     20.115
REMARK  9 active torsions:
REMARK  status: ('A' for Active; 'I' for Inactive)
REMARK    1  A    between atoms: C_2  and  O_3 
REMARK    2  A    between atoms: O_3  and  C_4 
REMARK    3  A    between atoms: C_4  and  C_5 
REMARK    4  A    between atoms: C_11  and  O_12 
REMARK    5  A    between atoms: C_13  and  C_14 
REMARK    6  A    between atoms: C_14  and  N_15 
REMARK    7  A    between atoms: N_19  and  C_20 
REMARK    8  A    between atoms: C_26  and  C_27 
REMARK    9  A    between atoms: C_27  and  N_28 
ROOT
HETATM    1  C   UNL     1      47.975 -29.612   1.292  1.00  0.00     0.077 A 
HETATM    2  C   UNL     1      48.989 -30.164   0.407  1.00  0.00     0.020 A 
HETATM    3  C   UNL     1      48.419 -30.174  -0.875  1.00  0.00     0.053 A 
HETATM    4  C   UNL     1      49.087 -30.716  -1.990  1.00  0.00     0.053 A 
HETATM    5  C   UNL     1      50.353 -31.253  -1.813  1.00  0.00     0.047 A 
HETATM    6 BR   UNL     1      51.235 -32.011  -3.310  1.00  0.00    -0.048 Br
HETATM    7  C   UNL     1      50.954 -31.243  -0.559  1.00  0.00     0.092 A 
HETATM    8  C   UNL     1      50.331 -30.669   0.579  1.00  0.00     0.016 A 
HETATM    9  N   UNL     1      47.125 -29.670  -0.789  1.00  0.00    -0.312 N 
HETATM   10  C   UNL     1      46.863 -29.266   0.512  1.00  0.00     0.060 A 
ENDROOT
BRANCH  10  11
HETATM   11  C   UNL     1      45.571 -28.603   0.903  1.00  0.00     0.293 C 
BRANCH  11  12
HETATM   12  N   UNL     1      44.448 -29.570   1.166  1.00  0.00    -0.066 N 
HETATM   13  H   UNL     1      44.784 -30.508   0.909  1.00  0.00     0.280 HD
HETATM   14  C   UNL     1      43.166 -29.318   0.401  1.00  0.00     0.235 C 
HETATM   15  C   UNL     1      42.158 -28.919   1.457  1.00  0.00     0.029 C 
HETATM   16  C   UNL     1      42.566 -29.760   2.647  1.00  0.00     0.029 C 
HETATM   17  C   UNL     1      44.077 -29.644   2.643  1.00  0.00     0.235 C 
ENDBRANCH  11  12
ENDBRANCH  10  11
BRANCH   1  18
HETATM   18  C   UNL     1      48.067 -29.469   2.751  1.00  0.00     0.296 C 
HETATM   19  O   UNL     1      48.495 -28.457   3.286  1.00  0.00    -0.259 OA
BRANCH  18  20
HETATM   20  O   UNL     1      47.586 -30.552   3.422  1.00  0.00    -0.318 OA
BRANCH  20  21
HETATM   21  C   UNL     1      47.319 -30.357   4.824  1.00  0.00     0.174 C 
HETATM   22  C   UNL     1      47.397 -31.682   5.557  1.00  0.00     0.034 C 
ENDBRANCH  20  21
ENDBRANCH  18  20
ENDBRANCH   1  18
BRANCH   9  23
HETATM   23  C   UNL     1      46.223 -29.578  -1.882  1.00  0.00     0.040 A 
HETATM   24  C   UNL     1      45.419 -30.675  -2.211  1.00  0.00     0.030 A 
HETATM   25  C   UNL     1      44.526 -30.579  -3.279  1.00  0.00     0.002 A 
HETATM   26  C   UNL     1      44.442 -29.396  -4.012  1.00  0.00     0.000 A 
HETATM   27  C   UNL     1      45.255 -28.309  -3.690  1.00  0.00     0.002 A 
HETATM   28  C   UNL     1      46.153 -28.396  -2.627  1.00  0.00     0.030 A 
ENDBRANCH   9  23
BRANCH   8  29
HETATM   29  C   UNL     1      51.037 -30.705   1.929  1.00  0.00     0.276 C 
BRANCH  29  30
HETATM   30  N   UNL     1      50.501 -31.664   2.969  1.00  0.00    -0.075 N 
HETATM   31  H   UNL     1      49.476 -31.519   2.945  1.00  0.00     0.279 HD
HETATM   32  C   UNL     1      50.738 -33.103   2.636  1.00  0.00     0.269 C 
HETATM   33  C   UNL     1      50.958 -31.319   4.353  1.00  0.00     0.269 C 
ENDBRANCH  29  30
ENDBRANCH   8  29
BRANCH   7  34
HETATM   34  O   UNL     1      52.197 -31.821  -0.403  1.00  0.00    -0.359 OA
HETATM   35  H   UNL     1      52.844 -31.234  -0.858  1.00  0.00     0.218 HD
ENDBRANCH   7  34
TORSDOF 9
ENDMDL
MODEL 6
REMARK VINA RESULT:      -6.4      3.595      6.572
REMARK  9 active torsions:
REMARK  status: ('A' for Active; 'I' for Inactive)
REMARK    1  A    between atoms: C_2  and  O_3 
REMARK    2  A    between atoms: O_3  and  C_4 
REMARK    3  A    between atoms: C_4  and  C_5 
REMARK    4  A    between atoms: C_11  and  O_12 
REMARK    5  A    between atoms: C_13  and  C_14 
REMARK    6  A    between atoms: C_14  and  N_15 
REMARK    7  A    between atoms: N_19  and  C_20 
REMARK    8  A    between atoms: C_26  and  C_27 
REMARK    9  A    between atoms: C_27  and  N_28 
ROOT
HETATM    1  C   UNL     1      41.926 -13.483   4.182  1.00  0.00     0.077 A 
HETATM    2  C   UNL     1      41.554 -12.135   3.783  1.00  0.00     0.020 A 
HETATM    3  C   UNL     1      42.280 -11.271   4.617  1.00  0.00     0.053 A 
HETATM    4  C   UNL     1      42.119  -9.872   4.572  1.00  0.00     0.053 A 
HETATM    5  C   UNL     1      41.215  -9.333   3.669  1.00  0.00     0.047 A 
HETATM    6 BR   UNL     1      40.977  -7.453   3.635  1.00  0.00    -0.048 Br
HETATM    7  C   UNL     1      40.492 -10.160   2.816  1.00  0.00     0.092 A 
HETATM    8  C   UNL     1      40.658 -11.569   2.801  1.00  0.00     0.016 A 
HETATM    9  N   UNL     1      43.047 -12.036   5.488  1.00  0.00    -0.312 N 
HETATM   10  C   UNL     1      42.891 -13.383   5.194  1.00  0.00     0.060 A 
ENDROOT
BRANCH  10  11
HETATM   11  C   UNL     1      43.657 -14.458   5.914  1.00  0.00     0.293 C 
BRANCH  11  12
HETATM   12  N   UNL     1      43.129 -15.846   5.672  1.00  0.00    -0.066 N 
HETATM   13  H   UNL     1      42.438 -15.784   4.912  1.00  0.00     0.280 HD
HETATM   14  C   UNL     1      42.452 -16.511   6.852  1.00  0.00     0.235 C 
HETATM   15  C   UNL     1      43.364 -17.660   7.223  1.00  0.00     0.029 C 
HETATM   16  C   UNL     1      43.900 -18.111   5.882  1.00  0.00     0.029 C 
HETATM   17  C   UNL     1      44.210 -16.803   5.182  1.00  0.00     0.235 C 
ENDBRANCH  11  12
ENDBRANCH  10  11
BRANCH   1  18
HETATM   18  C   UNL     1      41.375 -14.738   3.654  1.00  0.00     0.296 C 
HETATM   19  O   UNL     1      40.361 -15.251   4.102  1.00  0.00    -0.259 OA
BRANCH  18  20
HETATM   20  O   UNL     1      42.083 -15.226   2.598  1.00  0.00    -0.318 OA
BRANCH  20  21
HETATM   21  C   UNL     1      41.788 -16.582   2.213  1.00  0.00     0.174 C 
HETATM   22  C   UNL     1      43.075 -17.367   2.048  1.00  0.00     0.034 C 
ENDBRANCH  20  21
ENDBRANCH  18  20
ENDBRANCH   1  18
BRANCH   9  23
HETATM   23  C   UNL     1      43.873 -11.504   6.514  1.00  0.00     0.040 A 
HETATM   24  C   UNL     1      43.312 -11.168   7.751  1.00  0.00     0.030 A 
HETATM   25  C   UNL     1      44.127 -10.654   8.760  1.00  0.00     0.002 A 
HETATM   26  C   UNL     1      45.491 -10.476   8.531  1.00  0.00     0.000 A 
HETATM   27  C   UNL     1      46.044 -10.799   7.291  1.00  0.00     0.002 A 
HETATM   28  C   UNL     1      45.238 -11.310   6.274  1.00  0.00     0.030 A 
ENDBRANCH   9  23
BRANCH   8  29
HETATM   29  C   UNL     1      39.822 -12.421   1.853  1.00  0.00     0.276 C 
BRANCH  29  30
HETATM   30  N   UNL     1      40.531 -13.046   0.671  1.00  0.00    -0.075 N 
HETATM   31  H   UNL     1      41.418 -13.407   1.068  1.00  0.00     0.279 HD
HETATM   32  C   UNL     1      39.811 -14.222   0.093  1.00  0.00     0.269 C 
HETATM   33  C   UNL     1      40.901 -12.036  -0.371  1.00  0.00     0.269 C 
ENDBRANCH  29  30
ENDBRANCH   8  29
BRANCH   7  34
HETATM   34  O   UNL     1      39.569  -9.601   1.956  1.00  0.00    -0.359 OA
HETATM   35  H   UNL     1      39.088  -8.909   2.466  1.00  0.00     0.218 HD
ENDBRANCH   7  34
TORSDOF 9
ENDMDL
MODEL 7
REMARK VINA RESULT:      -6.4      3.084      6.138
REMARK  9 active torsions:
REMARK  status: ('A' for Active; 'I' for Inactive)
REMARK    1  A    between atoms: C_2  and  O_3 
REMARK    2  A    between atoms: O_3  and  C_4 
REMARK    3  A    between atoms: C_4  and  C_5 
REMARK    4  A    between atoms: C_11  and  O_12 
REMARK    5  A    between atoms: C_13  and  C_14 
REMARK    6  A    between atoms: C_14  and  N_15 
REMARK    7  A    between atoms: N_19  and  C_20 
REMARK    8  A    between atoms: C_26  and  C_27 
REMARK    9  A    between atoms: C_27  and  N_28 
ROOT
HETATM    1  C   UNL     1      40.249 -11.372   2.619  1.00  0.00     0.077 A 
HETATM    2  C   UNL     1      41.202 -11.199   3.704  1.00  0.00     0.020 A 
HETATM    3  C   UNL     1      41.951 -12.385   3.754  1.00  0.00     0.053 A 
HETATM    4  C   UNL     1      42.930 -12.615   4.740  1.00  0.00     0.053 A 
HETATM    5  C   UNL     1      43.163 -11.632   5.691  1.00  0.00     0.047 A 
HETATM    6 BR   UNL     1      44.459 -11.958   7.035  1.00  0.00    -0.048 Br
HETATM    7  C   UNL     1      42.451 -10.438   5.660  1.00  0.00     0.092 A 
HETATM    8  C   UNL     1      41.488 -10.152   4.658  1.00  0.00     0.016 A 
HETATM    9  N   UNL     1      41.484 -13.246   2.767  1.00  0.00    -0.312 N 
HETATM   10  C   UNL     1      40.491 -12.620   2.028  1.00  0.00     0.060 A 
ENDROOT
BRANCH  10  11
HETATM   11  C   UNL     1      39.845 -13.270   0.835  1.00  0.00     0.293 C 
BRANCH  11  12
HETATM   12  N   UNL     1      40.716 -13.287  -0.392  1.00  0.00    -0.066 N 
HETATM   13  H   UNL     1      41.590 -13.770  -0.142  1.00  0.00     0.280 HD
HETATM   14  C   UNL     1      41.087 -11.933  -0.959  1.00  0.00     0.235 C 
HETATM   15  C   UNL     1      40.380 -11.867  -2.296  1.00  0.00     0.029 C 
HETATM   16  C   UNL     1      40.439 -13.300  -2.778  1.00  0.00     0.029 C 
HETATM   17  C   UNL     1      40.101 -14.093  -1.531  1.00  0.00     0.235 C 
ENDBRANCH  11  12
ENDBRANCH  10  11
BRANCH   1  18
HETATM   18  C   UNL     1      39.193 -10.433   2.222  1.00  0.00     0.296 C 
HETATM   19  O   UNL     1      38.128 -10.351   2.815  1.00  0.00    -0.259 OA
BRANCH  18  20
HETATM   20  O   UNL     1      39.550  -9.646   1.169  1.00  0.00    -0.318 OA
BRANCH  20  21
HETATM   21  C   UNL     1      39.268  -8.241   1.307  1.00  0.00     0.174 C 
HETATM   22  C   UNL     1      40.553  -7.442   1.222  1.00  0.00     0.034 C 
ENDBRANCH  20  21
ENDBRANCH  18  20
ENDBRANCH   1  18
BRANCH   9  23
HETATM   23  C   UNL     1      41.969 -14.563   2.552  1.00  0.00     0.040 A 
HETATM   24  C   UNL     1      41.311 -15.649   3.141  1.00  0.00     0.030 A 
HETATM   25  C   UNL     1      41.784 -16.942   2.920  1.00  0.00     0.002 A 
HETATM   26  C   UNL     1      42.907 -17.147   2.120  1.00  0.00     0.000 A 
HETATM   27  C   UNL     1      43.569 -16.061   1.545  1.00  0.00     0.002 A 
HETATM   28  C   UNL     1      43.107 -14.763   1.762  1.00  0.00     0.030 A 
ENDBRANCH   9  23
BRANCH   8  29
HETATM   29  C   UNL     1      40.729  -8.830   4.690  1.00  0.00     0.276 C 
BRANCH  29  30
HETATM   30  N   UNL     1      39.866  -8.553   5.901  1.00  0.00    -0.075 N 
HETATM   31  H   UNL     1      40.535  -8.526   6.691  1.00  0.00     0.279 HD
HETATM   32  C   UNL     1      39.193  -7.218   5.864  1.00  0.00     0.269 C 
HETATM   33  C   UNL     1      38.905  -9.666   6.183  1.00  0.00     0.269 C 
ENDBRANCH  29  30
ENDBRANCH   8  29
BRANCH   7  34
HETATM   34  O   UNL     1      42.674  -9.495   6.642  1.00  0.00    -0.359 OA
HETATM   35  H   UNL     1      42.444  -9.918   7.500  1.00  0.00     0.218 HD
ENDBRANCH   7  34
TORSDOF 9
ENDMDL
MODEL 8
REMARK VINA RESULT:      -6.3      4.398      7.230
REMARK  9 active torsions:
REMARK  status: ('A' for Active; 'I' for Inactive)
REMARK    1  A    between atoms: C_2  and  O_3 
REMARK    2  A    between atoms: O_3  and  C_4 
REMARK    3  A    between atoms: C_4  and  C_5 
REMARK    4  A    between atoms: C_11  and  O_12 
REMARK    5  A    between atoms: C_13  and  C_14 
REMARK    6  A    between atoms: C_14  and  N_15 
REMARK    7  A    between atoms: N_19  and  C_20 
REMARK    8  A    between atoms: C_26  and  C_27 
REMARK    9  A    between atoms: C_27  and  N_28 
ROOT
HETATM    1  C   UNL     1      41.420 -11.324   5.102  1.00  0.00     0.077 A 
HETATM    2  C   UNL     1      41.925 -12.673   5.306  1.00  0.00     0.020 A 
HETATM    3  C   UNL     1      42.900 -12.574   6.310  1.00  0.00     0.053 A 
HETATM    4  C   UNL     1      43.668 -13.679   6.723  1.00  0.00     0.053 A 
HETATM    5  C   UNL     1      43.448 -14.908   6.119  1.00  0.00     0.047 A 
HETATM    6 BR   UNL     1      44.506 -16.386   6.655  1.00  0.00    -0.048 Br
HETATM    7  C   UNL     1      42.477 -15.045   5.132  1.00  0.00     0.092 A 
HETATM    8  C   UNL     1      41.655 -13.965   4.719  1.00  0.00     0.016 A 
HETATM    9  N   UNL     1      43.002 -11.242   6.699  1.00  0.00    -0.312 N 
HETATM   10  C   UNL     1      42.064 -10.480   6.018  1.00  0.00     0.060 A 
ENDROOT
BRANCH  10  11
HETATM   11  C   UNL     1      41.875  -9.012   6.284  1.00  0.00     0.293 C 
BRANCH  11  12
HETATM   12  N   UNL     1      40.545  -8.673   6.903  1.00  0.00    -0.066 N 
HETATM   13  H   UNL     1      39.846  -8.675   6.148  1.00  0.00     0.280 HD
HETATM   14  C   UNL     1      40.463  -7.331   7.599  1.00  0.00     0.235 C 
HETATM   15  C   UNL     1      40.290  -7.666   9.064  1.00  0.00     0.029 C 
HETATM   16  C   UNL     1      39.448  -8.923   9.025  1.00  0.00     0.029 C 
HETATM   17  C   UNL     1      40.085  -9.724   7.907  1.00  0.00     0.235 C 
ENDBRANCH  11  12
ENDBRANCH  10  11
BRANCH   1  18
HETATM   18  C   UNL     1      40.437 -10.897   4.099  1.00  0.00     0.296 C 
HETATM   19  O   UNL     1      40.708 -10.801   2.912  1.00  0.00    -0.259 OA
BRANCH  18  20
HETATM   20  O   UNL     1      39.201 -10.674   4.627  1.00  0.00    -0.318 OA
BRANCH  20  21
HETATM   21  C   UNL     1      38.364  -9.749   3.907  1.00  0.00     0.174 C 
HETATM   22  C   UNL     1      37.927  -8.622   4.823  1.00  0.00     0.034 C 
ENDBRANCH  20  21
ENDBRANCH  18  20
ENDBRANCH   1  18
BRANCH   9  23
HETATM   23  C   UNL     1      43.925 -10.753   7.660  1.00  0.00     0.040 A 
HETATM   24  C   UNL     1      45.228 -10.426   7.267  1.00  0.00     0.030 A 
HETATM   25  C   UNL     1      46.129  -9.937   8.212  1.00  0.00     0.002 A 
HETATM   26  C   UNL     1      45.732  -9.778   9.539  1.00  0.00     0.000 A 
HETATM   27  C   UNL     1      44.436 -10.117   9.930  1.00  0.00     0.002 A 
HETATM   28  C   UNL     1      43.527 -10.611   8.995  1.00  0.00     0.030 A 
ENDBRANCH   9  23
BRANCH   8  29
HETATM   29  C   UNL     1      40.620 -14.177   3.620  1.00  0.00     0.276 C 
BRANCH  29  30
HETATM   30  N   UNL     1      41.098 -14.796   2.325  1.00  0.00    -0.075 N 
HETATM   31  H   UNL     1      41.790 -15.508   2.622  1.00  0.00     0.279 HD
HETATM   32  C   UNL     1      40.027 -15.526   1.579  1.00  0.00     0.269 C 
HETATM   33  C   UNL     1      41.827 -13.816   1.458  1.00  0.00     0.269 C 
ENDBRANCH  29  30
ENDBRANCH   8  29
BRANCH   7  34
HETATM   34  O   UNL     1      42.308 -16.269   4.518  1.00  0.00    -0.359 OA
HETATM   35  H   UNL     1      41.493 -16.668   4.898  1.00  0.00     0.218 HD
ENDBRANCH   7  34
TORSDOF 9
ENDMDL
MODEL 9
REMARK VINA RESULT:      -6.3     17.470     20.126
REMARK  9 active torsions:
REMARK  status: ('A' for Active; 'I' for Inactive)
REMARK    1  A    between atoms: C_2  and  O_3 
REMARK    2  A    between atoms: O_3  and  C_4 
REMARK    3  A    between atoms: C_4  and  C_5 
REMARK    4  A    between atoms: C_11  and  O_12 
REMARK    5  A    between atoms: C_13  and  C_14 
REMARK    6  A    between atoms: C_14  and  N_15 
REMARK    7  A    between atoms: N_19  and  C_20 
REMARK    8  A    between atoms: C_26  and  C_27 
REMARK    9  A    between atoms: C_27  and  N_28 
ROOT
HETATM    1  C   UNL     1      47.438 -29.760   1.592  1.00  0.00     0.077 A 
HETATM    2  C   UNL     1      46.106 -30.240   1.925  1.00  0.00     0.020 A 
HETATM    3  C   UNL     1      45.367 -30.188   0.733  1.00  0.00     0.053 A 
HETATM    4  C   UNL     1      43.997 -30.509   0.683  1.00  0.00     0.053 A 
HETATM    5  C   UNL     1      43.359 -30.894   1.852  1.00  0.00     0.047 A 
HETATM    6 BR   UNL     1      41.507 -31.294   1.787  1.00  0.00    -0.048 Br
HETATM    7  C   UNL     1      44.065 -30.973   3.048  1.00  0.00     0.092 A 
HETATM    8  C   UNL     1      45.455 -30.699   3.130  1.00  0.00     0.016 A 
HETATM    9  N   UNL     1      46.188 -29.695  -0.276  1.00  0.00    -0.312 N 
HETATM   10  C   UNL     1      47.468 -29.490   0.217  1.00  0.00     0.060 A 
ENDROOT
BRANCH  10  11
HETATM   11  C   UNL     1      48.604 -29.036  -0.658  1.00  0.00     0.293 C 
BRANCH  11  12
HETATM   12  N   UNL     1      49.452 -30.162  -1.185  1.00  0.00    -0.066 N 
HETATM   13  H   UNL     1      49.693 -29.935  -2.159  1.00  0.00     0.280 HD
HETATM   14  C   UNL     1      48.807 -31.532  -1.182  1.00  0.00     0.235 C 
HETATM   15  C   UNL     1      49.594 -32.327  -0.163  1.00  0.00     0.029 C 
HETATM   16  C   UNL     1      50.998 -31.787  -0.326  1.00  0.00     0.029 C 
HETATM   17  C   UNL     1      50.777 -30.292  -0.442  1.00  0.00     0.235 C 
ENDBRANCH  11  12
ENDBRANCH  10  11
BRANCH   1  18
HETATM   18  C   UNL     1      48.554 -29.556   2.524  1.00  0.00     0.296 C 
HETATM   19  O   UNL     1      48.764 -28.486   3.075  1.00  0.00    -0.259 OA
BRANCH  18  20
HETATM   20  O   UNL     1      49.283 -30.687   2.736  1.00  0.00    -0.318 OA
BRANCH  20  21
HETATM   21  C   UNL     1      50.633 -30.491   3.199  1.00  0.00     0.174 C 
HETATM   22  C   UNL     1      50.740 -30.874   4.662  1.00  0.00     0.034 C 
ENDBRANCH  20  21
ENDBRANCH  18  20
ENDBRANCH   1  18
BRANCH   9  23
HETATM   23  C   UNL     1      45.768 -29.455  -1.611  1.00  0.00     0.040 A 
HETATM   24  C   UNL     1      45.455 -28.152  -2.016  1.00  0.00     0.030 A 
HETATM   25  C   UNL     1      45.052 -27.918  -3.330  1.00  0.00     0.002 A 
HETATM   26  C   UNL     1      44.959 -28.978  -4.231  1.00  0.00     0.000 A 
HETATM   27  C   UNL     1      45.258 -30.278  -3.820  1.00  0.00     0.002 A 
HETATM   28  C   UNL     1      45.659 -30.524  -2.507  1.00  0.00     0.030 A 
ENDBRANCH   9  23
BRANCH   8  29
HETATM   29  C   UNL     1      46.167 -30.787   4.475  1.00  0.00     0.276 C 
BRANCH  29  30
HETATM   30  N   UNL     1      47.159 -31.914   4.664  1.00  0.00    -0.075 N 
HETATM   31  H   UNL     1      48.024 -31.571   4.210  1.00  0.00     0.279 HD
HETATM   32  C   UNL     1      47.502 -32.176   6.096  1.00  0.00     0.269 C 
HETATM   33  C   UNL     1      46.752 -33.160   3.939  1.00  0.00     0.269 C 
ENDBRANCH  29  30
ENDBRANCH   8  29
BRANCH   7  34
HETATM   34  O   UNL     1      43.397 -31.319   4.204  1.00  0.00    -0.359 OA
HETATM   35  H   UNL     1      43.593 -30.618   4.867  1.00  0.00     0.218 HD
ENDBRANCH   7  34
TORSDOF 9
ENDMDL
MODEL 10
REMARK VINA RESULT:      -6.2      3.245      6.191
REMARK  9 active torsions:
REMARK  status: ('A' for Active; 'I' for Inactive)
REMARK    1  A    between atoms: C_2  and  O_3 
REMARK    2  A    between atoms: O_3  and  C_4 
REMARK    3  A    between atoms: C_4  and  C_5 
REMARK    4  A    between atoms: C_11  and  O_12 
REMARK    5  A    between atoms: C_13  and  C_14 
REMARK    6  A    between atoms: C_14  and  N_15 
REMARK    7  A    between atoms: N_19  and  C_20 
REMARK    8  A    between atoms: C_26  and  C_27 
REMARK    9  A    between atoms: C_27  and  N_28 
ROOT
HETATM    1  C   UNL     1      41.697 -11.701   3.343  1.00  0.00     0.077 A 
HETATM    2  C   UNL     1      40.526 -10.854   3.179  1.00  0.00     0.020 A 
HETATM    3  C   UNL     1      39.959 -11.214   1.947  1.00  0.00     0.053 A 
HETATM    4  C   UNL     1      38.840 -10.547   1.411  1.00  0.00     0.053 A 
HETATM    5  C   UNL     1      38.279  -9.502   2.130  1.00  0.00     0.047 A 
HETATM    6 BR   UNL     1      36.794  -8.586   1.391  1.00  0.00    -0.048 Br
HETATM    7  C   UNL     1      38.806  -9.131   3.363  1.00  0.00     0.092 A 
HETATM    8  C   UNL     1      39.905  -9.806   3.955  1.00  0.00     0.016 A 
HETATM    9  N   UNL     1      40.737 -12.216   1.376  1.00  0.00    -0.312 N 
HETATM   10  C   UNL     1      41.762 -12.566   2.243  1.00  0.00     0.060 A 
ENDROOT
BRANCH  10  11
HETATM   11  C   UNL     1      42.726 -13.681   1.939  1.00  0.00     0.293 C 
BRANCH  11  12
HETATM   12  N   UNL     1      42.712 -14.789   2.958  1.00  0.00    -0.066 N 
HETATM   13  H   UNL     1      43.197 -14.441   3.796  1.00  0.00     0.280 HD
HETATM   14  C   UNL     1      43.388 -16.078   2.541  1.00  0.00     0.235 C 
HETATM   15  C   UNL     1      42.264 -17.086   2.435  1.00  0.00     0.029 C 
HETATM   16  C   UNL     1      41.324 -16.660   3.542  1.00  0.00     0.029 C 
HETATM   17  C   UNL     1      41.301 -15.151   3.407  1.00  0.00     0.235 C 
ENDBRANCH  11  12
ENDBRANCH  10  11
BRANCH   1  18
HETATM   18  C   UNL     1      42.670 -11.649   4.443  1.00  0.00     0.296 C 
HETATM   19  O   UNL     1      43.575 -10.830   4.483  1.00  0.00    -0.259 OA
BRANCH  18  20
HETATM   20  O   UNL     1      42.420 -12.570   5.416  1.00  0.00    -0.318 OA
BRANCH  20  21
HETATM   21  C   UNL     1      43.572 -13.071   6.120  1.00  0.00     0.174 C 
HETATM   22  C   UNL     1      43.334 -14.506   6.549  1.00  0.00     0.034 C 
ENDBRANCH  20  21
ENDBRANCH  18  20
ENDBRANCH   1  18
BRANCH   9  23
HETATM   23  C   UNL     1      40.498 -12.792   0.101  1.00  0.00     0.040 A 
HETATM   24  C   UNL     1      39.824 -14.015   0.008  1.00  0.00     0.030 A 
HETATM   25  C   UNL     1      39.582 -14.574  -1.247  1.00  0.00     0.002 A 
HETATM   26  C   UNL     1      40.014 -13.918  -2.398  1.00  0.00     0.000 A 
HETATM   27  C   UNL     1      40.698 -12.705  -2.301  1.00  0.00     0.002 A 
HETATM   28  C   UNL     1      40.948 -12.138  -1.052  1.00  0.00     0.030 A 
ENDBRANCH   9  23
BRANCH   8  29
HETATM   29  C   UNL     1      40.445  -9.339   5.301  1.00  0.00     0.276 C 
BRANCH  29  30
HETATM   30  N   UNL     1      39.550  -9.512   6.508  1.00  0.00    -0.075 N 
HETATM   31  H   UNL     1      38.712  -8.944   6.288  1.00  0.00     0.279 HD
HETATM   32  C   UNL     1      39.075 -10.916   6.706  1.00  0.00     0.269 C 
HETATM   33  C   UNL     1      40.152  -8.934   7.752  1.00  0.00     0.269 C 
ENDBRANCH  29  30
ENDBRANCH   8  29
BRANCH   7  34
HETATM   34  O   UNL     1      38.254  -8.062   4.037  1.00  0.00    -0.359 OA
HETATM   35  H   UNL     1      37.416  -7.834   3.574  1.00  0.00     0.218 HD
ENDBRANCH   7  34
TORSDOF 9
ENDMDL
