MODEL 1
REMARK VINA RESULT:      -6.6      0.000      0.000
REMARK  5 active torsions:
REMARK  status: ('A' for Active; 'I' for Inactive)
REMARK    1  A    between atoms: C_2  and  O_3 
REMARK    2  A    between atoms: C_4  and  C_5 
REMARK    3  A    between atoms: C_5  and  O_6 
REMARK    4  A    between atoms: C_9  and  C_10 
REMARK    5  A    between atoms: C_22  and  O_23 
ROOT
HETATM    1  C   UNL     1      39.527 -13.108   1.679  1.00  0.00     0.047 C 
HETATM    2  C   UNL     1      40.961 -12.795   2.148  1.00  0.00     0.073 C 
HETATM    3  C   UNL     1      41.700 -14.133   2.520  1.00  0.00     0.133 C 
HETATM    4  C   UNL     1      41.270 -14.776   3.883  1.00  0.00     0.074 C 
HETATM    5  C   UNL     1      40.617 -13.803   4.810  1.00  0.00     0.030 A 
HETATM    6  C   UNL     1      40.485 -12.457   4.548  1.00  0.00     0.042 A 
HETATM    7  N   UNL     1      39.810 -11.906   5.599  1.00  0.00    -0.279 N 
HETATM    8  H   UNL     1      39.539 -10.938   5.745  1.00  0.00     0.189 HD
HETATM    9  N   UNL     1      39.438 -12.826   6.515  1.00  0.00    -0.149 NA
HETATM   10  C   UNL     1      39.925 -13.954   6.013  1.00  0.00     0.190 A 
HETATM   11  C   UNL     1      40.927 -11.767   3.319  1.00  0.00     0.097 C 
ENDROOT
BRANCH   4  12
HETATM   12  C   UNL     1      42.375 -15.441   4.697  1.00  0.00    -0.047 A 
HETATM   13  C   UNL     1      42.698 -16.807   4.561  1.00  0.00     0.027 A 
HETATM   14  C   UNL     1      43.695 -17.385   5.347  1.00  0.00     0.011 A 
HETATM   15 BR   UNL     1      44.097 -19.222   5.146  1.00  0.00    -0.051 Br
HETATM   16  C   UNL     1      44.387 -16.623   6.282  1.00  0.00     0.019 A 
HETATM   17  C   UNL     1      44.080 -15.272   6.432  1.00  0.00     0.002 A 
HETATM   18  C   UNL     1      43.081 -14.686   5.648  1.00  0.00     0.008 A 
ENDBRANCH   4  12
BRANCH   3  19
HETATM   19  C   UNL     1      43.200 -13.947   2.397  1.00  0.00     0.266 C 
HETATM   20  O   UNL     1      43.818 -12.978   2.824  1.00  0.00    -0.265 OA
BRANCH  19  21
HETATM   21  O   UNL     1      43.750 -14.984   1.703  1.00  0.00    -0.326 OA
HETATM   22  C   UNL     1      42.802 -15.830   1.053  1.00  0.00     0.213 C 
ENDBRANCH  19  21
ENDBRANCH   3  19
BRANCH   2  23
HETATM   23  O   UNL     1      41.583 -12.173   1.010  1.00  0.00    -0.389 OA
HETATM   24  H   UNL     1      41.618 -11.209   1.178  1.00  0.00     0.210 HD
ENDBRANCH   2  23
BRANCH  10  25
HETATM   25  O   UNL     1      39.654 -15.051   6.711  1.00  0.00    -0.343 OA
HETATM   26  H   UNL     1      40.297 -15.707   6.390  1.00  0.00     0.219 HD
ENDBRANCH  10  25
TORSDOF 5
ENDMDL
MODEL 2
REMARK VINA RESULT:      -6.6     15.646     16.996
REMARK  5 active torsions:
REMARK  status: ('A' for Active; 'I' for Inactive)
REMARK    1  A    between atoms: C_2  and  O_3 
REMARK    2  A    between atoms: C_4  and  C_5 
REMARK    3  A    between atoms: C_5  and  O_6 
REMARK    4  A    between atoms: C_9  and  C_10 
REMARK    5  A    between atoms: C_22  and  O_23 
ROOT
HETATM    1  C   UNL     1      48.829 -30.135  -1.873  1.00  0.00     0.047 C 
HETATM    2  C   UNL     1      48.141 -29.301  -0.774  1.00  0.00     0.073 C 
HETATM    3  C   UNL     1      47.059 -30.178  -0.043  1.00  0.00     0.133 C 
HETATM    4  C   UNL     1      45.738 -30.419  -0.850  1.00  0.00     0.074 C 
HETATM    5  C   UNL     1      45.521 -29.410  -1.932  1.00  0.00     0.030 A 
HETATM    6  C   UNL     1      46.337 -28.321  -2.147  1.00  0.00     0.042 A 
HETATM    7  N   UNL     1      45.845 -27.658  -3.234  1.00  0.00    -0.279 N 
HETATM    8  H   UNL     1      46.193 -26.811  -3.675  1.00  0.00     0.189 HD
HETATM    9  N   UNL     1      44.781 -28.281  -3.784  1.00  0.00    -0.149 NA
HETATM   10  C   UNL     1      44.614 -29.332  -2.991  1.00  0.00     0.190 A 
HETATM   11  C   UNL     1      47.558 -27.991  -1.385  1.00  0.00     0.097 C 
ENDROOT
BRANCH   4  12
HETATM   12  C   UNL     1      44.444 -30.440  -0.043  1.00  0.00    -0.047 A 
HETATM   13  C   UNL     1      43.844 -31.640   0.392  1.00  0.00     0.027 A 
HETATM   14  C   UNL     1      42.643 -31.619   1.101  1.00  0.00     0.011 A 
HETATM   15 BR   UNL     1      41.858 -33.246   1.661  1.00  0.00    -0.051 Br
HETATM   16  C   UNL     1      42.015 -30.412   1.391  1.00  0.00     0.019 A 
HETATM   17  C   UNL     1      42.594 -29.216   0.968  1.00  0.00     0.002 A 
HETATM   18  C   UNL     1      43.796 -29.230   0.255  1.00  0.00     0.008 A 
ENDBRANCH   4  12
BRANCH   3  19
HETATM   19  C   UNL     1      46.813 -29.640   1.353  1.00  0.00     0.266 C 
HETATM   20  O   UNL     1      46.675 -28.453   1.626  1.00  0.00    -0.265 OA
BRANCH  19  21
HETATM   21  O   UNL     1      46.819 -30.657   2.260  1.00  0.00    -0.326 OA
HETATM   22  C   UNL     1      45.910 -30.486   3.348  1.00  0.00     0.213 C 
ENDBRANCH  19  21
ENDBRANCH   3  19
BRANCH   2  23
HETATM   23  O   UNL     1      49.204 -28.951   0.130  1.00  0.00    -0.389 OA
HETATM   24  H   UNL     1      48.921 -29.196   1.034  1.00  0.00     0.210 HD
ENDBRANCH   2  23
BRANCH  10  25
HETATM   25  O   UNL     1      43.638 -30.161  -3.341  1.00  0.00    -0.343 OA
HETATM   26  H   UNL     1      42.821 -29.684  -3.114  1.00  0.00     0.219 HD
ENDBRANCH  10  25
TORSDOF 5
ENDMDL
MODEL 3
REMARK VINA RESULT:      -6.6      2.896      5.215
REMARK  5 active torsions:
REMARK  status: ('A' for Active; 'I' for Inactive)
REMARK    1  A    between atoms: C_2  and  O_3 
REMARK    2  A    between atoms: C_4  and  C_5 
REMARK    3  A    between atoms: C_5  and  O_6 
REMARK    4  A    between atoms: C_9  and  C_10 
REMARK    5  A    between atoms: C_22  and  O_23 
ROOT
HETATM    1  C   UNL     1      44.795 -16.288   5.994  1.00  0.00     0.047 C 
HETATM    2  C   UNL     1      43.262 -16.144   6.085  1.00  0.00     0.073 C 
HETATM    3  C   UNL     1      42.689 -15.697   4.690  1.00  0.00     0.133 C 
HETATM    4  C   UNL     1      42.926 -14.193   4.321  1.00  0.00     0.074 C 
HETATM    5  C   UNL     1      43.207 -13.335   5.512  1.00  0.00     0.030 A 
HETATM    6  C   UNL     1      43.170 -13.786   6.814  1.00  0.00     0.042 A 
HETATM    7  N   UNL     1      43.513 -12.734   7.614  1.00  0.00    -0.279 N 
HETATM    8  H   UNL     1      43.588 -12.702   8.626  1.00  0.00     0.189 HD
HETATM    9  N   UNL     1      43.832 -11.628   6.908  1.00  0.00    -0.149 NA
HETATM   10  C   UNL     1      43.649 -12.018   5.652  1.00  0.00     0.190 A 
HETATM   11  C   UNL     1      42.886 -15.171   7.242  1.00  0.00     0.097 C 
ENDROOT
BRANCH   4  12
HETATM   12  C   UNL     1      41.799 -13.494   3.567  1.00  0.00    -0.047 A 
HETATM   13  C   UNL     1      41.795 -13.364   2.163  1.00  0.00     0.027 A 
HETATM   14  C   UNL     1      40.761 -12.690   1.514  1.00  0.00     0.011 A 
HETATM   15 BR   UNL     1      40.790 -12.524  -0.370  1.00  0.00    -0.051 Br
HETATM   16  C   UNL     1      39.715 -12.132   2.241  1.00  0.00     0.019 A 
HETATM   17  C   UNL     1      39.703 -12.250   3.630  1.00  0.00     0.002 A 
HETATM   18  C   UNL     1      40.738 -12.923   4.288  1.00  0.00     0.008 A 
ENDBRANCH   4  12
BRANCH   3  19
HETATM   19  C   UNL     1      41.238 -16.118   4.568  1.00  0.00     0.266 C 
HETATM   20  O   UNL     1      40.425 -16.086   5.485  1.00  0.00    -0.265 OA
BRANCH  19  21
HETATM   21  O   UNL     1      40.984 -16.583   3.311  1.00  0.00    -0.326 OA
HETATM   22  C   UNL     1      42.098 -17.209   2.674  1.00  0.00     0.213 C 
ENDBRANCH  19  21
ENDBRANCH   3  19
BRANCH   2  23
HETATM   23  O   UNL     1      42.798 -17.461   6.425  1.00  0.00    -0.389 OA
HETATM   24  H   UNL     1      42.366 -17.841   5.632  1.00  0.00     0.210 HD
ENDBRANCH   2  23
BRANCH  10  25
HETATM   25  O   UNL     1      43.943 -11.113   4.726  1.00  0.00    -0.343 OA
HETATM   26  H   UNL     1      43.090 -10.909   4.306  1.00  0.00     0.219 HD
ENDBRANCH  10  25
TORSDOF 5
ENDMDL
MODEL 4
REMARK VINA RESULT:      -6.5      2.207      3.787
REMARK  5 active torsions:
REMARK  status: ('A' for Active; 'I' for Inactive)
REMARK    1  A    between atoms: C_2  and  O_3 
REMARK    2  A    between atoms: C_4  and  C_5 
REMARK    3  A    between atoms: C_5  and  O_6 
REMARK    4  A    between atoms: C_9  and  C_10 
REMARK    5  A    between atoms: C_22  and  O_23 
ROOT
HETATM    1  C   UNL     1      41.898 -10.898   6.532  1.00  0.00     0.047 C 
HETATM    2  C   UNL     1      42.797 -11.595   5.491  1.00  0.00     0.073 C 
HETATM    3  C   UNL     1      41.907 -12.200   4.344  1.00  0.00     0.133 C 
HETATM    4  C   UNL     1      41.130 -13.507   4.721  1.00  0.00     0.074 C 
HETATM    5  C   UNL     1      41.718 -14.220   5.896  1.00  0.00     0.030 A 
HETATM    6  C   UNL     1      42.877 -13.833   6.532  1.00  0.00     0.042 A 
HETATM    7  N   UNL     1      43.073 -14.697   7.571  1.00  0.00    -0.279 N 
HETATM    8  H   UNL     1      43.828 -14.715   8.251  1.00  0.00     0.189 HD
HETATM    9  N   UNL     1      42.076 -15.599   7.691  1.00  0.00    -0.149 NA
HETATM   10  C   UNL     1      41.273 -15.285   6.682  1.00  0.00     0.190 A 
HETATM   11  C   UNL     1      43.700 -12.655   6.191  1.00  0.00     0.097 C 
ENDROOT
BRANCH   4  12
HETATM   12  C   UNL     1      41.001 -14.560   3.625  1.00  0.00    -0.047 A 
HETATM   13  C   UNL     1      41.900 -15.640   3.503  1.00  0.00     0.027 A 
HETATM   14  C   UNL     1      41.766 -16.564   2.468  1.00  0.00     0.011 A 
HETATM   15 BR   UNL     1      42.994 -17.996   2.327  1.00  0.00    -0.051 Br
HETATM   16  C   UNL     1      40.744 -16.436   1.533  1.00  0.00     0.019 A 
HETATM   17  C   UNL     1      39.847 -15.374   1.637  1.00  0.00     0.002 A 
HETATM   18  C   UNL     1      39.976 -14.442   2.672  1.00  0.00     0.008 A 
ENDBRANCH   4  12
BRANCH   3  19
HETATM   19  C   UNL     1      42.723 -12.339   3.074  1.00  0.00     0.266 C 
HETATM   20  O   UNL     1      43.841 -12.839   3.017  1.00  0.00    -0.265 OA
BRANCH  19  21
HETATM   21  O   UNL     1      42.058 -11.784   2.021  1.00  0.00    -0.326 OA
HETATM   22  C   UNL     1      41.336 -10.594   2.337  1.00  0.00     0.213 C 
ENDBRANCH  19  21
ENDBRANCH   3  19
BRANCH   2  23
HETATM   23  O   UNL     1      43.636 -10.545   4.980  1.00  0.00    -0.389 OA
HETATM   24  H   UNL     1      43.089  -9.983   4.394  1.00  0.00     0.210 HD
ENDBRANCH   2  23
BRANCH  10  25
HETATM   25  O   UNL     1      40.161 -16.006   6.593  1.00  0.00    -0.343 OA
HETATM   26  H   UNL     1      40.380 -16.715   5.965  1.00  0.00     0.219 HD
ENDBRANCH  10  25
TORSDOF 5
ENDMDL
MODEL 5
REMARK VINA RESULT:      -6.4      2.970      4.149
REMARK  5 active torsions:
REMARK  status: ('A' for Active; 'I' for Inactive)
REMARK    1  A    between atoms: C_2  and  O_3 
REMARK    2  A    between atoms: C_4  and  C_5 
REMARK    3  A    between atoms: C_5  and  O_6 
REMARK    4  A    between atoms: C_9  and  C_10 
REMARK    5  A    between atoms: C_22  and  O_23 
ROOT
HETATM    1  C   UNL     1      43.107 -16.336   2.513  1.00  0.00     0.047 C 
HETATM    2  C   UNL     1      42.345 -14.995   2.543  1.00  0.00     0.073 C 
HETATM    3  C   UNL     1      43.190 -13.924   3.325  1.00  0.00     0.133 C 
HETATM    4  C   UNL     1      43.199 -14.087   4.883  1.00  0.00     0.074 C 
HETATM    5  C   UNL     1      42.051 -14.899   5.393  1.00  0.00     0.030 A 
HETATM    6  C   UNL     1      41.032 -15.378   4.599  1.00  0.00     0.042 A 
HETATM    7  N   UNL     1      40.198 -16.096   5.406  1.00  0.00    -0.279 N 
HETATM    8  H   UNL     1      39.344 -16.589   5.162  1.00  0.00     0.189 HD
HETATM    9  N   UNL     1      40.641 -16.166   6.680  1.00  0.00    -0.149 NA
HETATM   10  C   UNL     1      41.757 -15.448   6.642  1.00  0.00     0.190 A 
HETATM   11  C   UNL     1      40.920 -15.205   3.137  1.00  0.00     0.097 C 
ENDROOT
BRANCH   4  12
HETATM   12  C   UNL     1      43.187 -12.800   5.700  1.00  0.00    -0.047 A 
HETATM   13  C   UNL     1      44.347 -12.282   6.313  1.00  0.00     0.027 A 
HETATM   14  C   UNL     1      44.288 -11.118   7.079  1.00  0.00     0.011 A 
HETATM   15 BR   UNL     1      45.860 -10.455   7.896  1.00  0.00    -0.051 Br
HETATM   16  C   UNL     1      43.082 -10.447   7.253  1.00  0.00     0.019 A 
HETATM   17  C   UNL     1      41.926 -10.945   6.656  1.00  0.00     0.002 A 
HETATM   18  C   UNL     1      41.977 -12.112   5.888  1.00  0.00     0.008 A 
ENDBRANCH   4  12
BRANCH   3  19
HETATM   19  C   UNL     1      42.801 -12.529   2.875  1.00  0.00     0.266 C 
HETATM   20  O   UNL     1      43.574 -11.580   2.807  1.00  0.00    -0.265 OA
BRANCH  19  21
HETATM   21  O   UNL     1      41.465 -12.473   2.609  1.00  0.00    -0.326 OA
HETATM   22  C   UNL     1      40.962 -11.156   2.382  1.00  0.00     0.213 C 
ENDBRANCH  19  21
ENDBRANCH   3  19
BRANCH   2  23
HETATM   23  O   UNL     1      42.215 -14.626   1.159  1.00  0.00    -0.389 OA
HETATM   24  H   UNL     1      42.891 -15.121   0.652  1.00  0.00     0.210 HD
ENDBRANCH   2  23
BRANCH  10  25
HETATM   25  O   UNL     1      42.435 -15.390   7.782  1.00  0.00    -0.343 OA
HETATM   26  H   UNL     1      41.809 -15.004   8.418  1.00  0.00     0.219 HD
ENDBRANCH  10  25
TORSDOF 5
ENDMDL
MODEL 6
REMARK VINA RESULT:      -6.4     15.546     17.030
REMARK  5 active torsions:
REMARK  status: ('A' for Active; 'I' for Inactive)
REMARK    1  A    between atoms: C_2  and  O_3 
REMARK    2  A    between atoms: C_4  and  C_5 
REMARK    3  A    between atoms: C_5  and  O_6 
REMARK    4  A    between atoms: C_9  and  C_10 
REMARK    5  A    between atoms: C_22  and  O_23 
ROOT
HETATM    1  C   UNL     1      47.984 -28.251   2.607  1.00  0.00     0.047 C 
HETATM    2  C   UNL     1      48.101 -29.350   1.532  1.00  0.00     0.073 C 
HETATM    3  C   UNL     1      47.610 -28.789   0.147  1.00  0.00     0.133 C 
HETATM    4  C   UNL     1      46.058 -28.644  -0.003  1.00  0.00     0.074 C 
HETATM    5  C   UNL     1      45.295 -29.492   0.964  1.00  0.00     0.030 A 
HETATM    6  C   UNL     1      45.879 -30.384   1.836  1.00  0.00     0.042 A 
HETATM    7  N   UNL     1      44.875 -30.939   2.576  1.00  0.00    -0.279 N 
HETATM    8  H   UNL     1      44.937 -31.637   3.311  1.00  0.00     0.189 HD
HETATM    9  N   UNL     1      43.664 -30.421   2.279  1.00  0.00    -0.149 NA
HETATM   10  C   UNL     1      43.946 -29.550   1.318  1.00  0.00     0.190 A 
HETATM   11  C   UNL     1      47.329 -30.625   1.986  1.00  0.00     0.097 C 
ENDROOT
BRANCH   4  12
HETATM   12  C   UNL     1      45.476 -28.963  -1.377  1.00  0.00    -0.047 A 
HETATM   13  C   UNL     1      45.114 -30.271  -1.760  1.00  0.00     0.027 A 
HETATM   14  C   UNL     1      44.615 -30.526  -3.037  1.00  0.00     0.011 A 
HETATM   15 BR   UNL     1      44.147 -32.293  -3.523  1.00  0.00    -0.051 Br
HETATM   16  C   UNL     1      44.467 -29.493  -3.957  1.00  0.00     0.019 A 
HETATM   17  C   UNL     1      44.821 -28.195  -3.596  1.00  0.00     0.002 A 
HETATM   18  C   UNL     1      45.324 -27.932  -2.318  1.00  0.00     0.008 A 
ENDBRANCH   4  12
BRANCH   3  19
HETATM   19  C   UNL     1      48.247 -29.573  -0.984  1.00  0.00     0.266 C 
HETATM   20  O   UNL     1      48.626 -29.083  -2.042  1.00  0.00    -0.265 OA
BRANCH  19  21
HETATM   21  O   UNL     1      48.289 -30.900  -0.675  1.00  0.00    -0.326 OA
HETATM   22  C   UNL     1      48.570 -31.757  -1.782  1.00  0.00     0.213 C 
ENDBRANCH  19  21
ENDBRANCH   3  19
BRANCH   2  23
HETATM   23  O   UNL     1      49.505 -29.657   1.485  1.00  0.00    -0.389 OA
HETATM   24  H   UNL     1      49.612 -30.496   0.991  1.00  0.00     0.210 HD
ENDBRANCH   2  23
BRANCH  10  25
HETATM   25  O   UNL     1      42.913 -28.848   0.865  1.00  0.00    -0.343 OA
HETATM   26  H   UNL     1      42.498 -29.426   0.202  1.00  0.00     0.219 HD
ENDBRANCH  10  25
TORSDOF 5
ENDMDL
MODEL 7
REMARK VINA RESULT:      -6.3      3.036      4.235
REMARK  5 active torsions:
REMARK  status: ('A' for Active; 'I' for Inactive)
REMARK    1  A    between atoms: C_2  and  O_3 
REMARK    2  A    between atoms: C_4  and  C_5 
REMARK    3  A    between atoms: C_5  and  O_6 
REMARK    4  A    between atoms: C_9  and  C_10 
REMARK    5  A    between atoms: C_22  and  O_23 
ROOT
HETATM    1  C   UNL     1      42.981 -15.969   1.816  1.00  0.00     0.047 C 
HETATM    2  C   UNL     1      42.053 -14.741   1.907  1.00  0.00     0.073 C 
HETATM    3  C   UNL     1      42.737 -13.625   2.780  1.00  0.00     0.133 C 
HETATM    4  C   UNL     1      42.732 -13.888   4.324  1.00  0.00     0.074 C 
HETATM    5  C   UNL     1      41.687 -14.870   4.748  1.00  0.00     0.030 A 
HETATM    6  C   UNL     1      40.756 -15.422   3.895  1.00  0.00     0.042 A 
HETATM    7  N   UNL     1      40.003 -16.291   4.630  1.00  0.00    -0.279 N 
HETATM    8  H   UNL     1      39.225 -16.871   4.330  1.00  0.00     0.189 HD
HETATM    9  N   UNL     1      40.423 -16.388   5.910  1.00  0.00    -0.149 NA
HETATM   10  C   UNL     1      41.438 -15.534   5.950  1.00  0.00     0.190 A 
HETATM   11  C   UNL     1      40.654 -15.168   2.444  1.00  0.00     0.097 C 
ENDROOT
BRANCH   4  12
HETATM   12  C   UNL     1      42.537 -12.669   5.220  1.00  0.00    -0.047 A 
HETATM   13  C   UNL     1      41.260 -12.185   5.571  1.00  0.00     0.027 A 
HETATM   14  C   UNL     1      41.124 -11.048   6.367  1.00  0.00     0.011 A 
HETATM   15 BR   UNL     1      39.397 -10.419   6.812  1.00  0.00    -0.051 Br
HETATM   16  C   UNL     1      42.248 -10.369   6.828  1.00  0.00     0.019 A 
HETATM   17  C   UNL     1      43.518 -10.833   6.489  1.00  0.00     0.002 A 
HETATM   18  C   UNL     1      43.662 -11.971   5.690  1.00  0.00     0.008 A 
ENDBRANCH   4  12
BRANCH   3  19
HETATM   19  C   UNL     1      42.182 -12.265   2.407  1.00  0.00     0.266 C 
HETATM   20  O   UNL     1      42.839 -11.230   2.379  1.00  0.00    -0.265 OA
BRANCH  19  21
HETATM   21  O   UNL     1      40.844 -12.350   2.159  1.00  0.00    -0.326 OA
HETATM   22  C   UNL     1      40.149 -11.105   2.219  1.00  0.00     0.213 C 
ENDBRANCH  19  21
ENDBRANCH   3  19
BRANCH   2  23
HETATM   23  O   UNL     1      41.907 -14.301   0.546  1.00  0.00    -0.389 OA
HETATM   24  H   UNL     1      42.664 -14.652   0.035  1.00  0.00     0.210 HD
ENDBRANCH   2  23
BRANCH  10  25
HETATM   25  O   UNL     1      42.079 -15.465   7.112  1.00  0.00    -0.343 OA
HETATM   26  H   UNL     1      42.919 -15.024   6.900  1.00  0.00     0.219 HD
ENDBRANCH  10  25
TORSDOF 5
ENDMDL
MODEL 8
REMARK VINA RESULT:      -6.2     15.746     17.849
REMARK  5 active torsions:
REMARK  status: ('A' for Active; 'I' for Inactive)
REMARK    1  A    between atoms: C_2  and  O_3 
REMARK    2  A    between atoms: C_4  and  C_5 
REMARK    3  A    between atoms: C_5  and  O_6 
REMARK    4  A    between atoms: C_9  and  C_10 
REMARK    5  A    between atoms: C_22  and  O_23 
ROOT
HETATM    1  C   UNL     1      50.900 -29.946   2.523  1.00  0.00     0.047 C 
HETATM    2  C   UNL     1      50.231 -30.894   1.508  1.00  0.00     0.073 C 
HETATM    3  C   UNL     1      49.668 -30.061   0.298  1.00  0.00     0.133 C 
HETATM    4  C   UNL     1      48.355 -29.259   0.592  1.00  0.00     0.074 C 
HETATM    5  C   UNL     1      47.601 -29.782   1.773  1.00  0.00     0.030 A 
HETATM    6  C   UNL     1      47.960 -30.909   2.479  1.00  0.00     0.042 A 
HETATM    7  N   UNL     1      47.063 -31.047   3.499  1.00  0.00    -0.279 N 
HETATM    8  H   UNL     1      47.019 -31.766   4.215  1.00  0.00     0.189 HD
HETATM    9  N   UNL     1      46.164 -30.041   3.539  1.00  0.00    -0.149 NA
HETATM   10  C   UNL     1      46.515 -29.292   2.500  1.00  0.00     0.190 A 
HETATM   11  C   UNL     1      49.143 -31.754   2.218  1.00  0.00     0.097 C 
ENDROOT
BRANCH   4  12
HETATM   12  C   UNL     1      47.339 -29.181  -0.542  1.00  0.00    -0.047 A 
HETATM   13  C   UNL     1      46.393 -30.200  -0.782  1.00  0.00     0.027 A 
HETATM   14  C   UNL     1      45.501 -30.106  -1.850  1.00  0.00     0.011 A 
HETATM   15 BR   UNL     1      44.252 -31.493  -2.150  1.00  0.00    -0.051 Br
HETATM   16  C   UNL     1      45.529 -29.005  -2.699  1.00  0.00     0.019 A 
HETATM   17  C   UNL     1      46.458 -27.989  -2.478  1.00  0.00     0.002 A 
HETATM   18  C   UNL     1      47.357 -28.077  -1.411  1.00  0.00     0.008 A 
ENDBRANCH   4  12
BRANCH   3  19
HETATM   19  C   UNL     1      49.565 -30.940  -0.932  1.00  0.00     0.266 C 
HETATM   20  O   UNL     1      49.126 -32.085  -0.934  1.00  0.00    -0.265 OA
BRANCH  19  21
HETATM   21  O   UNL     1      50.074 -30.295  -2.020  1.00  0.00    -0.326 OA
HETATM   22  C   UNL     1      51.443 -30.591  -2.298  1.00  0.00     0.213 C 
ENDBRANCH  19  21
ENDBRANCH   3  19
BRANCH   2  23
HETATM   23  O   UNL     1      51.291 -31.763   1.074  1.00  0.00    -0.389 OA
HETATM   24  H   UNL     1      51.134 -31.980   0.133  1.00  0.00     0.210 HD
ENDBRANCH   2  23
BRANCH  10  25
HETATM   25  O   UNL     1      45.805 -28.183   2.332  1.00  0.00    -0.343 OA
HETATM   26  H   UNL     1      46.363 -27.478   2.703  1.00  0.00     0.219 HD
ENDBRANCH  10  25
TORSDOF 5
ENDMDL
MODEL 9
REMARK VINA RESULT:      -6.2      2.579      4.153
REMARK  5 active torsions:
REMARK  status: ('A' for Active; 'I' for Inactive)
REMARK    1  A    between atoms: C_2  and  O_3 
REMARK    2  A    between atoms: C_4  and  C_5 
REMARK    3  A    between atoms: C_5  and  O_6 
REMARK    4  A    between atoms: C_9  and  C_10 
REMARK    5  A    between atoms: C_22  and  O_23 
ROOT
HETATM    1  C   UNL     1      41.099 -10.086   1.897  1.00  0.00     0.047 C 
HETATM    2  C   UNL     1      40.219 -10.846   2.909  1.00  0.00     0.073 C 
HETATM    3  C   UNL     1      41.124 -11.755   3.820  1.00  0.00     0.133 C 
HETATM    4  C   UNL     1      41.667 -13.056   3.136  1.00  0.00     0.074 C 
HETATM    5  C   UNL     1      40.869 -13.465   1.939  1.00  0.00     0.030 A 
HETATM    6  C   UNL     1      39.719 -12.830   1.525  1.00  0.00     0.042 A 
HETATM    7  N   UNL     1      39.299 -13.458   0.388  1.00  0.00    -0.279 N 
HETATM    8  H   UNL     1      38.486 -13.259  -0.187  1.00  0.00     0.189 HD
HETATM    9  N   UNL     1      40.142 -14.438  -0.004  1.00  0.00    -0.149 NA
HETATM   10  C   UNL     1      41.078 -14.414   0.937  1.00  0.00     0.190 A 
HETATM   11  C   UNL     1      39.109 -11.643   2.158  1.00  0.00     0.097 C 
ENDROOT
BRANCH   4  12
HETATM   12  C   UNL     1      41.753 -14.299   4.016  1.00  0.00    -0.047 A 
HETATM   13  C   UNL     1      42.938 -14.672   4.683  1.00  0.00     0.027 A 
HETATM   14  C   UNL     1      42.986 -15.834   5.453  1.00  0.00     0.011 A 
HETATM   15 BR   UNL     1      44.593 -16.311   6.328  1.00  0.00    -0.051 Br
HETATM   16  C   UNL     1      41.864 -16.647   5.576  1.00  0.00     0.019 A 
HETATM   17  C   UNL     1      40.685 -16.294   4.922  1.00  0.00     0.002 A 
HETATM   18  C   UNL     1      40.630 -15.132   4.146  1.00  0.00     0.008 A 
ENDBRANCH   4  12
BRANCH   3  19
HETATM   19  C   UNL     1      40.427 -12.023   5.139  1.00  0.00     0.266 C 
HETATM   20  O   UNL     1      39.230 -12.257   5.258  1.00  0.00    -0.265 OA
BRANCH  19  21
HETATM   21  O   UNL     1      41.311 -11.916   6.172  1.00  0.00    -0.326 OA
HETATM   22  C   UNL     1      42.052 -10.696   6.193  1.00  0.00     0.213 C 
ENDBRANCH  19  21
ENDBRANCH   3  19
BRANCH   2  23
HETATM   23  O   UNL     1      39.593  -9.813   3.689  1.00  0.00    -0.389 OA
HETATM   24  H   UNL     1      39.455  -9.039   3.105  1.00  0.00     0.210 HD
ENDBRANCH   2  23
BRANCH  10  25
HETATM   25  O   UNL     1      42.080 -15.269   0.766  1.00  0.00    -0.343 OA
HETATM   26  H   UNL     1      42.870 -14.776   1.046  1.00  0.00     0.219 HD
ENDBRANCH  10  25
TORSDOF 5
ENDMDL
MODEL 10
REMARK VINA RESULT:      -6.1      3.392      5.353
REMARK  5 active torsions:
REMARK  status: ('A' for Active; 'I' for Inactive)
REMARK    1  A    between atoms: C_2  and  O_3 
REMARK    2  A    between atoms: C_4  and  C_5 
REMARK    3  A    between atoms: C_5  and  O_6 
REMARK    4  A    between atoms: C_9  and  C_10 
REMARK    5  A    between atoms: C_22  and  O_23 
ROOT
HETATM    1  C   UNL     1      41.628 -16.709   2.694  1.00  0.00     0.047 C 
HETATM    2  C   UNL     1      42.414 -15.488   3.212  1.00  0.00     0.073 C 
HETATM    3  C   UNL     1      41.561 -14.732   4.296  1.00  0.00     0.133 C 
HETATM    4  C   UNL     1      40.374 -13.877   3.735  1.00  0.00     0.074 C 
HETATM    5  C   UNL     1      40.535 -13.529   2.290  1.00  0.00     0.030 A 
HETATM    6  C   UNL     1      41.650 -13.838   1.541  1.00  0.00     0.042 A 
HETATM    7  N   UNL     1      41.416 -13.396   0.271  1.00  0.00    -0.279 N 
HETATM    8  H   UNL     1      42.020 -13.452  -0.544  1.00  0.00     0.189 HD
HETATM    9  N   UNL     1      40.184 -12.863   0.125  1.00  0.00    -0.149 NA
HETATM   10  C   UNL     1      39.675 -12.964   1.347  1.00  0.00     0.190 A 
HETATM   11  C   UNL     1      42.835 -14.579   2.019  1.00  0.00     0.097 C 
ENDROOT
BRANCH   4  12
HETATM   12  C   UNL     1      40.093 -12.557   4.446  1.00  0.00    -0.047 A 
HETATM   13  C   UNL     1      40.633 -11.331   4.006  1.00  0.00     0.027 A 
HETATM   14  C   UNL     1      40.377 -10.150   4.703  1.00  0.00     0.011 A 
HETATM   15 BR   UNL     1      41.124  -8.523   4.093  1.00  0.00    -0.051 Br
HETATM   16  C   UNL     1      39.586 -10.162   5.847  1.00  0.00     0.019 A 
HETATM   17  C   UNL     1      39.046 -11.365   6.297  1.00  0.00     0.002 A 
HETATM   18  C   UNL     1      39.299 -12.553   5.604  1.00  0.00     0.008 A 
ENDBRANCH   4  12
BRANCH   3  19
HETATM   19  C   UNL     1      42.474 -13.949   5.219  1.00  0.00     0.266 C 
HETATM   20  O   UNL     1      43.368 -13.200   4.841  1.00  0.00    -0.265 OA
BRANCH  19  21
HETATM   21  O   UNL     1      42.191 -14.235   6.521  1.00  0.00    -0.326 OA
HETATM   22  C   UNL     1      41.642 -15.536   6.735  1.00  0.00     0.213 C 
ENDBRANCH  19  21
ENDBRANCH   3  19
BRANCH   2  23
HETATM   23  O   UNL     1      43.600 -16.048   3.802  1.00  0.00    -0.389 OA
HETATM   24  H   UNL     1      43.407 -16.979   4.035  1.00  0.00     0.210 HD
ENDBRANCH   2  23
BRANCH  10  25
HETATM   25  O   UNL     1      38.422 -12.544   1.478  1.00  0.00    -0.343 OA
HETATM   26  H   UNL     1      38.493 -11.576   1.530  1.00  0.00     0.219 HD
ENDBRANCH  10  25
TORSDOF 5
ENDMDL
