MODEL 1
REMARK VINA RESULT:      -8.1      0.000      0.000
REMARK  6 active torsions:
REMARK  status: ('A' for Active; 'I' for Inactive)
REMARK    1  A    between atoms: N_2  and  C_4 
REMARK    2  A    between atoms: N_2  and  C_11 
REMARK    3  A    between atoms: C_4  and  C_5 
REMARK    4  A    between atoms: C_5  and  O_6 
REMARK    5  A    between atoms: C_11  and  C_12 
REMARK    6  A    between atoms: C_13  and  C_14 
ROOT
HETATM    1  C   UNL     1      42.533 -16.325   5.696  1.00  0.00     0.016 A 
HETATM    2  C   UNL     1      43.622 -17.123   5.208  1.00  0.00     0.102 A 
HETATM    3  N   UNL     1      44.783 -16.714   5.734  1.00  0.00    -0.174 NA
HETATM    4  N   UNL     1      44.468 -15.709   6.552  1.00  0.00    -0.288 N 
HETATM    5  H   UNL     1      45.220 -15.257   7.066  1.00  0.00     0.188 HD
HETATM    6  C   UNL     1      43.130 -15.439   6.576  1.00  0.00     0.120 A 
ENDROOT
BRANCH   1   7
HETATM    7  C   UNL     1      41.096 -16.490   5.337  1.00  0.00     0.277 C 
BRANCH   7   8
HETATM    8  N   UNL     1      40.366 -15.217   4.954  1.00  0.00    -0.068 N 
HETATM    9  C   UNL     1      40.166 -14.315   6.151  1.00  0.00     0.270 C 
HETATM   10  H   UNL     1      39.439 -15.508   4.628  1.00  0.00     0.279 HD
BRANCH   8  11
HETATM   11  C   UNL     1      41.075 -14.513   3.799  1.00  0.00     0.272 C 
BRANCH  11  12
HETATM   12  C   UNL     1      40.213 -14.390   2.522  1.00  0.00     0.082 C 
HETATM   13  C   UNL     1      40.849 -13.428   1.515  1.00  0.00     0.039 C 
HETATM   14  C   UNL     1      40.182 -13.782   0.192  1.00  0.00     0.003 C 
HETATM   15  C   UNL     1      39.896 -15.279   0.268  1.00  0.00     0.003 C 
HETATM   16  C   UNL     1      40.088 -15.695   1.730  1.00  0.00     0.039 C 
BRANCH  12  17
HETATM   17  O   UNL     1      38.913 -13.915   2.880  1.00  0.00    -0.388 OA
HETATM   18  H   UNL     1      38.567 -14.446   3.624  1.00  0.00     0.210 HD
ENDBRANCH  12  17
ENDBRANCH  11  12
ENDBRANCH   8  11
ENDBRANCH   7   8
ENDBRANCH   1   7
BRANCH   2  19
HETATM   19  C   UNL     1      43.597 -18.245   4.278  1.00  0.00     0.072 A 
HETATM   20  C   UNL     1      43.353 -18.052   2.917  1.00  0.00     0.132 A 
HETATM   21  F   UNL     1      43.100 -16.823   2.441  1.00  0.00    -0.205 F 
HETATM   22  C   UNL     1      43.345 -19.122   2.020  1.00  0.00     0.043 A 
HETATM   23  C   UNL     1      43.589 -20.414   2.482  1.00  0.00     0.006 A 
HETATM   24  C   UNL     1      43.831 -20.628   3.838  1.00  0.00     0.043 A 
HETATM   25  C   UNL     1      43.833 -19.549   4.723  1.00  0.00     0.132 A 
HETATM   26  F   UNL     1      44.025 -19.803   6.026  1.00  0.00    -0.205 F 
ENDBRANCH   2  19
TORSDOF 6
ENDMDL
MODEL 2
REMARK VINA RESULT:      -7.7      1.909      2.789
REMARK  6 active torsions:
REMARK  status: ('A' for Active; 'I' for Inactive)
REMARK    1  A    between atoms: N_2  and  C_4 
REMARK    2  A    between atoms: N_2  and  C_11 
REMARK    3  A    between atoms: C_4  and  C_5 
REMARK    4  A    between atoms: C_5  and  O_6 
REMARK    5  A    between atoms: C_11  and  C_12 
REMARK    6  A    between atoms: C_13  and  C_14 
ROOT
HETATM    1  C   UNL     1      41.507 -14.342   4.685  1.00  0.00     0.016 A 
HETATM    2  C   UNL     1      41.496 -15.771   4.831  1.00  0.00     0.102 A 
HETATM    3  N   UNL     1      40.536 -16.154   5.682  1.00  0.00    -0.174 NA
HETATM    4  N   UNL     1      39.924 -15.030   6.057  1.00  0.00    -0.288 N 
HETATM    5  H   UNL     1      39.145 -15.103   6.706  1.00  0.00     0.188 HD
HETATM    6  C   UNL     1      40.460 -13.913   5.482  1.00  0.00     0.120 A 
ENDROOT
BRANCH   1   7
HETATM    7  C   UNL     1      42.430 -13.557   3.819  1.00  0.00     0.277 C 
BRANCH   7   8
HETATM    8  N   UNL     1      41.765 -12.717   2.746  1.00  0.00    -0.068 N 
HETATM    9  C   UNL     1      42.403 -11.351   2.640  1.00  0.00     0.270 C 
HETATM   10  H   UNL     1      40.796 -12.583   3.049  1.00  0.00     0.279 HD
BRANCH   8  11
HETATM   11  C   UNL     1      41.746 -13.461   1.412  1.00  0.00     0.272 C 
BRANCH  11  12
HETATM   12  C   UNL     1      40.342 -13.550   0.769  1.00  0.00     0.082 C 
HETATM   13  C   UNL     1      39.995 -12.260   0.020  1.00  0.00     0.039 C 
HETATM   14  C   UNL     1      38.867 -12.670  -0.919  1.00  0.00     0.003 C 
HETATM   15  C   UNL     1      39.151 -14.124  -1.285  1.00  0.00     0.003 C 
HETATM   16  C   UNL     1      40.222 -14.628  -0.312  1.00  0.00     0.039 C 
BRANCH  12  17
HETATM   17  O   UNL     1      39.373 -13.782   1.794  1.00  0.00    -0.388 OA
HETATM   18  H   UNL     1      38.477 -13.759   1.405  1.00  0.00     0.210 HD
ENDBRANCH  12  17
ENDBRANCH  11  12
ENDBRANCH   8  11
ENDBRANCH   7   8
ENDBRANCH   1   7
BRANCH   2  19
HETATM   19  C   UNL     1      42.351 -16.767   4.198  1.00  0.00     0.072 A 
HETATM   20  C   UNL     1      42.139 -17.169   2.878  1.00  0.00     0.132 A 
HETATM   21  F   UNL     1      41.114 -16.667   2.172  1.00  0.00    -0.205 F 
HETATM   22  C   UNL     1      42.966 -18.111   2.263  1.00  0.00     0.043 A 
HETATM   23  C   UNL     1      44.030 -18.666   2.971  1.00  0.00     0.006 A 
HETATM   24  C   UNL     1      44.255 -18.280   4.291  1.00  0.00     0.043 A 
HETATM   25  C   UNL     1      43.419 -17.339   4.894  1.00  0.00     0.132 A 
HETATM   26  F   UNL     1      43.643 -17.029   6.180  1.00  0.00    -0.205 F 
ENDBRANCH   2  19
TORSDOF 6
ENDMDL
MODEL 3
REMARK VINA RESULT:      -7.5      2.987      5.114
REMARK  6 active torsions:
REMARK  status: ('A' for Active; 'I' for Inactive)
REMARK    1  A    between atoms: N_2  and  C_4 
REMARK    2  A    between atoms: N_2  and  C_11 
REMARK    3  A    between atoms: C_4  and  C_5 
REMARK    4  A    between atoms: C_5  and  O_6 
REMARK    5  A    between atoms: C_11  and  C_12 
REMARK    6  A    between atoms: C_13  and  C_14 
ROOT
HETATM    1  C   UNL     1      40.732 -12.867   3.594  1.00  0.00     0.016 A 
HETATM    2  C   UNL     1      40.531 -14.144   2.968  1.00  0.00     0.102 A 
HETATM    3  N   UNL     1      39.259 -14.287   2.578  1.00  0.00    -0.174 NA
HETATM    4  N   UNL     1      38.656 -13.144   2.908  1.00  0.00    -0.288 N 
HETATM    5  H   UNL     1      37.669 -13.042   2.685  1.00  0.00     0.188 HD
HETATM    6  C   UNL     1      39.495 -12.252   3.512  1.00  0.00     0.120 A 
ENDROOT
BRANCH   1   7
HETATM    7  C   UNL     1      42.017 -12.354   4.146  1.00  0.00     0.277 C 
BRANCH   7   8
HETATM    8  N   UNL     1      42.154 -12.417   5.655  1.00  0.00    -0.068 N 
HETATM    9  C   UNL     1      41.533 -11.208   6.315  1.00  0.00     0.270 C 
HETATM   10  H   UNL     1      43.160 -12.394   5.851  1.00  0.00     0.279 HD
BRANCH   8  11
HETATM   11  C   UNL     1      41.596 -13.733   6.194  1.00  0.00     0.272 C 
BRANCH  11  12
HETATM   12  C   UNL     1      42.675 -14.673   6.780  1.00  0.00     0.082 C 
HETATM   13  C   UNL     1      42.092 -16.052   7.100  1.00  0.00     0.039 C 
HETATM   14  C   UNL     1      43.314 -16.958   7.190  1.00  0.00     0.003 C 
HETATM   15  C   UNL     1      44.321 -16.382   6.200  1.00  0.00     0.003 C 
HETATM   16  C   UNL     1      43.815 -14.990   5.808  1.00  0.00     0.039 C 
BRANCH  12  17
HETATM   17  O   UNL     1      43.204 -14.090   7.973  1.00  0.00    -0.388 OA
HETATM   18  H   UNL     1      43.175 -14.746   8.696  1.00  0.00     0.210 HD
ENDBRANCH  12  17
ENDBRANCH  11  12
ENDBRANCH   8  11
ENDBRANCH   7   8
ENDBRANCH   1   7
BRANCH   2  19
HETATM   19  C   UNL     1      41.492 -15.214   2.729  1.00  0.00     0.072 A 
HETATM   20  C   UNL     1      42.511 -15.074   1.785  1.00  0.00     0.132 A 
HETATM   21  F   UNL     1      42.605 -13.957   1.048  1.00  0.00    -0.205 F 
HETATM   22  C   UNL     1      43.443 -16.090   1.565  1.00  0.00     0.043 A 
HETATM   23  C   UNL     1      43.367 -17.271   2.301  1.00  0.00     0.006 A 
HETATM   24  C   UNL     1      42.354 -17.430   3.246  1.00  0.00     0.043 A 
HETATM   25  C   UNL     1      41.428 -16.407   3.453  1.00  0.00     0.132 A 
HETATM   26  F   UNL     1      40.443 -16.619   4.338  1.00  0.00    -0.205 F 
ENDBRANCH   2  19
TORSDOF 6
ENDMDL
MODEL 4
REMARK VINA RESULT:      -7.5      2.028      3.317
REMARK  6 active torsions:
REMARK  status: ('A' for Active; 'I' for Inactive)
REMARK    1  A    between atoms: N_2  and  C_4 
REMARK    2  A    between atoms: N_2  and  C_11 
REMARK    3  A    between atoms: C_4  and  C_5 
REMARK    4  A    between atoms: C_5  and  O_6 
REMARK    5  A    between atoms: C_11  and  C_12 
REMARK    6  A    between atoms: C_13  and  C_14 
ROOT
HETATM    1  C   UNL     1      41.541 -14.447   5.209  1.00  0.00     0.016 A 
HETATM    2  C   UNL     1      41.467 -15.876   5.089  1.00  0.00     0.102 A 
HETATM    3  N   UNL     1      40.423 -16.357   5.775  1.00  0.00    -0.174 NA
HETATM    4  N   UNL     1      39.821 -15.288   6.300  1.00  0.00    -0.288 N 
HETATM    5  H   UNL     1      38.985 -15.437   6.860  1.00  0.00     0.188 HD
HETATM    6  C   UNL     1      40.444 -14.115   5.985  1.00  0.00     0.120 A 
ENDROOT
BRANCH   1   7
HETATM    7  C   UNL     1      42.564 -13.566   4.578  1.00  0.00     0.277 C 
BRANCH   7   8
HETATM    8  N   UNL     1      42.036 -12.575   3.559  1.00  0.00    -0.068 N 
HETATM    9  C   UNL     1      43.115 -11.613   3.115  1.00  0.00     0.270 C 
HETATM   10  H   UNL     1      41.314 -12.030   4.039  1.00  0.00     0.279 HD
BRANCH   8  11
HETATM   11  C   UNL     1      41.379 -13.302   2.387  1.00  0.00     0.272 C 
BRANCH  11  12
HETATM   12  C   UNL     1      39.886 -12.950   2.194  1.00  0.00     0.082 C 
HETATM   13  C   UNL     1      39.512 -11.686   2.972  1.00  0.00     0.039 C 
HETATM   14  C   UNL     1      38.218 -11.217   2.316  1.00  0.00     0.003 C 
HETATM   15  C   UNL     1      38.335 -11.625   0.850  1.00  0.00     0.003 C 
HETATM   16  C   UNL     1      39.513 -12.598   0.751  1.00  0.00     0.039 C 
BRANCH  12  17
HETATM   17  O   UNL     1      39.086 -14.044   2.647  1.00  0.00    -0.388 OA
HETATM   18  H   UNL     1      39.339 -14.854   2.164  1.00  0.00     0.210 HD
ENDBRANCH  12  17
ENDBRANCH  11  12
ENDBRANCH   8  11
ENDBRANCH   7   8
ENDBRANCH   1   7
BRANCH   2  19
HETATM   19  C   UNL     1      42.338 -16.784   4.354  1.00  0.00     0.072 A 
HETATM   20  C   UNL     1      43.451 -17.369   4.960  1.00  0.00     0.132 A 
HETATM   21  F   UNL     1      43.763 -17.076   6.232  1.00  0.00    -0.205 F 
HETATM   22  C   UNL     1      44.278 -18.253   4.265  1.00  0.00     0.043 A 
HETATM   23  C   UNL     1      43.993 -18.569   2.937  1.00  0.00     0.006 A 
HETATM   24  C   UNL     1      42.889 -17.992   2.313  1.00  0.00     0.043 A 
HETATM   25  C   UNL     1      42.072 -17.108   3.020  1.00  0.00     0.132 A 
HETATM   26  F   UNL     1      41.046 -16.540   2.370  1.00  0.00    -0.205 F 
ENDBRANCH   2  19
TORSDOF 6
ENDMDL
MODEL 5
REMARK VINA RESULT:      -7.5      1.692      2.431
REMARK  6 active torsions:
REMARK  status: ('A' for Active; 'I' for Inactive)
REMARK    1  A    between atoms: N_2  and  C_4 
REMARK    2  A    between atoms: N_2  and  C_11 
REMARK    3  A    between atoms: C_4  and  C_5 
REMARK    4  A    between atoms: C_5  and  O_6 
REMARK    5  A    between atoms: C_11  and  C_12 
REMARK    6  A    between atoms: C_13  and  C_14 
ROOT
HETATM    1  C   UNL     1      42.633 -16.236   5.165  1.00  0.00     0.016 A 
HETATM    2  C   UNL     1      43.681 -17.215   5.099  1.00  0.00     0.102 A 
HETATM    3  N   UNL     1      44.705 -16.869   5.889  1.00  0.00    -0.174 NA
HETATM    4  N   UNL     1      44.335 -15.727   6.471  1.00  0.00    -0.288 N 
HETATM    5  H   UNL     1      44.978 -15.294   7.128  1.00  0.00     0.188 HD
HETATM    6  C   UNL     1      43.096 -15.306   6.080  1.00  0.00     0.120 A 
ENDROOT
BRANCH   1   7
HETATM    7  C   UNL     1      41.339 -16.286   4.428  1.00  0.00     0.277 C 
BRANCH   7   8
HETATM    8  N   UNL     1      41.210 -15.324   3.263  1.00  0.00    -0.068 N 
HETATM    9  C   UNL     1      40.394 -15.923   2.141  1.00  0.00     0.270 C 
HETATM   10  H   UNL     1      42.161 -15.177   2.909  1.00  0.00     0.279 HD
BRANCH   8  11
HETATM   11  C   UNL     1      40.665 -13.976   3.732  1.00  0.00     0.272 C 
BRANCH  11  12
HETATM   12  C   UNL     1      41.528 -12.770   3.294  1.00  0.00     0.082 C 
HETATM   13  C   UNL     1      41.484 -11.651   4.339  1.00  0.00     0.039 C 
HETATM   14  C   UNL     1      42.705 -10.798   4.019  1.00  0.00     0.003 C 
HETATM   15  C   UNL     1      43.749 -11.769   3.476  1.00  0.00     0.003 C 
HETATM   16  C   UNL     1      43.022 -13.085   3.179  1.00  0.00     0.039 C 
BRANCH  12  17
HETATM   17  O   UNL     1      41.040 -12.276   2.045  1.00  0.00    -0.388 OA
HETATM   18  H   UNL     1      41.484 -12.747   1.313  1.00  0.00     0.210 HD
ENDBRANCH  12  17
ENDBRANCH  11  12
ENDBRANCH   8  11
ENDBRANCH   7   8
ENDBRANCH   1   7
BRANCH   2  19
HETATM   19  C   UNL     1      43.741 -18.449   4.326  1.00  0.00     0.072 A 
HETATM   20  C   UNL     1      43.762 -18.429   2.930  1.00  0.00     0.132 A 
HETATM   21  F   UNL     1      43.692 -17.264   2.267  1.00  0.00    -0.205 F 
HETATM   22  C   UNL     1      43.836 -19.608   2.186  1.00  0.00     0.043 A 
HETATM   23  C   UNL     1      43.895 -20.837   2.841  1.00  0.00     0.006 A 
HETATM   24  C   UNL     1      43.870 -20.878   4.234  1.00  0.00     0.043 A 
HETATM   25  C   UNL     1      43.793 -19.691   4.964  1.00  0.00     0.132 A 
HETATM   26  F   UNL     1      43.727 -19.777   6.301  1.00  0.00    -0.205 F 
ENDBRANCH   2  19
TORSDOF 6
ENDMDL
MODEL 6
REMARK VINA RESULT:      -7.3      3.157      5.272
REMARK  6 active torsions:
REMARK  status: ('A' for Active; 'I' for Inactive)
REMARK    1  A    between atoms: N_2  and  C_4 
REMARK    2  A    between atoms: N_2  and  C_11 
REMARK    3  A    between atoms: C_4  and  C_5 
REMARK    4  A    between atoms: C_5  and  O_6 
REMARK    5  A    between atoms: C_11  and  C_12 
REMARK    6  A    between atoms: C_13  and  C_14 
ROOT
HETATM    1  C   UNL     1      41.858 -14.216   3.200  1.00  0.00     0.016 A 
HETATM    2  C   UNL     1      41.597 -15.596   3.498  1.00  0.00     0.102 A 
HETATM    3  N   UNL     1      40.290 -15.866   3.396  1.00  0.00    -0.174 NA
HETATM    4  N   UNL     1      39.719 -14.720   3.021  1.00  0.00    -0.288 N 
HETATM    5  H   UNL     1      38.713 -14.712   2.876  1.00  0.00     0.188 HD
HETATM    6  C   UNL     1      40.614 -13.699   2.878  1.00  0.00     0.120 A 
ENDROOT
BRANCH   1   7
HETATM    7  C   UNL     1      43.193 -13.556   3.204  1.00  0.00     0.277 C 
BRANCH   7   8
HETATM    8  N   UNL     1      43.344 -12.389   4.162  1.00  0.00    -0.068 N 
HETATM    9  C   UNL     1      42.780 -11.116   3.573  1.00  0.00     0.270 C 
HETATM   10  H   UNL     1      44.351 -12.252   4.287  1.00  0.00     0.279 HD
BRANCH   8  11
HETATM   11  C   UNL     1      42.738 -12.725   5.523  1.00  0.00     0.272 C 
BRANCH  11  12
HETATM   12  C   UNL     1      43.559 -12.190   6.719  1.00  0.00     0.082 C 
HETATM   13  C   UNL     1      45.029 -11.996   6.337  1.00  0.00     0.039 C 
HETATM   14  C   UNL     1      45.567 -11.048   7.402  1.00  0.00     0.003 C 
HETATM   15  C   UNL     1      44.391 -10.153   7.781  1.00  0.00     0.003 C 
HETATM   16  C   UNL     1      43.132 -10.797   7.191  1.00  0.00     0.039 C 
BRANCH  12  17
HETATM   17  O   UNL     1      43.466 -13.118   7.802  1.00  0.00    -0.388 OA
HETATM   18  H   UNL     1      44.014 -13.903   7.606  1.00  0.00     0.210 HD
ENDBRANCH  12  17
ENDBRANCH  11  12
ENDBRANCH   8  11
ENDBRANCH   7   8
ENDBRANCH   1   7
BRANCH   2  19
HETATM   19  C   UNL     1      42.533 -16.651   3.867  1.00  0.00     0.072 A 
HETATM   20  C   UNL     1      42.781 -16.964   5.205  1.00  0.00     0.132 A 
HETATM   21  F   UNL     1      42.183 -16.270   6.185  1.00  0.00    -0.205 F 
HETATM   22  C   UNL     1      43.663 -17.985   5.562  1.00  0.00     0.043 A 
HETATM   23  C   UNL     1      44.313 -18.717   4.569  1.00  0.00     0.006 A 
HETATM   24  C   UNL     1      44.082 -18.417   3.228  1.00  0.00     0.043 A 
HETATM   25  C   UNL     1      43.199 -17.392   2.886  1.00  0.00     0.132 A 
HETATM   26  F   UNL     1      43.038 -17.105   1.586  1.00  0.00    -0.205 F 
ENDBRANCH   2  19
TORSDOF 6
ENDMDL
MODEL 7
REMARK VINA RESULT:      -7.2      2.886      4.237
REMARK  6 active torsions:
REMARK  status: ('A' for Active; 'I' for Inactive)
REMARK    1  A    between atoms: N_2  and  C_4 
REMARK    2  A    between atoms: N_2  and  C_11 
REMARK    3  A    between atoms: C_4  and  C_5 
REMARK    4  A    between atoms: C_5  and  O_6 
REMARK    5  A    between atoms: C_11  and  C_12 
REMARK    6  A    between atoms: C_13  and  C_14 
ROOT
HETATM    1  C   UNL     1      40.038 -13.083   4.196  1.00  0.00     0.016 A 
HETATM    2  C   UNL     1      41.215 -13.874   4.421  1.00  0.00     0.102 A 
HETATM    3  N   UNL     1      41.721 -13.638   5.638  1.00  0.00    -0.174 NA
HETATM    4  N   UNL     1      40.896 -12.752   6.199  1.00  0.00    -0.288 N 
HETATM    5  H   UNL     1      41.100 -12.441   7.146  1.00  0.00     0.188 HD
HETATM    6  C   UNL     1      39.863 -12.391   5.382  1.00  0.00     0.120 A 
ENDROOT
BRANCH   1   7
HETATM    7  C   UNL     1      39.204 -13.084   2.962  1.00  0.00     0.277 C 
BRANCH   7   8
HETATM    8  N   UNL     1      39.718 -12.225   1.823  1.00  0.00    -0.068 N 
HETATM    9  C   UNL     1      40.632 -11.131   2.326  1.00  0.00     0.270 C 
HETATM   10  H   UNL     1      38.894 -11.775   1.412  1.00  0.00     0.279 HD
BRANCH   8  11
HETATM   11  C   UNL     1      40.373 -13.089   0.746  1.00  0.00     0.272 C 
BRANCH  11  12
HETATM   12  C   UNL     1      39.562 -13.166  -0.568  1.00  0.00     0.082 C 
HETATM   13  C   UNL     1      40.251 -12.384  -1.689  1.00  0.00     0.039 C 
HETATM   14  C   UNL     1      39.630 -12.941  -2.965  1.00  0.00     0.003 C 
HETATM   15  C   UNL     1      39.319 -14.403  -2.660  1.00  0.00     0.003 C 
HETATM   16  C   UNL     1      39.448 -14.580  -1.144  1.00  0.00     0.039 C 
BRANCH  12  17
HETATM   17  O   UNL     1      38.257 -12.628  -0.343  1.00  0.00    -0.388 OA
HETATM   18  H   UNL     1      38.257 -12.109   0.484  1.00  0.00     0.210 HD
ENDBRANCH  12  17
ENDBRANCH  11  12
ENDBRANCH   8  11
ENDBRANCH   7   8
ENDBRANCH   1   7
BRANCH   2  19
HETATM   19  C   UNL     1      41.864 -14.832   3.536  1.00  0.00     0.072 A 
HETATM   20  C   UNL     1      41.449 -16.164   3.482  1.00  0.00     0.132 A 
HETATM   21  F   UNL     1      40.460 -16.599   4.277  1.00  0.00    -0.205 F 
HETATM   22  C   UNL     1      42.057 -17.081   2.622  1.00  0.00     0.043 A 
HETATM   23  C   UNL     1      43.099 -16.668   1.793  1.00  0.00     0.006 A 
HETATM   24  C   UNL     1      43.529 -15.343   1.835  1.00  0.00     0.043 A 
HETATM   25  C   UNL     1      42.914 -14.438   2.701  1.00  0.00     0.132 A 
HETATM   26  F   UNL     1      43.388 -13.184   2.744  1.00  0.00    -0.205 F 
ENDBRANCH   2  19
TORSDOF 6
ENDMDL
MODEL 8
REMARK VINA RESULT:      -7.2      3.019      5.380
REMARK  6 active torsions:
REMARK  status: ('A' for Active; 'I' for Inactive)
REMARK    1  A    between atoms: N_2  and  C_4 
REMARK    2  A    between atoms: N_2  and  C_11 
REMARK    3  A    between atoms: C_4  and  C_5 
REMARK    4  A    between atoms: C_5  and  O_6 
REMARK    5  A    between atoms: C_11  and  C_12 
REMARK    6  A    between atoms: C_13  and  C_14 
ROOT
HETATM    1  C   UNL     1      42.674 -11.790   4.112  1.00  0.00     0.016 A 
HETATM    2  C   UNL     1      42.176 -12.135   5.413  1.00  0.00     0.102 A 
HETATM    3  N   UNL     1      41.729 -11.049   6.055  1.00  0.00    -0.174 NA
HETATM    4  N   UNL     1      41.899 -10.038   5.202  1.00  0.00    -0.288 N 
HETATM    5  H   UNL     1      41.609  -9.109   5.498  1.00  0.00     0.188 HD
HETATM    6  C   UNL     1      42.454 -10.426   4.016  1.00  0.00     0.120 A 
ENDROOT
BRANCH   1   7
HETATM    7  C   UNL     1      43.244 -12.735   3.112  1.00  0.00     0.277 C 
BRANCH   7   8
HETATM    8  N   UNL     1      42.261 -13.715   2.501  1.00  0.00    -0.068 N 
HETATM    9  C   UNL     1      41.363 -13.038   1.491  1.00  0.00     0.270 C 
HETATM   10  H   UNL     1      41.668 -14.040   3.271  1.00  0.00     0.279 HD
BRANCH   8  11
HETATM   11  C   UNL     1      42.991 -14.924   1.921  1.00  0.00     0.272 C 
BRANCH  11  12
HETATM   12  C   UNL     1      42.773 -16.227   2.724  1.00  0.00     0.082 C 
HETATM   13  C   UNL     1      43.261 -17.448   1.940  1.00  0.00     0.039 C 
HETATM   14  C   UNL     1      43.430 -18.528   3.002  1.00  0.00     0.003 C 
HETATM   15  C   UNL     1      43.839 -17.787   4.272  1.00  0.00     0.003 C 
HETATM   16  C   UNL     1      43.580 -16.298   4.023  1.00  0.00     0.039 C 
BRANCH  12  17
HETATM   17  O   UNL     1      41.380 -16.371   3.011  1.00  0.00    -0.388 OA
HETATM   18  H   UNL     1      40.983 -17.009   2.387  1.00  0.00     0.210 HD
ENDBRANCH  12  17
ENDBRANCH  11  12
ENDBRANCH   8  11
ENDBRANCH   7   8
ENDBRANCH   1   7
BRANCH   2  19
HETATM   19  C   UNL     1      42.110 -13.442   6.056  1.00  0.00     0.072 A 
HETATM   20  C   UNL     1      41.007 -14.280   5.881  1.00  0.00     0.132 A 
HETATM   21  F   UNL     1      39.963 -13.880   5.139  1.00  0.00    -0.205 F 
HETATM   22  C   UNL     1      40.947 -15.539   6.482  1.00  0.00     0.043 A 
HETATM   23  C   UNL     1      42.007 -15.980   7.272  1.00  0.00     0.006 A 
HETATM   24  C   UNL     1      43.115 -15.156   7.462  1.00  0.00     0.043 A 
HETATM   25  C   UNL     1      43.160 -13.899   6.858  1.00  0.00     0.132 A 
HETATM   26  F   UNL     1      44.223 -13.119   7.102  1.00  0.00    -0.205 F 
ENDBRANCH   2  19
TORSDOF 6
ENDMDL
MODEL 9
REMARK VINA RESULT:      -7.1      9.336     11.874
REMARK  6 active torsions:
REMARK  status: ('A' for Active; 'I' for Inactive)
REMARK    1  A    between atoms: N_2  and  C_4 
REMARK    2  A    between atoms: N_2  and  C_11 
REMARK    3  A    between atoms: C_4  and  C_5 
REMARK    4  A    between atoms: C_5  and  O_6 
REMARK    5  A    between atoms: C_11  and  C_12 
REMARK    6  A    between atoms: C_13  and  C_14 
ROOT
HETATM    1  C   UNL     1      39.392 -10.120  11.377  1.00  0.00     0.016 A 
HETATM    2  C   UNL     1      39.889  -9.959  12.714  1.00  0.00     0.102 A 
HETATM    3  N   UNL     1      39.484 -10.967  13.497  1.00  0.00    -0.174 NA
HETATM    4  N   UNL     1      38.775 -11.770  12.702  1.00  0.00    -0.288 N 
HETATM    5  H   UNL     1      38.378 -12.615  13.106  1.00  0.00     0.188 HD
HETATM    6  C   UNL     1      38.695 -11.316  11.416  1.00  0.00     0.120 A 
ENDROOT
BRANCH   1   7
HETATM    7  C   UNL     1      39.643  -9.201  10.232  1.00  0.00     0.277 C 
BRANCH   7   8
HETATM    8  N   UNL     1      40.832  -9.551   9.358  1.00  0.00    -0.068 N 
HETATM    9  C   UNL     1      40.497  -9.413   7.890  1.00  0.00     0.270 C 
HETATM   10  H   UNL     1      41.035 -10.539   9.537  1.00  0.00     0.279 HD
BRANCH   8  11
HETATM   11  C   UNL     1      42.058  -8.734   9.761  1.00  0.00     0.272 C 
BRANCH  11  12
HETATM   12  C   UNL     1      43.401  -9.446   9.478  1.00  0.00     0.082 C 
HETATM   13  C   UNL     1      44.149  -8.776   8.323  1.00  0.00     0.039 C 
HETATM   14  C   UNL     1      45.588  -9.250   8.488  1.00  0.00     0.003 C 
HETATM   15  C   UNL     1      45.789  -9.420   9.991  1.00  0.00     0.003 C 
HETATM   16  C   UNL     1      44.400  -9.369  10.636  1.00  0.00     0.039 C 
BRANCH  12  17
HETATM   17  O   UNL     1      43.144 -10.813   9.150  1.00  0.00    -0.388 OA
HETATM   18  H   UNL     1      43.418 -11.383   9.895  1.00  0.00     0.210 HD
ENDBRANCH  12  17
ENDBRANCH  11  12
ENDBRANCH   8  11
ENDBRANCH   7   8
ENDBRANCH   1   7
BRANCH   2  19
HETATM   19  C   UNL     1      40.725  -8.899  13.264  1.00  0.00     0.072 A 
HETATM   20  C   UNL     1      42.098  -9.078  13.442  1.00  0.00     0.132 A 
HETATM   21  F   UNL     1      42.674 -10.252  13.139  1.00  0.00    -0.205 F 
HETATM   22  C   UNL     1      42.904  -8.060  13.952  1.00  0.00     0.043 A 
HETATM   23  C   UNL     1      42.338  -6.832  14.293  1.00  0.00     0.006 A 
HETATM   24  C   UNL     1      40.968  -6.636  14.126  1.00  0.00     0.043 A 
HETATM   25  C   UNL     1      40.174  -7.664  13.617  1.00  0.00     0.132 A 
HETATM   26  F   UNL     1      38.854  -7.450  13.515  1.00  0.00    -0.205 F 
ENDBRANCH   2  19
TORSDOF 6
ENDMDL
MODEL 10
REMARK VINA RESULT:      -7.1     13.324     15.177
REMARK  6 active torsions:
REMARK  status: ('A' for Active; 'I' for Inactive)
REMARK    1  A    between atoms: N_2  and  C_4 
REMARK    2  A    between atoms: N_2  and  C_11 
REMARK    3  A    between atoms: C_4  and  C_5 
REMARK    4  A    between atoms: C_5  and  O_6 
REMARK    5  A    between atoms: C_11  and  C_12 
REMARK    6  A    between atoms: C_13  and  C_14 
ROOT
HETATM    1  C   UNL     1      44.399 -30.019   1.385  1.00  0.00     0.016 A 
HETATM    2  C   UNL     1      43.762 -29.536   0.192  1.00  0.00     0.102 A 
HETATM    3  N   UNL     1      42.516 -29.120   0.453  1.00  0.00    -0.174 NA
HETATM    4  N   UNL     1      42.351 -29.295   1.765  1.00  0.00    -0.288 N 
HETATM    5  H   UNL     1      41.460 -29.027   2.175  1.00  0.00     0.188 HD
HETATM    6  C   UNL     1      43.452 -29.823   2.377  1.00  0.00     0.120 A 
ENDROOT
BRANCH   1   7
HETATM    7  C   UNL     1      45.785 -30.554   1.484  1.00  0.00     0.277 C 
BRANCH   7   8
HETATM    8  N   UNL     1      46.895 -29.533   1.319  1.00  0.00    -0.068 N 
HETATM    9  C   UNL     1      46.763 -28.409   2.321  1.00  0.00     0.270 C 
HETATM   10  H   UNL     1      46.775 -29.131   0.385  1.00  0.00     0.279 HD
BRANCH   8  11
HETATM   11  C   UNL     1      48.264 -30.210   1.372  1.00  0.00     0.272 C 
BRANCH  11  12
HETATM   12  C   UNL     1      49.083 -30.059   0.069  1.00  0.00     0.082 C 
HETATM   13  C   UNL     1      49.135 -31.378  -0.707  1.00  0.00     0.039 C 
HETATM   14  C   UNL     1      49.525 -30.961  -2.120  1.00  0.00     0.003 C 
HETATM   15  C   UNL     1      48.910 -29.579  -2.320  1.00  0.00     0.003 C 
HETATM   16  C   UNL     1      48.470 -29.082  -0.939  1.00  0.00     0.039 C 
BRANCH  12  17
HETATM   17  O   UNL     1      50.411 -29.645   0.398  1.00  0.00    -0.388 OA
HETATM   18  H   UNL     1      50.947 -29.597  -0.417  1.00  0.00     0.210 HD
ENDBRANCH  12  17
ENDBRANCH  11  12
ENDBRANCH   8  11
ENDBRANCH   7   8
ENDBRANCH   1   7
BRANCH   2  19
HETATM   19  C   UNL     1      44.289 -29.455  -1.164  1.00  0.00     0.072 A 
HETATM   20  C   UNL     1      44.182 -30.531  -2.048  1.00  0.00     0.132 A 
HETATM   21  F   UNL     1      43.618 -31.682  -1.650  1.00  0.00    -0.205 F 
HETATM   22  C   UNL     1      44.670 -30.452  -3.353  1.00  0.00     0.043 A 
HETATM   23  C   UNL     1      45.275 -29.277  -3.796  1.00  0.00     0.006 A 
HETATM   24  C   UNL     1      45.395 -28.193  -2.927  1.00  0.00     0.043 A 
HETATM   25  C   UNL     1      44.904 -28.288  -1.624  1.00  0.00     0.132 A 
HETATM   26  F   UNL     1      45.080 -27.239  -0.807  1.00  0.00    -0.205 F 
ENDBRANCH   2  19
TORSDOF 6
ENDMDL
