MODEL 1
REMARK VINA RESULT:      -9.1      0.000      0.000
REMARK  8 active torsions:
REMARK  status: ('A' for Active; 'I' for Inactive)
REMARK    1  A    between atoms: C_5  and  O_6 
REMARK    2  A    between atoms: O_6  and  C_7 
REMARK    3  A    between atoms: C_7  and  C_8 
REMARK    4  A    between atoms: C_12  and  S_13 
REMARK    5  A    between atoms: S_13  and  C_14 
REMARK    6  A    between atoms: C_14  and  C_15 
REMARK       I    between atoms: C_15  and  N_16 
REMARK    7  A    between atoms: N_16  and  C_17 
REMARK    8  A    between atoms: C_20  and  C_21 
REMARK       I    between atoms: C_21  and  N_22 
ROOT
HETATM    1  S   UNL     1      43.040 -12.036   3.855  1.00  0.00    -0.081 SA
ENDROOT
BRANCH   1   2
HETATM    2  C   UNL     1      43.843 -11.786   5.353  1.00  0.00     0.185 A 
HETATM    3  N   UNL     1      43.443 -12.384   6.504  1.00  0.00    -0.254 N 
HETATM    4  N   UNL     1      44.264 -12.063   7.520  1.00  0.00    -0.155 NA
HETATM    5  H   UNL     1      42.655 -13.001   6.663  1.00  0.00     0.191 HD
HETATM    6  C   UNL     1      45.173 -11.292   6.897  1.00  0.00     0.172 A 
HETATM    7  N   UNL     1      44.921 -11.079   5.561  1.00  0.00    -0.204 NA
BRANCH   6   8
HETATM    8  C   UNL     1      46.370 -10.704   7.579  1.00  0.00     0.258 C 
BRANCH   8   9
HETATM    9  O   UNL     1      46.180  -9.310   7.843  1.00  0.00    -0.344 OA
BRANCH   9  10
HETATM   10  C   UNL     1      45.272  -8.978   8.810  1.00  0.00     0.069 A 
HETATM   11  C   UNL     1      45.426  -9.671  10.013  1.00  0.00     0.037 A 
HETATM   12  C   UNL     1      44.574  -9.425  11.093  1.00  0.00     0.009 A 
HETATM   13  C   UNL     1      43.549  -8.482  10.981  1.00  0.00    -0.062 A 
HETATM   14  C   UNL     1      42.654  -8.183  12.147  1.00  0.00     0.048 C 
HETATM   15  C   UNL     1      43.407  -7.777   9.781  1.00  0.00     0.009 A 
HETATM   16  C   UNL     1      44.259  -8.027   8.699  1.00  0.00     0.037 A 
ENDBRANCH   9  10
ENDBRANCH   8   9
ENDBRANCH   6   8
ENDBRANCH   1   2
BRANCH   1  17
HETATM   17  C   UNL     1      41.552 -12.924   4.408  1.00  0.00     0.185 C 
BRANCH  17  18
HETATM   18  C   UNL     1      41.610 -14.450   4.369  1.00  0.00     0.231 C 
HETATM   19  N   UNL     1      42.762 -15.000   3.849  1.00  0.00    -0.327 N 
HETATM   20  H   UNL     1      43.412 -14.337   3.442  1.00  0.00     0.169 HD
HETATM   21  O   UNL     1      40.668 -15.089   4.841  1.00  0.00    -0.272 OA
BRANCH  19  22
HETATM   22  C   UNL     1      43.070 -16.360   3.659  1.00  0.00     0.034 A 
HETATM   23  C   UNL     1      43.770 -17.142   4.581  1.00  0.00     0.030 A 
HETATM   24  C   UNL     1      44.020 -18.497   4.324  1.00  0.00     0.019 A 
HETATM   25  C   UNL     1      43.567 -19.085   3.139  1.00  0.00     0.032 A 
HETATM   26  C   UNL     1      42.885 -18.302   2.204  1.00  0.00     0.019 A 
HETATM   27  C   UNL     1      42.635 -16.950   2.466  1.00  0.00     0.030 A 
BRANCH  25  28
HETATM   28  C   UNL     1      43.803 -20.519   2.823  1.00  0.00     0.249 C 
HETATM   29  N   UNL     1      44.050 -21.366   3.866  1.00  0.00    -0.366 N 
HETATM   30  H   UNL     1      43.863 -21.114   4.827  1.00  0.00     0.159 HD
HETATM   31  H   UNL     1      44.096 -22.351   3.641  1.00  0.00     0.159 HD
HETATM   32  O   UNL     1      43.746 -20.941   1.674  1.00  0.00    -0.268 OA
ENDBRANCH  25  28
ENDBRANCH  19  22
ENDBRANCH  17  18
ENDBRANCH   1  17
TORSDOF 8
ENDMDL
MODEL 2
REMARK VINA RESULT:      -9.0      1.297      2.069
REMARK  8 active torsions:
REMARK  status: ('A' for Active; 'I' for Inactive)
REMARK    1  A    between atoms: C_5  and  O_6 
REMARK    2  A    between atoms: O_6  and  C_7 
REMARK    3  A    between atoms: C_7  and  C_8 
REMARK    4  A    between atoms: C_12  and  S_13 
REMARK    5  A    between atoms: S_13  and  C_14 
REMARK    6  A    between atoms: C_14  and  C_15 
REMARK       I    between atoms: C_15  and  N_16 
REMARK    7  A    between atoms: N_16  and  C_17 
REMARK    8  A    between atoms: C_20  and  C_21 
REMARK       I    between atoms: C_21  and  N_22 
ROOT
HETATM    1  S   UNL     1      43.657 -11.942   4.717  1.00  0.00    -0.081 SA
ENDROOT
BRANCH   1   2
HETATM    2  C   UNL     1      44.611 -11.455   6.060  1.00  0.00     0.185 A 
HETATM    3  N   UNL     1      45.957 -11.299   5.982  1.00  0.00    -0.254 N 
HETATM    4  N   UNL     1      46.458 -10.867   7.154  1.00  0.00    -0.155 NA
HETATM    5  H   UNL     1      46.573 -11.457   5.193  1.00  0.00     0.191 HD
HETATM    6  C   UNL     1      45.341 -10.742   7.893  1.00  0.00     0.172 A 
HETATM    7  N   UNL     1      44.186 -11.128   7.251  1.00  0.00    -0.204 NA
BRANCH   6   8
HETATM    8  C   UNL     1      45.330 -10.228   9.299  1.00  0.00     0.258 C 
BRANCH   8   9
HETATM    9  O   UNL     1      44.259 -10.808  10.052  1.00  0.00    -0.344 OA
BRANCH   9  10
HETATM   10  C   UNL     1      43.755 -10.071  11.087  1.00  0.00     0.069 A 
HETATM   11  C   UNL     1      43.026 -10.807  12.023  1.00  0.00     0.037 A 
HETATM   12  C   UNL     1      42.462 -10.185  13.139  1.00  0.00     0.009 A 
HETATM   13  C   UNL     1      42.616  -8.809  13.332  1.00  0.00    -0.062 A 
HETATM   14  C   UNL     1      42.047  -8.138  14.546  1.00  0.00     0.048 C 
HETATM   15  C   UNL     1      43.362  -8.076  12.402  1.00  0.00     0.009 A 
HETATM   16  C   UNL     1      43.923  -8.701  11.283  1.00  0.00     0.037 A 
ENDBRANCH   9  10
ENDBRANCH   8   9
ENDBRANCH   6   8
ENDBRANCH   1   2
BRANCH   1  17
HETATM   17  C   UNL     1      42.348 -12.889   5.552  1.00  0.00     0.185 C 
BRANCH  17  18
HETATM   18  C   UNL     1      42.122 -14.320   5.070  1.00  0.00     0.231 C 
HETATM   19  N   UNL     1      43.241 -14.996   4.630  1.00  0.00    -0.327 N 
HETATM   20  H   UNL     1      44.085 -14.438   4.567  1.00  0.00     0.169 HD
HETATM   21  O   UNL     1      40.989 -14.798   5.148  1.00  0.00    -0.272 OA
BRANCH  19  22
HETATM   22  C   UNL     1      43.321 -16.298   4.102  1.00  0.00     0.034 A 
HETATM   23  C   UNL     1      42.890 -16.654   2.823  1.00  0.00     0.030 A 
HETATM   24  C   UNL     1      43.023 -17.972   2.365  1.00  0.00     0.019 A 
HETATM   25  C   UNL     1      43.595 -18.949   3.187  1.00  0.00     0.032 A 
HETATM   26  C   UNL     1      44.009 -18.602   4.476  1.00  0.00     0.019 A 
HETATM   27  C   UNL     1      43.877 -17.284   4.927  1.00  0.00     0.030 A 
BRANCH  25  28
HETATM   28  C   UNL     1      43.763 -20.359   2.746  1.00  0.00     0.249 C 
HETATM   29  N   UNL     1      44.056 -21.291   3.703  1.00  0.00    -0.366 N 
HETATM   30  H   UNL     1      43.944 -21.110   4.690  1.00  0.00     0.159 HD
HETATM   31  H   UNL     1      44.055 -22.257   3.400  1.00  0.00     0.159 HD
HETATM   32  O   UNL     1      43.613 -20.689   1.576  1.00  0.00    -0.268 OA
ENDBRANCH  25  28
ENDBRANCH  19  22
ENDBRANCH  17  18
ENDBRANCH   1  17
TORSDOF 8
ENDMDL
MODEL 3
REMARK VINA RESULT:      -8.9      4.528      8.048
REMARK  8 active torsions:
REMARK  status: ('A' for Active; 'I' for Inactive)
REMARK    1  A    between atoms: C_5  and  O_6 
REMARK    2  A    between atoms: O_6  and  C_7 
REMARK    3  A    between atoms: C_7  and  C_8 
REMARK    4  A    between atoms: C_12  and  S_13 
REMARK    5  A    between atoms: S_13  and  C_14 
REMARK    6  A    between atoms: C_14  and  C_15 
REMARK       I    between atoms: C_15  and  N_16 
REMARK    7  A    between atoms: N_16  and  C_17 
REMARK    8  A    between atoms: C_20  and  C_21 
REMARK       I    between atoms: C_21  and  N_22 
ROOT
HETATM    1  S   UNL     1      41.796 -10.771   5.293  1.00  0.00    -0.081 SA
ENDROOT
BRANCH   1   2
HETATM    2  C   UNL     1      41.592 -12.440   5.642  1.00  0.00     0.185 A 
HETATM    3  N   UNL     1      40.374 -13.039   5.664  1.00  0.00    -0.254 N 
HETATM    4  N   UNL     1      40.491 -14.355   5.914  1.00  0.00    -0.155 NA
HETATM    5  H   UNL     1      39.459 -12.628   5.518  1.00  0.00     0.191 HD
HETATM    6  C   UNL     1      41.827 -14.495   5.993  1.00  0.00     0.172 A 
HETATM    7  N   UNL     1      42.532 -13.321   5.859  1.00  0.00    -0.204 NA
BRANCH   6   8
HETATM    8  C   UNL     1      42.512 -15.809   6.207  1.00  0.00     0.258 C 
BRANCH   8   9
HETATM    9  O   UNL     1      43.635 -15.954   5.330  1.00  0.00    -0.344 OA
BRANCH   9  10
HETATM   10  C   UNL     1      43.575 -16.958   4.404  1.00  0.00     0.069 A 
HETATM   11  C   UNL     1      44.162 -18.158   4.811  1.00  0.00     0.037 A 
HETATM   12  C   UNL     1      44.165 -19.273   3.969  1.00  0.00     0.009 A 
HETATM   13  C   UNL     1      43.582 -19.199   2.701  1.00  0.00    -0.062 A 
HETATM   14  C   UNL     1      43.546 -20.402   1.805  1.00  0.00     0.048 C 
HETATM   15  C   UNL     1      42.979 -18.001   2.302  1.00  0.00     0.009 A 
HETATM   16  C   UNL     1      42.980 -16.885   3.145  1.00  0.00     0.037 A 
ENDBRANCH   9  10
ENDBRANCH   8   9
ENDBRANCH   6   8
ENDBRANCH   1   2
BRANCH   1  17
HETATM   17  C   UNL     1      42.234 -10.841   3.529  1.00  0.00     0.185 C 
BRANCH  17  18
HETATM   18  C   UNL     1      41.219 -11.498   2.596  1.00  0.00     0.231 C 
HETATM   19  N   UNL     1      41.738 -12.305   1.606  1.00  0.00    -0.327 N 
HETATM   20  H   UNL     1      42.748 -12.296   1.527  1.00  0.00     0.169 HD
HETATM   21  O   UNL     1      40.018 -11.317   2.808  1.00  0.00    -0.272 OA
BRANCH  19  22
HETATM   22  C   UNL     1      41.047 -13.000   0.596  1.00  0.00     0.034 A 
HETATM   23  C   UNL     1      40.501 -14.275   0.752  1.00  0.00     0.030 A 
HETATM   24  C   UNL     1      39.810 -14.891  -0.300  1.00  0.00     0.019 A 
HETATM   25  C   UNL     1      39.656 -14.231  -1.523  1.00  0.00     0.032 A 
HETATM   26  C   UNL     1      40.218 -12.963  -1.691  1.00  0.00     0.019 A 
HETATM   27  C   UNL     1      40.905 -12.351  -0.637  1.00  0.00     0.030 A 
BRANCH  25  28
HETATM   28  C   UNL     1      38.927 -14.839  -2.668  1.00  0.00     0.249 C 
HETATM   29  N   UNL     1      38.388 -16.082  -2.487  1.00  0.00    -0.366 N 
HETATM   30  H   UNL     1      38.270 -16.496  -1.574  1.00  0.00     0.159 HD
HETATM   31  H   UNL     1      37.803 -16.428  -3.237  1.00  0.00     0.159 HD
HETATM   32  O   UNL     1      38.782 -14.241  -3.727  1.00  0.00    -0.268 OA
ENDBRANCH  25  28
ENDBRANCH  19  22
ENDBRANCH  17  18
ENDBRANCH   1  17
TORSDOF 8
ENDMDL
MODEL 4
REMARK VINA RESULT:      -8.7      4.744      5.941
REMARK  8 active torsions:
REMARK  status: ('A' for Active; 'I' for Inactive)
REMARK    1  A    between atoms: C_5  and  O_6 
REMARK    2  A    between atoms: O_6  and  C_7 
REMARK    3  A    between atoms: C_7  and  C_8 
REMARK    4  A    between atoms: C_12  and  S_13 
REMARK    5  A    between atoms: S_13  and  C_14 
REMARK    6  A    between atoms: C_14  and  C_15 
REMARK       I    between atoms: C_15  and  N_16 
REMARK    7  A    between atoms: N_16  and  C_17 
REMARK    8  A    between atoms: C_20  and  C_21 
REMARK       I    between atoms: C_21  and  N_22 
ROOT
HETATM    1  S   UNL     1      38.557 -11.028   1.084  1.00  0.00    -0.081 SA
ENDROOT
BRANCH   1   2
HETATM    2  C   UNL     1      38.764 -10.893   2.784  1.00  0.00     0.185 A 
HETATM    3  N   UNL     1      38.132  -9.948   3.524  1.00  0.00    -0.254 N 
HETATM    4  N   UNL     1      38.425 -10.087   4.830  1.00  0.00    -0.155 NA
HETATM    5  H   UNL     1      37.508  -9.209   3.219  1.00  0.00     0.191 HD
HETATM    6  C   UNL     1      39.216 -11.174   4.813  1.00  0.00     0.172 A 
HETATM    7  N   UNL     1      39.467 -11.677   3.556  1.00  0.00    -0.204 NA
BRANCH   6   8
HETATM    8  C   UNL     1      39.786 -11.805   6.045  1.00  0.00     0.258 C 
BRANCH   8   9
HETATM    9  O   UNL     1      39.468 -13.200   6.104  1.00  0.00    -0.344 OA
BRANCH   9  10
HETATM   10  C   UNL     1      40.515 -14.079   6.079  1.00  0.00     0.069 A 
HETATM   11  C   UNL     1      41.725 -13.528   5.650  1.00  0.00     0.037 A 
HETATM   12  C   UNL     1      42.881 -14.309   5.584  1.00  0.00     0.009 A 
HETATM   13  C   UNL     1      42.842 -15.659   5.944  1.00  0.00    -0.062 A 
HETATM   14  C   UNL     1      44.086 -16.495   5.913  1.00  0.00     0.048 C 
HETATM   15  C   UNL     1      41.632 -16.204   6.389  1.00  0.00     0.009 A 
HETATM   16  C   UNL     1      40.474 -15.422   6.451  1.00  0.00     0.037 A 
ENDBRANCH   9  10
ENDBRANCH   8   9
ENDBRANCH   6   8
ENDBRANCH   1   2
BRANCH   1  17
HETATM   17  C   UNL     1      40.260 -11.391   0.559  1.00  0.00     0.185 C 
BRANCH  17  18
HETATM   18  C   UNL     1      40.677 -12.860   0.552  1.00  0.00     0.231 C 
HETATM   19  N   UNL     1      41.197 -13.349   1.732  1.00  0.00    -0.327 N 
HETATM   20  H   UNL     1      41.353 -12.657   2.455  1.00  0.00     0.169 HD
HETATM   21  O   UNL     1      40.481 -13.525  -0.467  1.00  0.00    -0.272 OA
BRANCH  19  22
HETATM   22  C   UNL     1      41.690 -14.640   1.999  1.00  0.00     0.034 A 
HETATM   23  C   UNL     1      40.923 -15.678   2.532  1.00  0.00     0.030 A 
HETATM   24  C   UNL     1      41.486 -16.943   2.750  1.00  0.00     0.019 A 
HETATM   25  C   UNL     1      42.827 -17.182   2.432  1.00  0.00     0.032 A 
HETATM   26  C   UNL     1      43.603 -16.141   1.917  1.00  0.00     0.019 A 
HETATM   27  C   UNL     1      43.036 -14.881   1.698  1.00  0.00     0.030 A 
BRANCH  25  28
HETATM   28  C   UNL     1      43.469 -18.507   2.640  1.00  0.00     0.249 C 
HETATM   29  N   UNL     1      42.900 -19.589   2.030  1.00  0.00    -0.366 N 
HETATM   30  H   UNL     1      42.221 -19.500   1.288  1.00  0.00     0.159 HD
HETATM   31  H   UNL     1      43.415 -20.459   2.092  1.00  0.00     0.159 HD
HETATM   32  O   UNL     1      44.491 -18.628   3.305  1.00  0.00    -0.268 OA
ENDBRANCH  25  28
ENDBRANCH  19  22
ENDBRANCH  17  18
ENDBRANCH   1  17
TORSDOF 8
ENDMDL
MODEL 5
REMARK VINA RESULT:      -8.6      3.169     11.181
REMARK  8 active torsions:
REMARK  status: ('A' for Active; 'I' for Inactive)
REMARK    1  A    between atoms: C_5  and  O_6 
REMARK    2  A    between atoms: O_6  and  C_7 
REMARK    3  A    between atoms: C_7  and  C_8 
REMARK    4  A    between atoms: C_12  and  S_13 
REMARK    5  A    between atoms: S_13  and  C_14 
REMARK    6  A    between atoms: C_14  and  C_15 
REMARK       I    between atoms: C_15  and  N_16 
REMARK    7  A    between atoms: N_16  and  C_17 
REMARK    8  A    between atoms: C_20  and  C_21 
REMARK       I    between atoms: C_21  and  N_22 
ROOT
HETATM    1  S   UNL     1      42.788 -10.446   7.159  1.00  0.00    -0.081 SA
ENDROOT
BRANCH   1   2
HETATM    2  C   UNL     1      42.910 -11.481   5.794  1.00  0.00     0.185 A 
HETATM    3  N   UNL     1      43.640 -11.159   4.696  1.00  0.00    -0.254 N 
HETATM    4  N   UNL     1      43.610 -12.155   3.792  1.00  0.00    -0.155 NA
HETATM    5  H   UNL     1      44.167 -10.315   4.505  1.00  0.00     0.191 HD
HETATM    6  C   UNL     1      42.869 -13.077   4.433  1.00  0.00     0.172 A 
HETATM    7  N   UNL     1      42.396 -12.674   5.661  1.00  0.00    -0.204 NA
BRANCH   6   8
HETATM    8  C   UNL     1      42.570 -14.434   3.877  1.00  0.00     0.258 C 
BRANCH   8   9
HETATM    9  O   UNL     1      43.143 -15.463   4.692  1.00  0.00    -0.344 OA
BRANCH   9  10
HETATM   10  C   UNL     1      43.344 -16.682   4.106  1.00  0.00     0.069 A 
HETATM   11  C   UNL     1      42.677 -16.859   2.892  1.00  0.00     0.037 A 
HETATM   12  C   UNL     1      42.801 -18.053   2.177  1.00  0.00     0.009 A 
HETATM   13  C   UNL     1      43.593 -19.092   2.673  1.00  0.00    -0.062 A 
HETATM   14  C   UNL     1      43.763 -20.363   1.894  1.00  0.00     0.048 C 
HETATM   15  C   UNL     1      44.274 -18.906   3.881  1.00  0.00     0.009 A 
HETATM   16  C   UNL     1      44.146 -17.710   4.597  1.00  0.00     0.037 A 
ENDBRANCH   9  10
ENDBRANCH   8   9
ENDBRANCH   6   8
ENDBRANCH   1   2
BRANCH   1  17
HETATM   17  C   UNL     1      44.083 -11.141   8.231  1.00  0.00     0.185 C 
BRANCH  17  18
HETATM   18  C   UNL     1      44.192 -10.561   9.639  1.00  0.00     0.231 C 
HETATM   19  N   UNL     1      43.028 -10.057  10.180  1.00  0.00    -0.327 N 
HETATM   20  H   UNL     1      42.238 -10.022   9.547  1.00  0.00     0.169 HD
HETATM   21  O   UNL     1      45.277 -10.622  10.221  1.00  0.00    -0.272 OA
BRANCH  19  22
HETATM   22  C   UNL     1      42.845  -9.436  11.430  1.00  0.00     0.034 A 
HETATM   23  C   UNL     1      43.502  -8.272  11.832  1.00  0.00     0.030 A 
HETATM   24  C   UNL     1      43.249  -7.706  13.089  1.00  0.00     0.019 A 
HETATM   25  C   UNL     1      42.329  -8.301  13.957  1.00  0.00     0.032 A 
HETATM   26  C   UNL     1      41.683  -9.478  13.568  1.00  0.00     0.019 A 
HETATM   27  C   UNL     1      41.937 -10.038  12.311  1.00  0.00     0.030 A 
BRANCH  25  28
HETATM   28  C   UNL     1      42.021  -7.737  15.298  1.00  0.00     0.249 C 
HETATM   29  N   UNL     1      42.816  -6.724  15.756  1.00  0.00    -0.366 N 
HETATM   30  H   UNL     1      43.439  -6.206  15.153  1.00  0.00     0.159 HD
HETATM   31  H   UNL     1      42.522  -6.280  16.618  1.00  0.00     0.159 HD
HETATM   32  O   UNL     1      41.071  -8.137  15.961  1.00  0.00    -0.268 OA
ENDBRANCH  25  28
ENDBRANCH  19  22
ENDBRANCH  17  18
ENDBRANCH   1  17
TORSDOF 8
ENDMDL
MODEL 6
REMARK VINA RESULT:      -8.5      4.766      8.424
REMARK  8 active torsions:
REMARK  status: ('A' for Active; 'I' for Inactive)
REMARK    1  A    between atoms: C_5  and  O_6 
REMARK    2  A    between atoms: O_6  and  C_7 
REMARK    3  A    between atoms: C_7  and  C_8 
REMARK    4  A    between atoms: C_12  and  S_13 
REMARK    5  A    between atoms: S_13  and  C_14 
REMARK    6  A    between atoms: C_14  and  C_15 
REMARK       I    between atoms: C_15  and  N_16 
REMARK    7  A    between atoms: N_16  and  C_17 
REMARK    8  A    between atoms: C_20  and  C_21 
REMARK       I    between atoms: C_21  and  N_22 
ROOT
HETATM    1  S   UNL     1      40.233 -10.535   4.596  1.00  0.00    -0.081 SA
ENDROOT
BRANCH   1   2
HETATM    2  C   UNL     1      41.028 -11.972   5.099  1.00  0.00     0.185 A 
HETATM    3  N   UNL     1      41.797 -12.029   6.216  1.00  0.00    -0.254 N 
HETATM    4  N   UNL     1      42.265 -13.275   6.413  1.00  0.00    -0.155 NA
HETATM    5  H   UNL     1      42.033 -11.289   6.867  1.00  0.00     0.191 HD
HETATM    6  C   UNL     1      41.699 -13.939   5.389  1.00  0.00     0.172 A 
HETATM    7  N   UNL     1      40.952 -13.151   4.542  1.00  0.00    -0.204 NA
BRANCH   6   8
HETATM    8  C   UNL     1      41.853 -15.411   5.169  1.00  0.00     0.258 C 
BRANCH   8   9
HETATM    9  O   UNL     1      43.176 -15.731   4.724  1.00  0.00    -0.344 OA
BRANCH   9  10
HETATM   10  C   UNL     1      43.350 -16.935   4.101  1.00  0.00     0.069 A 
HETATM   11  C   UNL     1      42.674 -17.062   2.885  1.00  0.00     0.037 A 
HETATM   12  C   UNL     1      42.770 -18.237   2.134  1.00  0.00     0.009 A 
HETATM   13  C   UNL     1      43.543 -19.306   2.595  1.00  0.00    -0.062 A 
HETATM   14  C   UNL     1      43.683 -20.556   1.777  1.00  0.00     0.048 C 
HETATM   15  C   UNL     1      44.233 -19.170   3.804  1.00  0.00     0.009 A 
HETATM   16  C   UNL     1      44.133 -17.995   4.557  1.00  0.00     0.037 A 
ENDBRANCH   9  10
ENDBRANCH   8   9
ENDBRANCH   6   8
ENDBRANCH   1   2
BRANCH   1  17
HETATM   17  C   UNL     1      41.334  -9.987   3.255  1.00  0.00     0.185 C 
BRANCH  17  18
HETATM   18  C   UNL     1      41.187 -10.700   1.912  1.00  0.00     0.231 C 
HETATM   19  N   UNL     1      40.036 -11.441   1.741  1.00  0.00    -0.327 N 
HETATM   20  H   UNL     1      39.453 -11.529   2.565  1.00  0.00     0.169 HD
HETATM   21  O   UNL     1      42.058 -10.534   1.057  1.00  0.00    -0.272 OA
BRANCH  19  22
HETATM   22  C   UNL     1      39.659 -12.221   0.633  1.00  0.00     0.034 A 
HETATM   23  C   UNL     1      38.818 -11.777  -0.390  1.00  0.00     0.030 A 
HETATM   24  C   UNL     1      38.505 -12.612  -1.472  1.00  0.00     0.019 A 
HETATM   25  C   UNL     1      39.036 -13.904  -1.541  1.00  0.00     0.032 A 
HETATM   26  C   UNL     1      39.861 -14.360  -0.509  1.00  0.00     0.019 A 
HETATM   27  C   UNL     1      40.173 -13.523   0.567  1.00  0.00     0.030 A 
BRANCH  25  28
HETATM   28  C   UNL     1      38.738 -14.826  -2.669  1.00  0.00     0.249 C 
HETATM   29  N   UNL     1      38.477 -16.133  -2.366  1.00  0.00    -0.366 N 
HETATM   30  H   UNL     1      38.260 -16.441  -1.429  1.00  0.00     0.159 HD
HETATM   31  H   UNL     1      38.168 -16.715  -3.134  1.00  0.00     0.159 HD
HETATM   32  O   UNL     1      38.695 -14.430  -3.827  1.00  0.00    -0.268 OA
ENDBRANCH  25  28
ENDBRANCH  19  22
ENDBRANCH  17  18
ENDBRANCH   1  17
TORSDOF 8
ENDMDL
MODEL 7
REMARK VINA RESULT:      -8.5      2.868     10.836
REMARK  8 active torsions:
REMARK  status: ('A' for Active; 'I' for Inactive)
REMARK    1  A    between atoms: C_5  and  O_6 
REMARK    2  A    between atoms: O_6  and  C_7 
REMARK    3  A    between atoms: C_7  and  C_8 
REMARK    4  A    between atoms: C_12  and  S_13 
REMARK    5  A    between atoms: S_13  and  C_14 
REMARK    6  A    between atoms: C_14  and  C_15 
REMARK       I    between atoms: C_15  and  N_16 
REMARK    7  A    between atoms: N_16  and  C_17 
REMARK    8  A    between atoms: C_20  and  C_21 
REMARK       I    between atoms: C_21  and  N_22 
ROOT
HETATM    1  S   UNL     1      43.428 -11.711   6.082  1.00  0.00    -0.081 SA
ENDROOT
BRANCH   1   2
HETATM    2  C   UNL     1      42.792 -13.278   6.381  1.00  0.00     0.185 A 
HETATM    3  N   UNL     1      41.459 -13.529   6.427  1.00  0.00    -0.254 N 
HETATM    4  N   UNL     1      41.224 -14.838   6.628  1.00  0.00    -0.155 NA
HETATM    5  H   UNL     1      40.684 -12.883   6.329  1.00  0.00     0.191 HD
HETATM    6  C   UNL     1      42.475 -15.334   6.653  1.00  0.00     0.172 A 
HETATM    7  N   UNL     1      43.466 -14.386   6.533  1.00  0.00    -0.204 NA
BRANCH   6   8
HETATM    8  C   UNL     1      42.787 -16.791   6.798  1.00  0.00     0.258 C 
BRANCH   8   9
HETATM    9  O   UNL     1      43.996 -17.130   6.108  1.00  0.00    -0.344 OA
BRANCH   9  10
HETATM   10  C   UNL     1      43.899 -18.041   5.094  1.00  0.00     0.069 A 
HETATM   11  C   UNL     1      43.607 -17.490   3.845  1.00  0.00     0.037 A 
HETATM   12  C   UNL     1      43.490 -18.304   2.715  1.00  0.00     0.009 A 
HETATM   13  C   UNL     1      43.659 -19.688   2.823  1.00  0.00    -0.062 A 
HETATM   14  C   UNL     1      43.572 -20.565   1.610  1.00  0.00     0.048 C 
HETATM   15  C   UNL     1      43.967 -20.235   4.073  1.00  0.00     0.009 A 
HETATM   16  C   UNL     1      44.081 -19.419   5.204  1.00  0.00     0.037 A 
ENDBRANCH   9  10
ENDBRANCH   8   9
ENDBRANCH   6   8
ENDBRANCH   1   2
BRANCH   1  17
HETATM   17  C   UNL     1      44.899 -11.729   7.152  1.00  0.00     0.185 C 
BRANCH  17  18
HETATM   18  C   UNL     1      44.898 -10.765   8.337  1.00  0.00     0.231 C 
HETATM   19  N   UNL     1      43.819 -10.855   9.190  1.00  0.00    -0.327 N 
HETATM   20  H   UNL     1      43.078 -11.476   8.887  1.00  0.00     0.169 HD
HETATM   21  O   UNL     1      45.864 -10.016   8.489  1.00  0.00    -0.272 OA
BRANCH  19  22
HETATM   22  C   UNL     1      43.541 -10.076  10.329  1.00  0.00     0.034 A 
HETATM   23  C   UNL     1      43.447  -8.683  10.323  1.00  0.00     0.030 A 
HETATM   24  C   UNL     1      43.148  -7.981  11.499  1.00  0.00     0.019 A 
HETATM   25  C   UNL     1      42.936  -8.672  12.697  1.00  0.00     0.032 A 
HETATM   26  C   UNL     1      43.049 -10.065  12.712  1.00  0.00     0.019 A 
HETATM   27  C   UNL     1      43.345 -10.761  11.535  1.00  0.00     0.030 A 
BRANCH  25  28
HETATM   28  C   UNL     1      42.611  -7.975  13.969  1.00  0.00     0.249 C 
HETATM   29  N   UNL     1      43.021  -6.678  14.104  1.00  0.00    -0.366 N 
HETATM   30  H   UNL     1      43.323  -6.119  13.318  1.00  0.00     0.159 HD
HETATM   31  H   UNL     1      42.693  -6.189  14.927  1.00  0.00     0.159 HD
HETATM   32  O   UNL     1      41.971  -8.525  14.858  1.00  0.00    -0.268 OA
ENDBRANCH  25  28
ENDBRANCH  19  22
ENDBRANCH  17  18
ENDBRANCH   1  17
TORSDOF 8
ENDMDL
MODEL 8
REMARK VINA RESULT:      -8.1      1.860      2.748
REMARK  8 active torsions:
REMARK  status: ('A' for Active; 'I' for Inactive)
REMARK    1  A    between atoms: C_5  and  O_6 
REMARK    2  A    between atoms: O_6  and  C_7 
REMARK    3  A    between atoms: C_7  and  C_8 
REMARK    4  A    between atoms: C_12  and  S_13 
REMARK    5  A    between atoms: S_13  and  C_14 
REMARK    6  A    between atoms: C_14  and  C_15 
REMARK       I    between atoms: C_15  and  N_16 
REMARK    7  A    between atoms: N_16  and  C_17 
REMARK    8  A    between atoms: C_20  and  C_21 
REMARK       I    between atoms: C_21  and  N_22 
ROOT
HETATM    1  S   UNL     1      43.862 -12.002   5.453  1.00  0.00    -0.081 SA
ENDROOT
BRANCH   1   2
HETATM    2  C   UNL     1      43.544 -10.977   6.794  1.00  0.00     0.185 A 
HETATM    3  N   UNL     1      42.788  -9.854   6.691  1.00  0.00    -0.254 N 
HETATM    4  N   UNL     1      42.651  -9.257   7.889  1.00  0.00    -0.155 NA
HETATM    5  H   UNL     1      42.347  -9.454   5.871  1.00  0.00     0.191 HD
HETATM    6  C   UNL     1      43.324 -10.104   8.689  1.00  0.00     0.172 A 
HETATM    7  N   UNL     1      43.913 -11.162   8.033  1.00  0.00    -0.204 NA
BRANCH   6   8
HETATM    8  C   UNL     1      43.436  -9.933  10.172  1.00  0.00     0.258 C 
BRANCH   8   9
HETATM    9  O   UNL     1      42.818  -8.714  10.599  1.00  0.00    -0.344 OA
BRANCH   9  10
HETATM   10  C   UNL     1      42.401  -8.650  11.899  1.00  0.00     0.069 A 
HETATM   11  C   UNL     1      43.148  -7.789  12.706  1.00  0.00     0.037 A 
HETATM   12  C   UNL     1      42.827  -7.617  14.055  1.00  0.00     0.009 A 
HETATM   13  C   UNL     1      41.753  -8.311  14.618  1.00  0.00    -0.062 A 
HETATM   14  C   UNL     1      41.377  -8.104  16.055  1.00  0.00     0.048 C 
HETATM   15  C   UNL     1      40.995  -9.160  13.803  1.00  0.00     0.009 A 
HETATM   16  C   UNL     1      41.320  -9.333  12.453  1.00  0.00     0.037 A 
ENDBRANCH   9  10
ENDBRANCH   8   9
ENDBRANCH   6   8
ENDBRANCH   1   2
BRANCH   1  17
HETATM   17  C   UNL     1      42.290 -12.909   5.335  1.00  0.00     0.185 C 
BRANCH  17  18
HETATM   18  C   UNL     1      42.378 -14.432   5.284  1.00  0.00     0.231 C 
HETATM   19  N   UNL     1      43.126 -14.963   4.254  1.00  0.00    -0.327 N 
HETATM   20  H   UNL     1      43.453 -14.292   3.568  1.00  0.00     0.169 HD
HETATM   21  O   UNL     1      41.834 -15.085   6.176  1.00  0.00    -0.272 OA
BRANCH  19  22
HETATM   22  C   UNL     1      43.347 -16.318   3.946  1.00  0.00     0.034 A 
HETATM   23  C   UNL     1      44.084 -17.194   4.745  1.00  0.00     0.030 A 
HETATM   24  C   UNL     1      44.242 -18.537   4.375  1.00  0.00     0.019 A 
HETATM   25  C   UNL     1      43.659 -19.017   3.198  1.00  0.00     0.032 A 
HETATM   26  C   UNL     1      42.938 -18.139   2.385  1.00  0.00     0.019 A 
HETATM   27  C   UNL     1      42.780 -16.800   2.759  1.00  0.00     0.030 A 
BRANCH  25  28
HETATM   28  C   UNL     1      43.793 -20.433   2.765  1.00  0.00     0.249 C 
HETATM   29  N   UNL     1      44.091 -21.363   3.722  1.00  0.00    -0.366 N 
HETATM   30  H   UNL     1      44.005 -21.173   4.710  1.00  0.00     0.159 HD
HETATM   31  H   UNL     1      44.067 -22.331   3.427  1.00  0.00     0.159 HD
HETATM   32  O   UNL     1      43.611 -20.769   1.601  1.00  0.00    -0.268 OA
ENDBRANCH  25  28
ENDBRANCH  19  22
ENDBRANCH  17  18
ENDBRANCH   1  17
TORSDOF 8
ENDMDL
MODEL 9
REMARK VINA RESULT:      -7.8      3.976      8.021
REMARK  8 active torsions:
REMARK  status: ('A' for Active; 'I' for Inactive)
REMARK    1  A    between atoms: C_5  and  O_6 
REMARK    2  A    between atoms: O_6  and  C_7 
REMARK    3  A    between atoms: C_7  and  C_8 
REMARK    4  A    between atoms: C_12  and  S_13 
REMARK    5  A    between atoms: S_13  and  C_14 
REMARK    6  A    between atoms: C_14  and  C_15 
REMARK       I    between atoms: C_15  and  N_16 
REMARK    7  A    between atoms: N_16  and  C_17 
REMARK    8  A    between atoms: C_20  and  C_21 
REMARK       I    between atoms: C_21  and  N_22 
ROOT
HETATM    1  S   UNL     1      41.953 -10.177   6.053  1.00  0.00    -0.081 SA
ENDROOT
BRANCH   1   2
HETATM    2  C   UNL     1      42.690 -11.700   6.353  1.00  0.00     0.185 A 
HETATM    3  N   UNL     1      43.461 -11.936   7.445  1.00  0.00    -0.254 N 
HETATM    4  N   UNL     1      43.878 -13.215   7.469  1.00  0.00    -0.155 NA
HETATM    5  H   UNL     1      43.729 -11.299   8.187  1.00  0.00     0.191 HD
HETATM    6  C   UNL     1      43.282 -13.712   6.371  1.00  0.00     0.172 A 
HETATM    7  N   UNL     1      42.565 -12.789   5.644  1.00  0.00    -0.204 NA
BRANCH   6   8
HETATM    8  C   UNL     1      43.375 -15.147   5.954  1.00  0.00     0.258 C 
BRANCH   8   9
HETATM    9  O   UNL     1      43.166 -15.289   4.544  1.00  0.00    -0.344 OA
BRANCH   9  10
HETATM   10  C   UNL     1      43.328 -16.539   4.014  1.00  0.00     0.069 A 
HETATM   11  C   UNL     1      42.707 -16.730   2.778  1.00  0.00     0.037 A 
HETATM   12  C   UNL     1      42.798 -17.956   2.115  1.00  0.00     0.009 A 
HETATM   13  C   UNL     1      43.513 -19.013   2.684  1.00  0.00    -0.062 A 
HETATM   14  C   UNL     1      43.649 -20.320   1.962  1.00  0.00     0.048 C 
HETATM   15  C   UNL     1      44.149 -18.814   3.914  1.00  0.00     0.009 A 
HETATM   16  C   UNL     1      44.053 -17.587   4.579  1.00  0.00     0.037 A 
ENDBRANCH   9  10
ENDBRANCH   8   9
ENDBRANCH   6   8
ENDBRANCH   1   2
BRANCH   1  17
HETATM   17  C   UNL     1      40.430 -10.696   5.205  1.00  0.00     0.185 C 
BRANCH  17  18
HETATM   18  C   UNL     1      40.530 -10.934   3.700  1.00  0.00     0.231 C 
HETATM   19  N   UNL     1      39.763 -11.964   3.196  1.00  0.00    -0.327 N 
HETATM   20  H   UNL     1      39.293 -12.532   3.891  1.00  0.00     0.169 HD
HETATM   21  O   UNL     1      41.232 -10.176   3.028  1.00  0.00    -0.272 OA
BRANCH  19  22
HETATM   22  C   UNL     1      39.687 -12.425   1.869  1.00  0.00     0.034 A 
HETATM   23  C   UNL     1      38.793 -11.932   0.917  1.00  0.00     0.030 A 
HETATM   24  C   UNL     1      38.794 -12.434  -0.392  1.00  0.00     0.019 A 
HETATM   25  C   UNL     1      39.697 -13.435  -0.762  1.00  0.00     0.032 A 
HETATM   26  C   UNL     1      40.580 -13.946   0.193  1.00  0.00     0.019 A 
HETATM   27  C   UNL     1      40.578 -13.441   1.497  1.00  0.00     0.030 A 
BRANCH  25  28
HETATM   28  C   UNL     1      39.741 -13.997  -2.138  1.00  0.00     0.249 C 
HETATM   29  N   UNL     1      40.935 -13.949  -2.803  1.00  0.00    -0.366 N 
HETATM   30  H   UNL     1      41.810 -13.763  -2.336  1.00  0.00     0.159 HD
HETATM   31  H   UNL     1      40.971 -14.435  -3.690  1.00  0.00     0.159 HD
HETATM   32  O   UNL     1      38.758 -14.515  -2.653  1.00  0.00    -0.268 OA
ENDBRANCH  25  28
ENDBRANCH  19  22
ENDBRANCH  17  18
ENDBRANCH   1  17
TORSDOF 8
ENDMDL
MODEL 10
REMARK VINA RESULT:      -7.8      4.946      6.385
REMARK  8 active torsions:
REMARK  status: ('A' for Active; 'I' for Inactive)
REMARK    1  A    between atoms: C_5  and  O_6 
REMARK    2  A    between atoms: O_6  and  C_7 
REMARK    3  A    between atoms: C_7  and  C_8 
REMARK    4  A    between atoms: C_12  and  S_13 
REMARK    5  A    between atoms: S_13  and  C_14 
REMARK    6  A    between atoms: C_14  and  C_15 
REMARK       I    between atoms: C_15  and  N_16 
REMARK    7  A    between atoms: N_16  and  C_17 
REMARK    8  A    between atoms: C_20  and  C_21 
REMARK       I    between atoms: C_21  and  N_22 
ROOT
HETATM    1  S   UNL     1      38.548 -12.441  -1.927  1.00  0.00    -0.081 SA
ENDROOT
BRANCH   1   2
HETATM    2  C   UNL     1      38.408 -11.828  -0.329  1.00  0.00     0.185 A 
HETATM    3  N   UNL     1      37.209 -11.645   0.281  1.00  0.00    -0.254 N 
HETATM    4  N   UNL     1      37.374 -11.202   1.540  1.00  0.00    -0.155 NA
HETATM    5  H   UNL     1      36.276 -11.801  -0.085  1.00  0.00     0.191 HD
HETATM    6  C   UNL     1      38.715 -11.178   1.642  1.00  0.00     0.172 A 
HETATM    7  N   UNL     1      39.381 -11.531   0.490  1.00  0.00    -0.204 NA
BRANCH   6   8
HETATM    8  C   UNL     1      39.445 -10.803   2.894  1.00  0.00     0.258 C 
BRANCH   8   9
HETATM    9  O   UNL     1      40.862 -10.822   2.689  1.00  0.00    -0.344 OA
BRANCH   9  10
HETATM   10  C   UNL     1      41.606 -11.577   3.553  1.00  0.00     0.069 A 
HETATM   11  C   UNL     1      40.918 -12.003   4.691  1.00  0.00     0.037 A 
HETATM   12  C   UNL     1      41.551 -12.791   5.655  1.00  0.00     0.009 A 
HETATM   13  C   UNL     1      42.890 -13.161   5.495  1.00  0.00    -0.062 A 
HETATM   14  C   UNL     1      43.566 -14.039   6.505  1.00  0.00     0.048 C 
HETATM   15  C   UNL     1      43.572 -12.746   4.346  1.00  0.00     0.009 A 
HETATM   16  C   UNL     1      42.937 -11.954   3.383  1.00  0.00     0.037 A 
ENDBRANCH   9  10
ENDBRANCH   8   9
ENDBRANCH   6   8
ENDBRANCH   1   2
BRANCH   1  17
HETATM   17  C   UNL     1      40.105 -13.373  -1.800  1.00  0.00     0.185 C 
BRANCH  17  18
HETATM   18  C   UNL     1      40.216 -14.368  -0.648  1.00  0.00     0.231 C 
HETATM   19  N   UNL     1      41.148 -14.070   0.325  1.00  0.00    -0.327 N 
HETATM   20  H   UNL     1      41.744 -13.276   0.122  1.00  0.00     0.169 HD
HETATM   21  O   UNL     1      39.449 -15.332  -0.623  1.00  0.00    -0.272 OA
BRANCH  19  22
HETATM   22  C   UNL     1      41.485 -14.818   1.468  1.00  0.00     0.034 A 
HETATM   23  C   UNL     1      40.614 -15.064   2.530  1.00  0.00     0.030 A 
HETATM   24  C   UNL     1      41.022 -15.837   3.626  1.00  0.00     0.019 A 
HETATM   25  C   UNL     1      42.312 -16.375   3.666  1.00  0.00     0.032 A 
HETATM   26  C   UNL     1      43.195 -16.115   2.614  1.00  0.00     0.019 A 
HETATM   27  C   UNL     1      42.782 -15.345   1.522  1.00  0.00     0.030 A 
BRANCH  25  28
HETATM   28  C   UNL     1      42.792 -17.205   4.802  1.00  0.00     0.249 C 
HETATM   29  N   UNL     1      43.921 -17.951   4.610  1.00  0.00    -0.366 N 
HETATM   30  H   UNL     1      44.550 -17.796   3.835  1.00  0.00     0.159 HD
HETATM   31  H   UNL     1      44.292 -18.419   5.427  1.00  0.00     0.159 HD
HETATM   32  O   UNL     1      42.221 -17.202   5.887  1.00  0.00    -0.268 OA
ENDBRANCH  25  28
ENDBRANCH  19  22
ENDBRANCH  17  18
ENDBRANCH   1  17
TORSDOF 8
ENDMDL
