MODEL 1
REMARK VINA RESULT:      -8.0      0.000      0.000
REMARK  4 active torsions:
REMARK  status: ('A' for Active; 'I' for Inactive)
REMARK    1  A    between atoms: C_3  and  N_4 
REMARK       I    between atoms: N_4  and  C_5 
REMARK    2  A    between atoms: C_5  and  C_6 
REMARK    3  A    between atoms: C_6  and  C_7 
REMARK    4  A    between atoms: C_10  and  O_11 
ROOT
HETATM    1  N   UNL     1      41.586 -15.964   5.833  1.00  0.00    -0.326 N 
HETATM    2  C   UNL     1      42.927 -16.036   6.179  1.00  0.00     0.226 C 
HETATM    3  O   UNL     1      43.771 -15.157   6.033  1.00  0.00    -0.273 OA
HETATM    4  H   UNL     1      41.034 -16.773   6.073  1.00  0.00     0.169 HD
ENDROOT
BRANCH   1   5
HETATM    5  C   UNL     1      40.897 -14.886   5.210  1.00  0.00     0.047 A 
HETATM    6  C   UNL     1      40.437 -13.792   5.951  1.00  0.00     0.030 A 
HETATM    7  C   UNL     1      39.766 -12.743   5.330  1.00  0.00     0.005 A 
HETATM    8  C   UNL     1      39.552 -12.777   3.958  1.00  0.00     0.032 A 
HETATM    9  C   UNL     1      39.989 -13.834   3.180  1.00  0.00     0.069 A 
HETATM   10  C   UNL     1      40.671 -14.914   3.794  1.00  0.00     0.019 A 
HETATM   11  N   UNL     1      39.738 -13.766   1.861  1.00  0.00    -0.260 NA
HETATM   12  C   UNL     1      41.086 -15.947   2.917  1.00  0.00     0.017 A 
HETATM   13  C   UNL     1      40.828 -15.879   1.550  1.00  0.00     0.020 A 
HETATM   14  C   UNL     1      40.156 -14.776   1.075  1.00  0.00     0.117 A 
ENDBRANCH   1   5
BRANCH   2  15
HETATM   15  C   UNL     1      43.311 -17.377   6.789  1.00  0.00     0.141 C 
BRANCH  15  16
HETATM   16  C   UNL     1      43.599 -18.480   5.795  1.00  0.00    -0.049 A 
HETATM   17  C   UNL     1      43.599 -19.813   6.239  1.00  0.00     0.010 A 
HETATM   18  C   UNL     1      43.796 -20.868   5.343  1.00  0.00     0.037 A 
HETATM   19  C   UNL     1      43.987 -20.592   3.995  1.00  0.00     0.065 A 
HETATM   20  C   UNL     1      43.981 -19.283   3.532  1.00  0.00     0.037 A 
HETATM   21  C   UNL     1      43.776 -18.230   4.426  1.00  0.00     0.010 A 
BRANCH  19  22
HETATM   22  O   UNL     1      44.171 -21.587   3.083  1.00  0.00    -0.361 OA
HETATM   23  H   UNL     1      44.727 -22.277   3.483  1.00  0.00     0.217 HD
ENDBRANCH  19  22
ENDBRANCH  15  16
ENDBRANCH   2  15
TORSDOF 4
ENDMDL
MODEL 2
REMARK VINA RESULT:      -7.7      2.510      3.893
REMARK  4 active torsions:
REMARK  status: ('A' for Active; 'I' for Inactive)
REMARK    1  A    between atoms: C_3  and  N_4 
REMARK       I    between atoms: N_4  and  C_5 
REMARK    2  A    between atoms: C_5  and  C_6 
REMARK    3  A    between atoms: C_6  and  C_7 
REMARK    4  A    between atoms: C_10  and  O_11 
ROOT
HETATM    1  N   UNL     1      41.460 -14.893   2.156  1.00  0.00    -0.326 N 
HETATM    2  C   UNL     1      42.763 -15.344   2.306  1.00  0.00     0.226 C 
HETATM    3  O   UNL     1      43.683 -15.208   1.506  1.00  0.00    -0.273 OA
HETATM    4  H   UNL     1      40.852 -15.058   2.944  1.00  0.00     0.169 HD
ENDROOT
BRANCH   1   5
HETATM    5  C   UNL     1      40.890 -14.209   1.046  1.00  0.00     0.047 A 
HETATM    6  C   UNL     1      40.179 -14.896   0.056  1.00  0.00     0.030 A 
HETATM    7  C   UNL     1      39.625 -14.217  -1.024  1.00  0.00     0.005 A 
HETATM    8  C   UNL     1      39.774 -12.838  -1.122  1.00  0.00     0.032 A 
HETATM    9  C   UNL     1      40.464 -12.112  -0.169  1.00  0.00     0.069 A 
HETATM   10  C   UNL     1      41.040 -12.787   0.937  1.00  0.00     0.019 A 
HETATM   11  N   UNL     1      40.544 -10.783  -0.353  1.00  0.00    -0.260 NA
HETATM   12  C   UNL     1      41.722 -11.960   1.864  1.00  0.00     0.017 A 
HETATM   13  C   UNL     1      41.805 -10.582   1.676  1.00  0.00     0.020 A 
HETATM   14  C   UNL     1      41.204 -10.046   0.560  1.00  0.00     0.117 A 
ENDBRANCH   1   5
BRANCH   2  15
HETATM   15  C   UNL     1      42.989 -16.078   3.620  1.00  0.00     0.141 C 
BRANCH  15  16
HETATM   16  C   UNL     1      43.336 -17.544   3.489  1.00  0.00    -0.049 A 
HETATM   17  C   UNL     1      43.891 -18.213   4.594  1.00  0.00     0.010 A 
HETATM   18  C   UNL     1      44.167 -19.582   4.540  1.00  0.00     0.037 A 
HETATM   19  C   UNL     1      43.882 -20.290   3.379  1.00  0.00     0.065 A 
HETATM   20  C   UNL     1      43.325 -19.652   2.279  1.00  0.00     0.037 A 
HETATM   21  C   UNL     1      43.041 -18.286   2.336  1.00  0.00     0.010 A 
BRANCH  19  22
HETATM   22  O   UNL     1      44.123 -21.628   3.283  1.00  0.00    -0.361 OA
HETATM   23  H   UNL     1      45.043 -21.798   3.545  1.00  0.00     0.217 HD
ENDBRANCH  19  22
ENDBRANCH  15  16
ENDBRANCH   2  15
TORSDOF 4
ENDMDL
MODEL 3
REMARK VINA RESULT:      -7.7      2.752      4.024
REMARK  4 active torsions:
REMARK  status: ('A' for Active; 'I' for Inactive)
REMARK    1  A    between atoms: C_3  and  N_4 
REMARK       I    between atoms: N_4  and  C_5 
REMARK    2  A    between atoms: C_5  and  C_6 
REMARK    3  A    between atoms: C_6  and  C_7 
REMARK    4  A    between atoms: C_10  and  O_11 
ROOT
HETATM    1  N   UNL     1      42.165 -14.853   2.918  1.00  0.00    -0.326 N 
HETATM    2  C   UNL     1      42.916 -15.671   2.088  1.00  0.00     0.226 C 
HETATM    3  O   UNL     1      43.952 -15.370   1.502  1.00  0.00    -0.273 OA
HETATM    4  H   UNL     1      41.366 -15.293   3.350  1.00  0.00     0.169 HD
ENDROOT
BRANCH   1   5
HETATM    5  C   UNL     1      42.398 -13.490   3.252  1.00  0.00     0.047 A 
HETATM    6  C   UNL     1      42.139 -12.463   2.338  1.00  0.00     0.030 A 
HETATM    7  C   UNL     1      42.369 -11.133   2.676  1.00  0.00     0.005 A 
HETATM    8  C   UNL     1      42.859 -10.817   3.938  1.00  0.00     0.032 A 
HETATM    9  C   UNL     1      43.128 -11.794   4.878  1.00  0.00     0.069 A 
HETATM   10  C   UNL     1      42.904 -13.155   4.551  1.00  0.00     0.019 A 
HETATM   11  N   UNL     1      43.592 -11.382   6.071  1.00  0.00    -0.260 NA
HETATM   12  C   UNL     1      43.203 -14.083   5.580  1.00  0.00     0.017 A 
HETATM   13  C   UNL     1      43.683 -13.659   6.817  1.00  0.00     0.020 A 
HETATM   14  C   UNL     1      43.859 -12.308   7.011  1.00  0.00     0.117 A 
ENDBRANCH   1   5
BRANCH   2  15
HETATM   15  C   UNL     1      42.324 -17.065   1.934  1.00  0.00     0.141 C 
BRANCH  15  16
HETATM   16  C   UNL     1      43.022 -18.153   2.719  1.00  0.00    -0.049 A 
HETATM   17  C   UNL     1      43.493 -17.865   4.011  1.00  0.00     0.010 A 
HETATM   18  C   UNL     1      44.085 -18.858   4.797  1.00  0.00     0.037 A 
HETATM   19  C   UNL     1      44.202 -20.148   4.294  1.00  0.00     0.065 A 
HETATM   20  C   UNL     1      43.735 -20.457   3.023  1.00  0.00     0.037 A 
HETATM   21  C   UNL     1      43.136 -19.468   2.242  1.00  0.00     0.010 A 
BRANCH  19  22
HETATM   22  O   UNL     1      44.763 -21.151   5.026  1.00  0.00    -0.361 OA
HETATM   23  H   UNL     1      44.727 -20.907   5.966  1.00  0.00     0.217 HD
ENDBRANCH  19  22
ENDBRANCH  15  16
ENDBRANCH   2  15
TORSDOF 4
ENDMDL
MODEL 4
REMARK VINA RESULT:      -7.6      2.928      4.396
REMARK  4 active torsions:
REMARK  status: ('A' for Active; 'I' for Inactive)
REMARK    1  A    between atoms: C_3  and  N_4 
REMARK       I    between atoms: N_4  and  C_5 
REMARK    2  A    between atoms: C_5  and  C_6 
REMARK    3  A    between atoms: C_6  and  C_7 
REMARK    4  A    between atoms: C_10  and  O_11 
ROOT
HETATM    1  N   UNL     1      41.486 -14.064   0.619  1.00  0.00    -0.326 N 
HETATM    2  C   UNL     1      41.593 -15.202   1.405  1.00  0.00     0.226 C 
HETATM    3  O   UNL     1      40.691 -15.748   2.033  1.00  0.00    -0.273 OA
HETATM    4  H   UNL     1      42.330 -13.789   0.140  1.00  0.00     0.169 HD
ENDROOT
BRANCH   1   5
HETATM    5  C   UNL     1      40.334 -13.262   0.389  1.00  0.00     0.047 A 
HETATM    6  C   UNL     1      39.977 -12.232   1.268  1.00  0.00     0.030 A 
HETATM    7  C   UNL     1      38.850 -11.453   1.031  1.00  0.00     0.005 A 
HETATM    8  C   UNL     1      38.067 -11.695  -0.091  1.00  0.00     0.032 A 
HETATM    9  C   UNL     1      38.377 -12.697  -0.992  1.00  0.00     0.069 A 
HETATM   10  C   UNL     1      39.521 -13.505  -0.766  1.00  0.00     0.019 A 
HETATM   11  N   UNL     1      37.560 -12.843  -2.049  1.00  0.00    -0.260 NA
HETATM   12  C   UNL     1      39.761 -14.501  -1.745  1.00  0.00     0.017 A 
HETATM   13  C   UNL     1      38.916 -14.654  -2.842  1.00  0.00     0.020 A 
HETATM   14  C   UNL     1      37.837 -13.807  -2.947  1.00  0.00     0.117 A 
ENDBRANCH   1   5
BRANCH   2  15
HETATM   15  C   UNL     1      43.007 -15.764   1.445  1.00  0.00     0.141 C 
BRANCH  15  16
HETATM   16  C   UNL     1      43.261 -16.800   2.518  1.00  0.00    -0.049 A 
HETATM   17  C   UNL     1      43.375 -18.150   2.146  1.00  0.00     0.010 A 
HETATM   18  C   UNL     1      43.674 -19.132   3.094  1.00  0.00     0.037 A 
HETATM   19  C   UNL     1      43.866 -18.765   4.421  1.00  0.00     0.065 A 
HETATM   20  C   UNL     1      43.767 -17.436   4.809  1.00  0.00     0.037 A 
HETATM   21  C   UNL     1      43.477 -16.453   3.860  1.00  0.00     0.010 A 
BRANCH  19  22
HETATM   22  O   UNL     1      44.169 -19.686   5.378  1.00  0.00    -0.361 OA
HETATM   23  H   UNL     1      43.817 -20.549   5.104  1.00  0.00     0.217 HD
ENDBRANCH  19  22
ENDBRANCH  15  16
ENDBRANCH   2  15
TORSDOF 4
ENDMDL
MODEL 5
REMARK VINA RESULT:      -7.6      3.198      6.646
REMARK  4 active torsions:
REMARK  status: ('A' for Active; 'I' for Inactive)
REMARK    1  A    between atoms: C_3  and  N_4 
REMARK       I    between atoms: N_4  and  C_5 
REMARK    2  A    between atoms: C_5  and  C_6 
REMARK    3  A    between atoms: C_6  and  C_7 
REMARK    4  A    between atoms: C_10  and  O_11 
ROOT
HETATM    1  N   UNL     1      41.785 -14.524   3.648  1.00  0.00    -0.326 N 
HETATM    2  C   UNL     1      42.087 -13.470   2.798  1.00  0.00     0.226 C 
HETATM    3  O   UNL     1      43.205 -13.041   2.529  1.00  0.00    -0.273 OA
HETATM    4  H   UNL     1      40.806 -14.763   3.708  1.00  0.00     0.169 HD
ENDROOT
BRANCH   1   5
HETATM    5  C   UNL     1      42.681 -15.316   4.417  1.00  0.00     0.047 A 
HETATM    6  C   UNL     1      43.168 -14.872   5.652  1.00  0.00     0.030 A 
HETATM    7  C   UNL     1      44.043 -15.656   6.396  1.00  0.00     0.005 A 
HETATM    8  C   UNL     1      44.438 -16.897   5.913  1.00  0.00     0.032 A 
HETATM    9  C   UNL     1      43.984 -17.384   4.701  1.00  0.00     0.069 A 
HETATM   10  C   UNL     1      43.095 -16.597   3.925  1.00  0.00     0.019 A 
HETATM   11  N   UNL     1      44.421 -18.599   4.328  1.00  0.00    -0.260 NA
HETATM   12  C   UNL     1      42.679 -17.181   2.702  1.00  0.00     0.017 A 
HETATM   13  C   UNL     1      43.130 -18.440   2.314  1.00  0.00     0.020 A 
HETATM   14  C   UNL     1      43.993 -19.104   3.155  1.00  0.00     0.117 A 
ENDBRANCH   1   5
BRANCH   2  15
HETATM   15  C   UNL     1      40.850 -12.831   2.182  1.00  0.00     0.141 C 
BRANCH  15  16
HETATM   16  C   UNL     1      40.642 -13.114   0.710  1.00  0.00    -0.049 A 
HETATM   17  C   UNL     1      40.036 -14.323   0.329  1.00  0.00     0.010 A 
HETATM   18  C   UNL     1      39.764 -14.597  -1.014  1.00  0.00     0.037 A 
HETATM   19  C   UNL     1      40.093 -13.657  -1.983  1.00  0.00     0.065 A 
HETATM   20  C   UNL     1      40.684 -12.452  -1.628  1.00  0.00     0.037 A 
HETATM   21  C   UNL     1      40.947 -12.174  -0.285  1.00  0.00     0.010 A 
BRANCH  19  22
HETATM   22  O   UNL     1      39.838 -13.875  -3.303  1.00  0.00    -0.361 OA
HETATM   23  H   UNL     1      40.574 -13.515  -3.826  1.00  0.00     0.217 HD
ENDBRANCH  19  22
ENDBRANCH  15  16
ENDBRANCH   2  15
TORSDOF 4
ENDMDL
MODEL 6
REMARK VINA RESULT:      -7.6      3.275      7.242
REMARK  4 active torsions:
REMARK  status: ('A' for Active; 'I' for Inactive)
REMARK    1  A    between atoms: C_3  and  N_4 
REMARK       I    between atoms: N_4  and  C_5 
REMARK    2  A    between atoms: C_5  and  C_6 
REMARK    3  A    between atoms: C_6  and  C_7 
REMARK    4  A    between atoms: C_10  and  O_11 
ROOT
HETATM    1  N   UNL     1      41.680 -15.750   2.635  1.00  0.00    -0.326 N 
HETATM    2  C   UNL     1      42.114 -14.616   1.965  1.00  0.00     0.226 C 
HETATM    3  O   UNL     1      43.269 -14.344   1.655  1.00  0.00    -0.273 OA
HETATM    4  H   UNL     1      40.681 -15.823   2.761  1.00  0.00     0.169 HD
ENDROOT
BRANCH   1   5
HETATM    5  C   UNL     1      42.463 -16.826   3.138  1.00  0.00     0.047 A 
HETATM    6  C   UNL     1      43.006 -17.792   2.283  1.00  0.00     0.030 A 
HETATM    7  C   UNL     1      43.772 -18.838   2.787  1.00  0.00     0.005 A 
HETATM    8  C   UNL     1      44.006 -18.927   4.154  1.00  0.00     0.032 A 
HETATM    9  C   UNL     1      43.494 -17.997   5.040  1.00  0.00     0.069 A 
HETATM   10  C   UNL     1      42.708 -16.926   4.547  1.00  0.00     0.019 A 
HETATM   11  N   UNL     1      43.785 -18.170   6.341  1.00  0.00    -0.260 NA
HETATM   12  C   UNL     1      42.233 -16.020   5.529  1.00  0.00     0.017 A 
HETATM   13  C   UNL     1      42.533 -16.196   6.878  1.00  0.00     0.020 A 
HETATM   14  C   UNL     1      43.307 -17.279   7.230  1.00  0.00     0.117 A 
ENDBRANCH   1   5
BRANCH   2  15
HETATM   15  C   UNL     1      40.980 -13.660   1.622  1.00  0.00     0.141 C 
BRANCH  15  16
HETATM   16  C   UNL     1      40.531 -13.682   0.178  1.00  0.00    -0.049 A 
HETATM   17  C   UNL     1      39.778 -14.775  -0.284  1.00  0.00     0.010 A 
HETATM   18  C   UNL     1      39.287 -14.807  -1.592  1.00  0.00     0.037 A 
HETATM   19  C   UNL     1      39.542 -13.738  -2.443  1.00  0.00     0.065 A 
HETATM   20  C   UNL     1      40.275 -12.643  -2.005  1.00  0.00     0.037 A 
HETATM   21  C   UNL     1      40.758 -12.608  -0.696  1.00  0.00     0.010 A 
BRANCH  19  22
HETATM   22  O   UNL     1      39.075 -13.719  -3.723  1.00  0.00    -0.361 OA
HETATM   23  H   UNL     1      39.371 -14.527  -4.175  1.00  0.00     0.217 HD
ENDBRANCH  19  22
ENDBRANCH  15  16
ENDBRANCH   2  15
TORSDOF 4
ENDMDL
MODEL 7
REMARK VINA RESULT:      -7.5      2.487      3.405
REMARK  4 active torsions:
REMARK  status: ('A' for Active; 'I' for Inactive)
REMARK    1  A    between atoms: C_3  and  N_4 
REMARK       I    between atoms: N_4  and  C_5 
REMARK    2  A    between atoms: C_5  and  C_6 
REMARK    3  A    between atoms: C_6  and  C_7 
REMARK    4  A    between atoms: C_10  and  O_11 
ROOT
HETATM    1  N   UNL     1      41.745 -14.004   2.654  1.00  0.00    -0.326 N 
HETATM    2  C   UNL     1      42.829 -14.870   2.662  1.00  0.00     0.226 C 
HETATM    3  O   UNL     1      43.746 -14.906   1.849  1.00  0.00    -0.273 OA
HETATM    4  H   UNL     1      41.114 -14.095   3.436  1.00  0.00     0.169 HD
ENDROOT
BRANCH   1   5
HETATM    5  C   UNL     1      41.435 -12.996   1.699  1.00  0.00     0.047 A 
HETATM    6  C   UNL     1      41.829 -11.667   1.891  1.00  0.00     0.030 A 
HETATM    7  C   UNL     1      41.521 -10.690   0.950  1.00  0.00     0.005 A 
HETATM    8  C   UNL     1      40.817 -11.035  -0.198  1.00  0.00     0.032 A 
HETATM    9  C   UNL     1      40.408 -12.335  -0.436  1.00  0.00     0.069 A 
HETATM   10  C   UNL     1      40.708 -13.344   0.513  1.00  0.00     0.019 A 
HETATM   11  N   UNL     1      39.740 -12.564  -1.580  1.00  0.00    -0.260 NA
HETATM   12  C   UNL     1      40.254 -14.644   0.180  1.00  0.00     0.017 A 
HETATM   13  C   UNL     1      39.562 -14.885  -1.005  1.00  0.00     0.020 A 
HETATM   14  C   UNL     1      39.332 -13.819  -1.845  1.00  0.00     0.117 A 
ENDBRANCH   1   5
BRANCH   2  15
HETATM   15  C   UNL     1      42.797 -15.849   3.828  1.00  0.00     0.141 C 
BRANCH  15  16
HETATM   16  C   UNL     1      43.169 -17.274   3.486  1.00  0.00    -0.049 A 
HETATM   17  C   UNL     1      43.959 -18.007   4.389  1.00  0.00     0.010 A 
HETATM   18  C   UNL     1      44.272 -19.347   4.144  1.00  0.00     0.037 A 
HETATM   19  C   UNL     1      43.790 -19.962   2.996  1.00  0.00     0.065 A 
HETATM   20  C   UNL     1      43.001 -19.260   2.094  1.00  0.00     0.037 A 
HETATM   21  C   UNL     1      42.680 -17.924   2.343  1.00  0.00     0.010 A 
BRANCH  19  22
HETATM   22  O   UNL     1      44.060 -21.269   2.720  1.00  0.00    -0.361 OA
HETATM   23  H   UNL     1      44.258 -21.728   3.553  1.00  0.00     0.217 HD
ENDBRANCH  19  22
ENDBRANCH  15  16
ENDBRANCH   2  15
TORSDOF 4
ENDMDL
MODEL 8
REMARK VINA RESULT:      -7.5      3.150      7.225
REMARK  4 active torsions:
REMARK  status: ('A' for Active; 'I' for Inactive)
REMARK    1  A    between atoms: C_3  and  N_4 
REMARK       I    between atoms: N_4  and  C_5 
REMARK    2  A    between atoms: C_5  and  C_6 
REMARK    3  A    between atoms: C_6  and  C_7 
REMARK    4  A    between atoms: C_10  and  O_11 
ROOT
HETATM    1  N   UNL     1      42.477 -15.931   2.251  1.00  0.00    -0.326 N 
HETATM    2  C   UNL     1      41.152 -15.558   2.078  1.00  0.00     0.226 C 
HETATM    3  O   UNL     1      40.229 -15.741   2.865  1.00  0.00    -0.273 OA
HETATM    4  H   UNL     1      43.104 -15.653   1.512  1.00  0.00     0.169 HD
ENDROOT
BRANCH   1   5
HETATM    5  C   UNL     1      43.056 -16.629   3.348  1.00  0.00     0.047 A 
HETATM    6  C   UNL     1      43.384 -15.969   4.538  1.00  0.00     0.030 A 
HETATM    7  C   UNL     1      43.948 -16.662   5.603  1.00  0.00     0.005 A 
HETATM    8  C   UNL     1      44.187 -18.026   5.491  1.00  0.00     0.032 A 
HETATM    9  C   UNL     1      43.877 -18.725   4.338  1.00  0.00     0.069 A 
HETATM   10  C   UNL     1      43.306 -18.036   3.239  1.00  0.00     0.019 A 
HETATM   11  N   UNL     1      44.141 -20.044   4.335  1.00  0.00    -0.260 NA
HETATM   12  C   UNL     1      43.018 -18.837   2.105  1.00  0.00     0.017 A 
HETATM   13  C   UNL     1      43.289 -20.203   2.099  1.00  0.00     0.020 A 
HETATM   14  C   UNL     1      43.847 -20.755   3.230  1.00  0.00     0.117 A 
ENDBRANCH   1   5
BRANCH   2  15
HETATM   15  C   UNL     1      40.901 -14.864   0.747  1.00  0.00     0.141 C 
BRANCH  15  16
HETATM   16  C   UNL     1      41.099 -13.364   0.753  1.00  0.00    -0.049 A 
HETATM   17  C   UNL     1      41.673 -12.758   1.884  1.00  0.00     0.010 A 
HETATM   18  C   UNL     1      41.935 -11.386   1.907  1.00  0.00     0.037 A 
HETATM   19  C   UNL     1      41.628 -10.613   0.794  1.00  0.00     0.065 A 
HETATM   20  C   UNL     1      41.069 -11.192  -0.338  1.00  0.00     0.037 A 
HETATM   21  C   UNL     1      40.816 -12.565  -0.365  1.00  0.00     0.010 A 
BRANCH  19  22
HETATM   22  O   UNL     1      41.874  -9.273   0.766  1.00  0.00    -0.361 OA
HETATM   23  H   UNL     1      41.587  -8.921  -0.093  1.00  0.00     0.217 HD
ENDBRANCH  19  22
ENDBRANCH  15  16
ENDBRANCH   2  15
TORSDOF 4
ENDMDL
MODEL 9
REMARK VINA RESULT:      -7.5      1.786      2.720
REMARK  4 active torsions:
REMARK  status: ('A' for Active; 'I' for Inactive)
REMARK    1  A    between atoms: C_3  and  N_4 
REMARK       I    between atoms: N_4  and  C_5 
REMARK    2  A    between atoms: C_5  and  C_6 
REMARK    3  A    between atoms: C_6  and  C_7 
REMARK    4  A    between atoms: C_10  and  O_11 
ROOT
HETATM    1  N   UNL     1      41.293 -15.563   2.927  1.00  0.00    -0.326 N 
HETATM    2  C   UNL     1      42.619 -15.662   2.535  1.00  0.00     0.226 C 
HETATM    3  O   UNL     1      43.504 -14.831   2.719  1.00  0.00    -0.273 OA
HETATM    4  H   UNL     1      40.722 -16.371   2.728  1.00  0.00     0.169 HD
ENDROOT
BRANCH   1   5
HETATM    5  C   UNL     1      40.653 -14.481   3.593  1.00  0.00     0.047 A 
HETATM    6  C   UNL     1      40.670 -14.374   4.988  1.00  0.00     0.030 A 
HETATM    7  C   UNL     1      40.042 -13.310   5.628  1.00  0.00     0.005 A 
HETATM    8  C   UNL     1      39.392 -12.338   4.876  1.00  0.00     0.032 A 
HETATM    9  C   UNL     1      39.350 -12.396   3.495  1.00  0.00     0.069 A 
HETATM   10  C   UNL     1      39.980 -13.475   2.825  1.00  0.00     0.019 A 
HETATM   11  N   UNL     1      38.703 -11.403   2.863  1.00  0.00    -0.260 NA
HETATM   12  C   UNL     1      39.889 -13.445   1.410  1.00  0.00     0.017 A 
HETATM   13  C   UNL     1      39.220 -12.417   0.752  1.00  0.00     0.020 A 
HETATM   14  C   UNL     1      38.648 -11.426   1.517  1.00  0.00     0.117 A 
ENDBRANCH   1   5
BRANCH   2  15
HETATM   15  C   UNL     1      42.926 -16.960   1.801  1.00  0.00     0.141 C 
BRANCH  15  16
HETATM   16  C   UNL     1      43.292 -18.131   2.686  1.00  0.00    -0.049 A 
HETATM   17  C   UNL     1      43.197 -19.433   2.165  1.00  0.00     0.010 A 
HETATM   18  C   UNL     1      43.587 -20.540   2.924  1.00  0.00     0.037 A 
HETATM   19  C   UNL     1      44.081 -20.347   4.209  1.00  0.00     0.065 A 
HETATM   20  C   UNL     1      44.192 -19.069   4.740  1.00  0.00     0.037 A 
HETATM   21  C   UNL     1      43.811 -17.963   3.978  1.00  0.00     0.010 A 
BRANCH  19  22
HETATM   22  O   UNL     1      44.483 -21.394   4.982  1.00  0.00    -0.361 OA
HETATM   23  H   UNL     1      43.894 -21.457   5.752  1.00  0.00     0.217 HD
ENDBRANCH  19  22
ENDBRANCH  15  16
ENDBRANCH   2  15
TORSDOF 4
ENDMDL
MODEL 10
REMARK VINA RESULT:      -7.2      3.595      7.264
REMARK  4 active torsions:
REMARK  status: ('A' for Active; 'I' for Inactive)
REMARK    1  A    between atoms: C_3  and  N_4 
REMARK       I    between atoms: N_4  and  C_5 
REMARK    2  A    between atoms: C_5  and  C_6 
REMARK    3  A    between atoms: C_6  and  C_7 
REMARK    4  A    between atoms: C_10  and  O_11 
ROOT
HETATM    1  N   UNL     1      41.482 -14.777   2.564  1.00  0.00    -0.326 N 
HETATM    2  C   UNL     1      40.596 -15.115   1.551  1.00  0.00     0.226 C 
HETATM    3  O   UNL     1      39.602 -15.826   1.653  1.00  0.00    -0.273 OA
HETATM    4  H   UNL     1      42.218 -14.140   2.299  1.00  0.00     0.169 HD
ENDROOT
BRANCH   1   5
HETATM    5  C   UNL     1      41.462 -15.196   3.923  1.00  0.00     0.047 A 
HETATM    6  C   UNL     1      40.645 -14.564   4.867  1.00  0.00     0.030 A 
HETATM    7  C   UNL     1      40.632 -14.984   6.193  1.00  0.00     0.005 A 
HETATM    8  C   UNL     1      41.438 -16.046   6.588  1.00  0.00     0.032 A 
HETATM    9  C   UNL     1      42.261 -16.706   5.694  1.00  0.00     0.069 A 
HETATM   10  C   UNL     1      42.290 -16.290   4.339  1.00  0.00     0.019 A 
HETATM   11  N   UNL     1      42.994 -17.724   6.177  1.00  0.00    -0.260 NA
HETATM   12  C   UNL     1      43.159 -17.029   3.497  1.00  0.00     0.017 A 
HETATM   13  C   UNL     1      43.919 -18.086   3.994  1.00  0.00     0.020 A 
HETATM   14  C   UNL     1      43.801 -18.391   5.331  1.00  0.00     0.117 A 
ENDBRANCH   1   5
BRANCH   2  15
HETATM   15  C   UNL     1      40.971 -14.506   0.207  1.00  0.00     0.141 C 
BRANCH  15  16
HETATM   16  C   UNL     1      39.805 -14.088  -0.661  1.00  0.00    -0.049 A 
HETATM   17  C   UNL     1      39.188 -12.848  -0.420  1.00  0.00     0.010 A 
HETATM   18  C   UNL     1      38.150 -12.393  -1.238  1.00  0.00     0.037 A 
HETATM   19  C   UNL     1      37.730 -13.175  -2.307  1.00  0.00     0.065 A 
HETATM   20  C   UNL     1      38.332 -14.398  -2.570  1.00  0.00     0.037 A 
HETATM   21  C   UNL     1      39.375 -14.849  -1.758  1.00  0.00     0.010 A 
BRANCH  19  22
HETATM   22  O   UNL     1      36.730 -12.768  -3.138  1.00  0.00    -0.361 OA
HETATM   23  H   UNL     1      37.125 -12.432  -3.960  1.00  0.00     0.217 HD
ENDBRANCH  19  22
ENDBRANCH  15  16
ENDBRANCH   2  15
TORSDOF 4
ENDMDL
