MODEL 1
REMARK VINA RESULT:      -8.3      0.000      0.000
REMARK  7 active torsions:
REMARK  status: ('A' for Active; 'I' for Inactive)
REMARK    1  A    between atoms: C_3  and  O_4 
REMARK    2  A    between atoms: C_5  and  C_6 
REMARK       I    between atoms: C_6  and  N_7 
REMARK    3  A    between atoms: N_7  and  C_8 
REMARK    4  A    between atoms: C_8  and  C_9 
REMARK    5  A    between atoms: C_9  and  C_10 
REMARK    6  A    between atoms: C_10  and  C_11 
REMARK    7  A    between atoms: C_15  and  C_16 
ROOT
HETATM    1  C   UNL     1      42.147 -12.502   5.553  1.00  0.00     0.126 C 
ENDROOT
BRANCH   1   2
HETATM    2  N   UNL     1      42.284 -11.498   4.493  1.00  0.00    -0.352 N 
HETATM    3  C   UNL     1      42.072 -11.758   3.135  1.00  0.00     0.256 C 
HETATM    4  O   UNL     1      41.729 -10.883   2.334  1.00  0.00    -0.267 OA
HETATM    5  C   UNL     1      42.151 -10.109   4.913  1.00  0.00     0.152 C 
BRANCH   3   6
HETATM    6  C   UNL     1      42.190 -13.130   2.587  1.00  0.00     0.065 A 
HETATM    7  C   UNL     1      41.022 -13.838   2.256  1.00  0.00     0.087 A 
HETATM    8  C   UNL     1      41.091 -15.139   1.741  1.00  0.00    -0.028 A 
HETATM    9  C   UNL     1      39.842 -15.896   1.392  1.00  0.00     0.051 C 
HETATM   10  C   UNL     1      42.351 -15.715   1.532  1.00  0.00     0.009 A 
HETATM   11  C   UNL     1      43.518 -14.996   1.804  1.00  0.00     0.002 A 
HETATM   12  C   UNL     1      43.439 -13.698   2.312  1.00  0.00     0.020 A 
BRANCH   7  13
HETATM   13  O   UNL     1      39.777 -13.279   2.405  1.00  0.00    -0.359 OA
HETATM   14  H   UNL     1      39.578 -13.259   3.368  1.00  0.00     0.218 HD
ENDBRANCH   7  13
ENDBRANCH   3   6
ENDBRANCH   1   2
BRANCH   1  15
HETATM   15  C   UNL     1      43.488 -13.098   5.992  1.00  0.00     0.026 C 
BRANCH  15  16
HETATM   16  C   UNL     1      43.273 -14.068   7.154  1.00  0.00     0.060 C 
BRANCH  16  17
HETATM   17  C   UNL     1      43.403 -15.513   6.814  1.00  0.00     0.030 A 
HETATM   18  N   UNL     1      43.375 -16.544   7.711  1.00  0.00    -0.282 N 
HETATM   19  H   UNL     1      43.275 -16.499   8.720  1.00  0.00     0.189 HD
HETATM   20  N   UNL     1      43.496 -17.755   7.151  1.00  0.00    -0.174 NA
HETATM   21  C   UNL     1      43.585 -17.522   5.830  1.00  0.00     0.089 A 
HETATM   22  C   UNL     1      43.542 -16.122   5.584  1.00  0.00     0.060 A 
BRANCH  21  23
HETATM   23  C   UNL     1      43.701 -18.615   4.855  1.00  0.00    -0.006 A 
HETATM   24  C   UNL     1      43.919 -19.934   5.284  1.00  0.00     0.014 A 
HETATM   25  C   UNL     1      44.024 -20.982   4.365  1.00  0.00     0.001 A 
HETATM   26  C   UNL     1      43.912 -20.726   3.001  1.00  0.00     0.000 A 
HETATM   27  C   UNL     1      43.694 -19.424   2.556  1.00  0.00     0.001 A 
HETATM   28  C   UNL     1      43.590 -18.375   3.476  1.00  0.00     0.014 A 
ENDBRANCH  21  23
ENDBRANCH  16  17
ENDBRANCH  15  16
ENDBRANCH   1  15
TORSDOF 7
ENDMDL
MODEL 2
REMARK VINA RESULT:      -8.1      2.334      4.173
REMARK  7 active torsions:
REMARK  status: ('A' for Active; 'I' for Inactive)
REMARK    1  A    between atoms: C_3  and  O_4 
REMARK    2  A    between atoms: C_5  and  C_6 
REMARK       I    between atoms: C_6  and  N_7 
REMARK    3  A    between atoms: N_7  and  C_8 
REMARK    4  A    between atoms: C_8  and  C_9 
REMARK    5  A    between atoms: C_9  and  C_10 
REMARK    6  A    between atoms: C_10  and  C_11 
REMARK    7  A    between atoms: C_15  and  C_16 
ROOT
HETATM    1  C   UNL     1      40.515 -13.623   2.477  1.00  0.00     0.126 C 
ENDROOT
BRANCH   1   2
HETATM    2  N   UNL     1      39.532 -12.993   3.364  1.00  0.00    -0.352 N 
HETATM    3  C   UNL     1      39.753 -12.734   4.722  1.00  0.00     0.256 C 
HETATM    4  O   UNL     1      39.174 -11.831   5.332  1.00  0.00    -0.267 OA
HETATM    5  C   UNL     1      38.515 -12.180   2.710  1.00  0.00     0.152 C 
BRANCH   3   6
HETATM    6  C   UNL     1      40.754 -13.505   5.498  1.00  0.00     0.065 A 
HETATM    7  C   UNL     1      41.970 -12.891   5.847  1.00  0.00     0.087 A 
HETATM    8  C   UNL     1      42.943 -13.586   6.575  1.00  0.00    -0.028 A 
HETATM    9  C   UNL     1      44.243 -12.931   6.942  1.00  0.00     0.051 C 
HETATM   10  C   UNL     1      42.673 -14.901   6.978  1.00  0.00     0.009 A 
HETATM   11  C   UNL     1      41.444 -15.497   6.685  1.00  0.00     0.002 A 
HETATM   12  C   UNL     1      40.478 -14.795   5.963  1.00  0.00     0.020 A 
BRANCH   7  13
HETATM   13  O   UNL     1      42.240 -11.588   5.507  1.00  0.00    -0.359 OA
HETATM   14  H   UNL     1      41.512 -11.035   5.868  1.00  0.00     0.218 HD
ENDBRANCH   7  13
ENDBRANCH   3   6
ENDBRANCH   1   2
BRANCH   1  15
HETATM   15  C   UNL     1      41.655 -12.680   2.080  1.00  0.00     0.026 C 
BRANCH  15  16
HETATM   16  C   UNL     1      42.992 -13.247   2.557  1.00  0.00     0.060 C 
BRANCH  16  17
HETATM   17  C   UNL     1      43.144 -14.724   2.427  1.00  0.00     0.030 A 
HETATM   18  N   UNL     1      43.217 -15.413   1.249  1.00  0.00    -0.282 N 
HETATM   19  H   UNL     1      43.170 -15.050   0.303  1.00  0.00     0.189 HD
HETATM   20  N   UNL     1      43.370 -16.735   1.402  1.00  0.00    -0.174 NA
HETATM   21  C   UNL     1      43.424 -16.930   2.730  1.00  0.00     0.089 A 
HETATM   22  C   UNL     1      43.273 -15.688   3.406  1.00  0.00     0.060 A 
BRANCH  21  23
HETATM   23  C   UNL     1      43.619 -18.265   3.312  1.00  0.00    -0.006 A 
HETATM   24  C   UNL     1      43.872 -18.415   4.685  1.00  0.00     0.014 A 
HETATM   25  C   UNL     1      44.053 -19.680   5.250  1.00  0.00     0.001 A 
HETATM   26  C   UNL     1      43.981 -20.818   4.449  1.00  0.00     0.000 A 
HETATM   27  C   UNL     1      43.728 -20.689   3.085  1.00  0.00     0.001 A 
HETATM   28  C   UNL     1      43.549 -19.422   2.520  1.00  0.00     0.014 A 
ENDBRANCH  21  23
ENDBRANCH  16  17
ENDBRANCH  15  16
ENDBRANCH   1  15
TORSDOF 7
ENDMDL
MODEL 3
REMARK VINA RESULT:      -8.1      2.278      3.814
REMARK  7 active torsions:
REMARK  status: ('A' for Active; 'I' for Inactive)
REMARK    1  A    between atoms: C_3  and  O_4 
REMARK    2  A    between atoms: C_5  and  C_6 
REMARK       I    between atoms: C_6  and  N_7 
REMARK    3  A    between atoms: N_7  and  C_8 
REMARK    4  A    between atoms: C_8  and  C_9 
REMARK    5  A    between atoms: C_9  and  C_10 
REMARK    6  A    between atoms: C_10  and  C_11 
REMARK    7  A    between atoms: C_15  and  C_16 
ROOT
HETATM    1  C   UNL     1      41.301 -11.133   3.455  1.00  0.00     0.126 C 
ENDROOT
BRANCH   1   2
HETATM    2  N   UNL     1      40.074 -11.503   4.168  1.00  0.00    -0.352 N 
HETATM    3  C   UNL     1      40.052 -12.095   5.436  1.00  0.00     0.256 C 
HETATM    4  O   UNL     1      39.097 -11.978   6.209  1.00  0.00    -0.267 OA
HETATM    5  C   UNL     1      38.868 -10.792   3.766  1.00  0.00     0.152 C 
BRANCH   3   6
HETATM    6  C   UNL     1      41.217 -12.855   5.950  1.00  0.00     0.065 A 
HETATM    7  C   UNL     1      41.124 -14.253   6.065  1.00  0.00     0.087 A 
HETATM    8  C   UNL     1      42.200 -15.007   6.551  1.00  0.00    -0.028 A 
HETATM    9  C   UNL     1      42.098 -16.500   6.677  1.00  0.00     0.051 C 
HETATM   10  C   UNL     1      43.386 -14.345   6.895  1.00  0.00     0.009 A 
HETATM   11  C   UNL     1      43.505 -12.964   6.729  1.00  0.00     0.002 A 
HETATM   12  C   UNL     1      42.429 -12.221   6.239  1.00  0.00     0.020 A 
BRANCH   7  13
HETATM   13  O   UNL     1      39.991 -14.931   5.689  1.00  0.00    -0.359 OA
HETATM   14  H   UNL     1      39.495 -14.351   5.069  1.00  0.00     0.218 HD
ENDBRANCH   7  13
ENDBRANCH   3   6
ENDBRANCH   1   2
BRANCH   1  15
HETATM   15  C   UNL     1      41.614 -12.062   2.278  1.00  0.00     0.026 C 
BRANCH  15  16
HETATM   16  C   UNL     1      42.832 -12.926   2.603  1.00  0.00     0.060 C 
BRANCH  16  17
HETATM   17  C   UNL     1      42.559 -14.381   2.772  1.00  0.00     0.030 A 
HETATM   18  N   UNL     1      41.320 -14.956   2.807  1.00  0.00    -0.282 N 
HETATM   19  H   UNL     1      40.414 -14.505   2.737  1.00  0.00     0.189 HD
HETATM   20  N   UNL     1      41.343 -16.288   2.953  1.00  0.00    -0.174 NA
HETATM   21  C   UNL     1      42.647 -16.613   2.993  1.00  0.00     0.089 A 
HETATM   22  C   UNL     1      43.439 -15.436   2.894  1.00  0.00     0.060 A 
BRANCH  21  23
HETATM   23  C   UNL     1      43.097 -18.006   3.117  1.00  0.00    -0.006 A 
HETATM   24  C   UNL     1      43.778 -18.436   4.267  1.00  0.00     0.014 A 
HETATM   25  C   UNL     1      44.204 -19.761   4.398  1.00  0.00     0.001 A 
HETATM   26  C   UNL     1      43.954 -20.677   3.379  1.00  0.00     0.000 A 
HETATM   27  C   UNL     1      43.277 -20.269   2.231  1.00  0.00     0.001 A 
HETATM   28  C   UNL     1      42.852 -18.943   2.101  1.00  0.00     0.014 A 
ENDBRANCH  21  23
ENDBRANCH  16  17
ENDBRANCH  15  16
ENDBRANCH   1  15
TORSDOF 7
ENDMDL
MODEL 4
REMARK VINA RESULT:      -8.0      3.223      6.258
REMARK  7 active torsions:
REMARK  status: ('A' for Active; 'I' for Inactive)
REMARK    1  A    between atoms: C_3  and  O_4 
REMARK    2  A    between atoms: C_5  and  C_6 
REMARK       I    between atoms: C_6  and  N_7 
REMARK    3  A    between atoms: N_7  and  C_8 
REMARK    4  A    between atoms: C_8  and  C_9 
REMARK    5  A    between atoms: C_9  and  C_10 
REMARK    6  A    between atoms: C_10  and  C_11 
REMARK    7  A    between atoms: C_15  and  C_16 
ROOT
HETATM    1  C   UNL     1      41.490 -15.426   6.152  1.00  0.00     0.126 C 
ENDROOT
BRANCH   1   2
HETATM    2  N   UNL     1      42.757 -15.930   6.690  1.00  0.00    -0.352 N 
HETATM    3  C   UNL     1      43.838 -16.336   5.898  1.00  0.00     0.256 C 
HETATM    4  O   UNL     1      45.005 -16.306   6.298  1.00  0.00    -0.267 OA
HETATM    5  C   UNL     1      43.071 -15.532   8.056  1.00  0.00     0.152 C 
BRANCH   3   6
HETATM    6  C   UNL     1      43.641 -16.775   4.496  1.00  0.00     0.065 A 
HETATM    7  C   UNL     1      43.705 -18.146   4.193  1.00  0.00     0.087 A 
HETATM    8  C   UNL     1      43.530 -18.601   2.880  1.00  0.00    -0.028 A 
HETATM    9  C   UNL     1      43.603 -20.066   2.557  1.00  0.00     0.051 C 
HETATM   10  C   UNL     1      43.260 -17.665   1.872  1.00  0.00     0.009 A 
HETATM   11  C   UNL     1      43.138 -16.307   2.176  1.00  0.00     0.002 A 
HETATM   12  C   UNL     1      43.309 -15.863   3.489  1.00  0.00     0.020 A 
BRANCH   7  13
HETATM   13  O   UNL     1      43.919 -19.088   5.169  1.00  0.00    -0.359 OA
HETATM   14  H   UNL     1      43.049 -19.494   5.381  1.00  0.00     0.218 HD
ENDBRANCH   7  13
ENDBRANCH   3   6
ENDBRANCH   1   2
BRANCH   1  15
HETATM   15  C   UNL     1      41.506 -13.916   5.895  1.00  0.00     0.026 C 
BRANCH  15  16
HETATM   16  C   UNL     1      40.227 -13.496   5.170  1.00  0.00     0.060 C 
BRANCH  16  17
HETATM   17  C   UNL     1      40.149 -13.881   3.732  1.00  0.00     0.030 A 
HETATM   18  N   UNL     1      39.736 -15.094   3.259  1.00  0.00    -0.282 N 
HETATM   19  H   UNL     1      39.434 -15.907   3.785  1.00  0.00     0.189 HD
HETATM   20  N   UNL     1      39.741 -15.185   1.922  1.00  0.00    -0.174 NA
HETATM   21  C   UNL     1      40.151 -13.980   1.491  1.00  0.00     0.089 A 
HETATM   22  C   UNL     1      40.427 -13.139   2.604  1.00  0.00     0.060 A 
BRANCH  21  23
HETATM   23  C   UNL     1      40.262 -13.663   0.060  1.00  0.00    -0.006 A 
HETATM   24  C   UNL     1      39.723 -14.527  -0.906  1.00  0.00     0.014 A 
HETATM   25  C   UNL     1      39.816 -14.233  -2.269  1.00  0.00     0.001 A 
HETATM   26  C   UNL     1      40.451 -13.065  -2.687  1.00  0.00     0.000 A 
HETATM   27  C   UNL     1      40.990 -12.194  -1.743  1.00  0.00     0.001 A 
HETATM   28  C   UNL     1      40.897 -12.490  -0.379  1.00  0.00     0.014 A 
ENDBRANCH  21  23
ENDBRANCH  16  17
ENDBRANCH  15  16
ENDBRANCH   1  15
TORSDOF 7
ENDMDL
MODEL 5
REMARK VINA RESULT:      -7.8      4.252      6.616
REMARK  7 active torsions:
REMARK  status: ('A' for Active; 'I' for Inactive)
REMARK    1  A    between atoms: C_3  and  O_4 
REMARK    2  A    between atoms: C_5  and  C_6 
REMARK       I    between atoms: C_6  and  N_7 
REMARK    3  A    between atoms: N_7  and  C_8 
REMARK    4  A    between atoms: C_8  and  C_9 
REMARK    5  A    between atoms: C_9  and  C_10 
REMARK    6  A    between atoms: C_10  and  C_11 
REMARK    7  A    between atoms: C_15  and  C_16 
ROOT
HETATM    1  C   UNL     1      42.720 -10.787   6.909  1.00  0.00     0.126 C 
ENDROOT
BRANCH   1   2
HETATM    2  N   UNL     1      44.163 -10.815   7.166  1.00  0.00    -0.352 N 
HETATM    3  C   UNL     1      44.747 -10.489   8.395  1.00  0.00     0.256 C 
HETATM    4  O   UNL     1      45.838 -10.941   8.756  1.00  0.00    -0.267 OA
HETATM    5  C   UNL     1      44.949 -11.668   6.284  1.00  0.00     0.152 C 
BRANCH   3   6
HETATM    6  C   UNL     1      44.049  -9.618   9.372  1.00  0.00     0.065 A 
HETATM    7  C   UNL     1      43.536 -10.187  10.551  1.00  0.00     0.087 A 
HETATM    8  C   UNL     1      42.866  -9.399  11.495  1.00  0.00    -0.028 A 
HETATM    9  C   UNL     1      42.314 -10.009  12.752  1.00  0.00     0.051 C 
HETATM   10  C   UNL     1      42.739  -8.024  11.259  1.00  0.00     0.009 A 
HETATM   11  C   UNL     1      43.297  -7.443  10.118  1.00  0.00     0.002 A 
HETATM   12  C   UNL     1      43.968  -8.235   9.184  1.00  0.00     0.020 A 
BRANCH   7  13
HETATM   13  O   UNL     1      43.689 -11.523  10.830  1.00  0.00    -0.359 OA
HETATM   14  H   UNL     1      44.520 -11.620  11.347  1.00  0.00     0.218 HD
ENDBRANCH   7  13
ENDBRANCH   3   6
ENDBRANCH   1   2
BRANCH   1  15
HETATM   15  C   UNL     1      42.340 -11.392   5.554  1.00  0.00     0.026 C 
BRANCH  15  16
HETATM   16  C   UNL     1      41.111 -12.288   5.709  1.00  0.00     0.060 C 
BRANCH  16  17
HETATM   17  C   UNL     1      41.211 -13.630   5.067  1.00  0.00     0.030 A 
HETATM   18  N   UNL     1      40.201 -14.267   4.403  1.00  0.00    -0.282 N 
HETATM   19  H   UNL     1      39.249 -13.952   4.250  1.00  0.00     0.189 HD
HETATM   20  N   UNL     1      40.550 -15.460   3.901  1.00  0.00    -0.174 NA
HETATM   21  C   UNL     1      41.845 -15.610   4.224  1.00  0.00     0.089 A 
HETATM   22  C   UNL     1      42.290 -14.483   4.968  1.00  0.00     0.060 A 
BRANCH  21  23
HETATM   23  C   UNL     1      42.614 -16.796   3.821  1.00  0.00    -0.006 A 
HETATM   24  C   UNL     1      43.603 -17.326   4.665  1.00  0.00     0.014 A 
HETATM   25  C   UNL     1      44.335 -18.458   4.294  1.00  0.00     0.001 A 
HETATM   26  C   UNL     1      44.088 -19.077   3.071  1.00  0.00     0.000 A 
HETATM   27  C   UNL     1      43.109 -18.567   2.221  1.00  0.00     0.001 A 
HETATM   28  C   UNL     1      42.377 -17.434   2.593  1.00  0.00     0.014 A 
ENDBRANCH  21  23
ENDBRANCH  16  17
ENDBRANCH  15  16
ENDBRANCH   1  15
TORSDOF 7
ENDMDL
MODEL 6
REMARK VINA RESULT:      -7.6      4.097      6.455
REMARK  7 active torsions:
REMARK  status: ('A' for Active; 'I' for Inactive)
REMARK    1  A    between atoms: C_3  and  O_4 
REMARK    2  A    between atoms: C_5  and  C_6 
REMARK       I    between atoms: C_6  and  N_7 
REMARK    3  A    between atoms: N_7  and  C_8 
REMARK    4  A    between atoms: C_8  and  C_9 
REMARK    5  A    between atoms: C_9  and  C_10 
REMARK    6  A    between atoms: C_10  and  C_11 
REMARK    7  A    between atoms: C_15  and  C_16 
ROOT
HETATM    1  C   UNL     1      43.568 -11.507   7.414  1.00  0.00     0.126 C 
ENDROOT
BRANCH   1   2
HETATM    2  N   UNL     1      44.800 -10.734   7.227  1.00  0.00    -0.352 N 
HETATM    3  C   UNL     1      45.414  -9.981   8.234  1.00  0.00     0.256 C 
HETATM    4  O   UNL     1      46.623  -9.734   8.240  1.00  0.00    -0.267 OA
HETATM    5  C   UNL     1      45.657 -11.160   6.127  1.00  0.00     0.152 C 
BRANCH   3   6
HETATM    6  C   UNL     1      44.643  -9.481   9.398  1.00  0.00     0.065 A 
HETATM    7  C   UNL     1      44.010  -8.228   9.313  1.00  0.00     0.087 A 
HETATM    8  C   UNL     1      43.277  -7.719  10.391  1.00  0.00    -0.028 A 
HETATM    9  C   UNL     1      42.607  -6.378  10.301  1.00  0.00     0.051 C 
HETATM   10  C   UNL     1      43.158  -8.494  11.553  1.00  0.00     0.009 A 
HETATM   11  C   UNL     1      43.734  -9.764  11.623  1.00  0.00     0.002 A 
HETATM   12  C   UNL     1      44.460 -10.266  10.540  1.00  0.00     0.020 A 
BRANCH   7  13
HETATM   13  O   UNL     1      44.071  -7.470   8.170  1.00  0.00    -0.359 OA
HETATM   14  H   UNL     1      44.975  -7.573   7.797  1.00  0.00     0.218 HD
ENDBRANCH   7  13
ENDBRANCH   3   6
ENDBRANCH   1   2
BRANCH   1  15
HETATM   15  C   UNL     1      43.306 -12.501   6.278  1.00  0.00     0.026 C 
BRANCH  15  16
HETATM   16  C   UNL     1      43.440 -13.933   6.797  1.00  0.00     0.060 C 
BRANCH  16  17
HETATM   17  C   UNL     1      43.380 -14.999   5.757  1.00  0.00     0.030 A 
HETATM   18  N   UNL     1      43.076 -14.805   4.439  1.00  0.00    -0.282 N 
HETATM   19  H   UNL     1      42.839 -13.938   3.968  1.00  0.00     0.189 HD
HETATM   20  N   UNL     1      43.105 -15.924   3.704  1.00  0.00    -0.174 NA
HETATM   21  C   UNL     1      43.464 -16.896   4.561  1.00  0.00     0.089 A 
HETATM   22  C   UNL     1      43.633 -16.351   5.863  1.00  0.00     0.060 A 
BRANCH  21  23
HETATM   23  C   UNL     1      43.638 -18.289   4.127  1.00  0.00    -0.006 A 
HETATM   24  C   UNL     1      44.000 -19.284   5.049  1.00  0.00     0.014 A 
HETATM   25  C   UNL     1      44.162 -20.613   4.648  1.00  0.00     0.001 A 
HETATM   26  C   UNL     1      43.963 -20.968   3.316  1.00  0.00     0.000 A 
HETATM   27  C   UNL     1      43.601 -19.995   2.387  1.00  0.00     0.001 A 
HETATM   28  C   UNL     1      43.440 -18.665   2.789  1.00  0.00     0.014 A 
ENDBRANCH  21  23
ENDBRANCH  16  17
ENDBRANCH  15  16
ENDBRANCH   1  15
TORSDOF 7
ENDMDL
MODEL 7
REMARK VINA RESULT:      -7.6      2.937      5.075
REMARK  7 active torsions:
REMARK  status: ('A' for Active; 'I' for Inactive)
REMARK    1  A    between atoms: C_3  and  O_4 
REMARK    2  A    between atoms: C_5  and  C_6 
REMARK       I    between atoms: C_6  and  N_7 
REMARK    3  A    between atoms: N_7  and  C_8 
REMARK    4  A    between atoms: C_8  and  C_9 
REMARK    5  A    between atoms: C_9  and  C_10 
REMARK    6  A    between atoms: C_10  and  C_11 
REMARK    7  A    between atoms: C_15  and  C_16 
ROOT
HETATM    1  C   UNL     1      41.091 -12.799   5.949  1.00  0.00     0.126 C 
ENDROOT
BRANCH   1   2
HETATM    2  N   UNL     1      40.691 -11.420   6.244  1.00  0.00    -0.352 N 
HETATM    3  C   UNL     1      41.588 -10.353   6.374  1.00  0.00     0.256 C 
HETATM    4  O   UNL     1      41.268  -9.182   6.154  1.00  0.00    -0.267 OA
HETATM    5  C   UNL     1      39.318 -11.070   5.903  1.00  0.00     0.152 C 
BRANCH   3   6
HETATM    6  C   UNL     1      43.009 -10.584   6.729  1.00  0.00     0.065 A 
HETATM    7  C   UNL     1      43.439 -10.314   8.040  1.00  0.00     0.087 A 
HETATM    8  C   UNL     1      44.774 -10.514   8.414  1.00  0.00    -0.028 A 
HETATM    9  C   UNL     1      45.232 -10.220   9.814  1.00  0.00     0.051 C 
HETATM   10  C   UNL     1      45.673 -11.017   7.464  1.00  0.00     0.009 A 
HETATM   11  C   UNL     1      45.240 -11.342   6.176  1.00  0.00     0.002 A 
HETATM   12  C   UNL     1      43.906 -11.145   5.814  1.00  0.00     0.020 A 
BRANCH   7  13
HETATM   13  O   UNL     1      42.569  -9.866   9.003  1.00  0.00    -0.359 OA
HETATM   14  H   UNL     1      42.082  -9.100   8.625  1.00  0.00     0.218 HD
ENDBRANCH   7  13
ENDBRANCH   3   6
ENDBRANCH   1   2
BRANCH   1  15
HETATM   15  C   UNL     1      40.665 -13.260   4.551  1.00  0.00     0.026 C 
BRANCH  15  16
HETATM   16  C   UNL     1      41.848 -13.165   3.587  1.00  0.00     0.060 C 
BRANCH  16  17
HETATM   17  C   UNL     1      42.418 -14.468   3.142  1.00  0.00     0.030 A 
HETATM   18  N   UNL     1      43.152 -14.664   2.006  1.00  0.00    -0.282 N 
HETATM   19  H   UNL     1      43.413 -13.985   1.298  1.00  0.00     0.189 HD
HETATM   20  N   UNL     1      43.566 -15.928   1.839  1.00  0.00    -0.174 NA
HETATM   21  C   UNL     1      43.108 -16.591   2.914  1.00  0.00     0.089 A 
HETATM   22  C   UNL     1      42.372 -15.705   3.748  1.00  0.00     0.060 A 
BRANCH  21  23
HETATM   23  C   UNL     1      43.381 -18.020   3.120  1.00  0.00    -0.006 A 
HETATM   24  C   UNL     1      43.088 -18.955   2.115  1.00  0.00     0.014 A 
HETATM   25  C   UNL     1      43.350 -20.315   2.297  1.00  0.00     0.001 A 
HETATM   26  C   UNL     1      43.913 -20.762   3.491  1.00  0.00     0.000 A 
HETATM   27  C   UNL     1      44.213 -19.849   4.499  1.00  0.00     0.001 A 
HETATM   28  C   UNL     1      43.949 -18.488   4.316  1.00  0.00     0.014 A 
ENDBRANCH  21  23
ENDBRANCH  16  17
ENDBRANCH  15  16
ENDBRANCH   1  15
TORSDOF 7
ENDMDL
MODEL 8
REMARK VINA RESULT:      -7.4      3.537      7.286
REMARK  7 active torsions:
REMARK  status: ('A' for Active; 'I' for Inactive)
REMARK    1  A    between atoms: C_3  and  O_4 
REMARK    2  A    between atoms: C_5  and  C_6 
REMARK       I    between atoms: C_6  and  N_7 
REMARK    3  A    between atoms: N_7  and  C_8 
REMARK    4  A    between atoms: C_8  and  C_9 
REMARK    5  A    between atoms: C_9  and  C_10 
REMARK    6  A    between atoms: C_10  and  C_11 
REMARK    7  A    between atoms: C_15  and  C_16 
ROOT
HETATM    1  C   UNL     1      42.961 -13.455   3.158  1.00  0.00     0.126 C 
ENDROOT
BRANCH   1   2
HETATM    2  N   UNL     1      41.679 -14.005   2.708  1.00  0.00    -0.352 N 
HETATM    3  C   UNL     1      41.228 -15.295   3.011  1.00  0.00     0.256 C 
HETATM    4  O   UNL     1      40.031 -15.590   3.054  1.00  0.00    -0.267 OA
HETATM    5  C   UNL     1      40.653 -13.028   2.366  1.00  0.00     0.152 C 
BRANCH   3   6
HETATM    6  C   UNL     1      42.178 -16.378   3.363  1.00  0.00     0.065 A 
HETATM    7  C   UNL     1      42.366 -16.712   4.715  1.00  0.00     0.087 A 
HETATM    8  C   UNL     1      43.258 -17.725   5.088  1.00  0.00    -0.028 A 
HETATM    9  C   UNL     1      43.461 -18.076   6.535  1.00  0.00     0.051 C 
HETATM   10  C   UNL     1      43.942 -18.424   4.085  1.00  0.00     0.009 A 
HETATM   11  C   UNL     1      43.717 -18.138   2.737  1.00  0.00     0.002 A 
HETATM   12  C   UNL     1      42.822 -17.129   2.374  1.00  0.00     0.020 A 
BRANCH   7  13
HETATM   13  O   UNL     1      41.672 -16.075   5.715  1.00  0.00    -0.359 OA
HETATM   14  H   UNL     1      42.230 -15.329   6.030  1.00  0.00     0.218 HD
ENDBRANCH   7  13
ENDBRANCH   3   6
ENDBRANCH   1   2
BRANCH   1  15
HETATM   15  C   UNL     1      42.931 -12.978   4.613  1.00  0.00     0.026 C 
BRANCH  15  16
HETATM   16  C   UNL     1      43.859 -11.776   4.787  1.00  0.00     0.060 C 
BRANCH  16  17
HETATM   17  C   UNL     1      44.150 -11.390   6.198  1.00  0.00     0.030 A 
HETATM   18  N   UNL     1      45.310 -11.658   6.868  1.00  0.00    -0.282 N 
HETATM   19  H   UNL     1      46.131 -12.153   6.536  1.00  0.00     0.189 HD
HETATM   20  N   UNL     1      45.332 -11.190   8.124  1.00  0.00    -0.174 NA
HETATM   21  C   UNL     1      44.151 -10.569   8.286  1.00  0.00     0.089 A 
HETATM   22  C   UNL     1      43.379 -10.686   7.097  1.00  0.00     0.060 A 
BRANCH  21  23
HETATM   23  C   UNL     1      43.796  -9.888   9.539  1.00  0.00    -0.006 A 
HETATM   24  C   UNL     1      43.665 -10.615  10.733  1.00  0.00     0.014 A 
HETATM   25  C   UNL     1      43.335  -9.977  11.932  1.00  0.00     0.001 A 
HETATM   26  C   UNL     1      43.132  -8.599  11.955  1.00  0.00     0.000 A 
HETATM   27  C   UNL     1      43.260  -7.861  10.780  1.00  0.00     0.001 A 
HETATM   28  C   UNL     1      43.589  -8.500   9.581  1.00  0.00     0.014 A 
ENDBRANCH  21  23
ENDBRANCH  16  17
ENDBRANCH  15  16
ENDBRANCH   1  15
TORSDOF 7
ENDMDL
MODEL 9
REMARK VINA RESULT:      -7.3      4.186      7.922
REMARK  7 active torsions:
REMARK  status: ('A' for Active; 'I' for Inactive)
REMARK    1  A    between atoms: C_3  and  O_4 
REMARK    2  A    between atoms: C_5  and  C_6 
REMARK       I    between atoms: C_6  and  N_7 
REMARK    3  A    between atoms: N_7  and  C_8 
REMARK    4  A    between atoms: C_8  and  C_9 
REMARK    5  A    between atoms: C_9  and  C_10 
REMARK    6  A    between atoms: C_10  and  C_11 
REMARK    7  A    between atoms: C_15  and  C_16 
ROOT
HETATM    1  C   UNL     1      43.514 -12.171   5.020  1.00  0.00     0.126 C 
ENDROOT
BRANCH   1   2
HETATM    2  N   UNL     1      42.080 -12.458   5.121  1.00  0.00    -0.352 N 
HETATM    3  C   UNL     1      41.501 -13.689   4.791  1.00  0.00     0.256 C 
HETATM    4  O   UNL     1      40.444 -14.084   5.291  1.00  0.00    -0.267 OA
HETATM    5  C   UNL     1      41.327 -11.617   6.043  1.00  0.00     0.152 C 
BRANCH   3   6
HETATM    6  C   UNL     1      42.167 -14.624   3.853  1.00  0.00     0.065 A 
HETATM    7  C   UNL     1      42.641 -15.856   4.337  1.00  0.00     0.087 A 
HETATM    8  C   UNL     1      43.280 -16.765   3.485  1.00  0.00    -0.028 A 
HETATM    9  C   UNL     1      43.790 -18.079   4.005  1.00  0.00     0.051 C 
HETATM   10  C   UNL     1      43.414 -16.439   2.128  1.00  0.00     0.009 A 
HETATM   11  C   UNL     1      42.893 -15.243   1.629  1.00  0.00     0.002 A 
HETATM   12  C   UNL     1      42.253 -14.344   2.485  1.00  0.00     0.020 A 
BRANCH   7  13
HETATM   13  O   UNL     1      42.479 -16.221   5.651  1.00  0.00    -0.359 OA
HETATM   14  H   UNL     1      41.715 -16.839   5.691  1.00  0.00     0.218 HD
ENDBRANCH   7  13
ENDBRANCH   3   6
ENDBRANCH   1   2
BRANCH   1  15
HETATM   15  C   UNL     1      44.301 -12.609   6.260  1.00  0.00     0.026 C 
BRANCH  15  16
HETATM   16  C   UNL     1      45.531 -11.719   6.438  1.00  0.00     0.060 C 
BRANCH  16  17
HETATM   17  C   UNL     1      45.379 -10.603   7.413  1.00  0.00     0.030 A 
HETATM   18  N   UNL     1      46.218  -9.531   7.528  1.00  0.00    -0.282 N 
HETATM   19  H   UNL     1      47.058  -9.328   6.996  1.00  0.00     0.189 HD
HETATM   20  N   UNL     1      45.853  -8.654   8.473  1.00  0.00    -0.174 NA
HETATM   21  C   UNL     1      44.716  -9.150   8.990  1.00  0.00     0.089 A 
HETATM   22  C   UNL     1      44.396 -10.381   8.355  1.00  0.00     0.060 A 
BRANCH  21  23
HETATM   23  C   UNL     1      43.975  -8.452  10.050  1.00  0.00    -0.006 A 
HETATM   24  C   UNL     1      43.260  -7.278   9.766  1.00  0.00     0.014 A 
HETATM   25  C   UNL     1      42.546  -6.610  10.765  1.00  0.00     0.001 A 
HETATM   26  C   UNL     1      42.537  -7.108  12.066  1.00  0.00     0.000 A 
HETATM   27  C   UNL     1      43.239  -8.273  12.366  1.00  0.00     0.001 A 
HETATM   28  C   UNL     1      43.954  -8.940  11.366  1.00  0.00     0.014 A 
ENDBRANCH  21  23
ENDBRANCH  16  17
ENDBRANCH  15  16
ENDBRANCH   1  15
TORSDOF 7
ENDMDL
MODEL 10
REMARK VINA RESULT:      -7.2      2.920      6.381
REMARK  7 active torsions:
REMARK  status: ('A' for Active; 'I' for Inactive)
REMARK    1  A    between atoms: C_3  and  O_4 
REMARK    2  A    between atoms: C_5  and  C_6 
REMARK       I    between atoms: C_6  and  N_7 
REMARK    3  A    between atoms: N_7  and  C_8 
REMARK    4  A    between atoms: C_8  and  C_9 
REMARK    5  A    between atoms: C_9  and  C_10 
REMARK    6  A    between atoms: C_10  and  C_11 
REMARK    7  A    between atoms: C_15  and  C_16 
ROOT
HETATM    1  C   UNL     1      42.253 -12.606   5.487  1.00  0.00     0.126 C 
ENDROOT
BRANCH   1   2
HETATM    2  N   UNL     1      41.041 -13.416   5.648  1.00  0.00    -0.352 N 
HETATM    3  C   UNL     1      41.044 -14.769   6.008  1.00  0.00     0.256 C 
HETATM    4  O   UNL     1      40.095 -15.307   6.585  1.00  0.00    -0.267 OA
HETATM    5  C   UNL     1      39.816 -12.678   5.925  1.00  0.00     0.152 C 
BRANCH   3   6
HETATM    6  C   UNL     1      42.230 -15.626   5.766  1.00  0.00     0.065 A 
HETATM    7  C   UNL     1      42.285 -16.403   4.596  1.00  0.00     0.087 A 
HETATM    8  C   UNL     1      43.385 -17.229   4.333  1.00  0.00    -0.028 A 
HETATM    9  C   UNL     1      43.440 -18.062   3.085  1.00  0.00     0.051 C 
HETATM   10  C   UNL     1      44.449 -17.246   5.245  1.00  0.00     0.009 A 
HETATM   11  C   UNL     1      44.427 -16.433   6.380  1.00  0.00     0.002 A 
HETATM   12  C   UNL     1      43.329 -15.609   6.632  1.00  0.00     0.020 A 
BRANCH   7  13
HETATM   13  O   UNL     1      41.279 -16.367   3.662  1.00  0.00    -0.359 OA
HETATM   14  H   UNL     1      40.436 -16.558   4.133  1.00  0.00     0.218 HD
ENDBRANCH   7  13
ENDBRANCH   3   6
ENDBRANCH   1   2
BRANCH   1  15
HETATM   15  C   UNL     1      42.262 -11.793   4.189  1.00  0.00     0.026 C 
BRANCH  15  16
HETATM   16  C   UNL     1      43.019 -12.555   3.101  1.00  0.00     0.060 C 
BRANCH  16  17
HETATM   17  C   UNL     1      42.171 -13.182   2.048  1.00  0.00     0.030 A 
HETATM   18  N   UNL     1      42.145 -14.512   1.740  1.00  0.00    -0.282 N 
HETATM   19  H   UNL     1      42.685 -15.266   2.153  1.00  0.00     0.189 HD
HETATM   20  N   UNL     1      41.283 -14.827   0.764  1.00  0.00    -0.174 NA
HETATM   21  C   UNL     1      40.699 -13.665   0.425  1.00  0.00     0.089 A 
HETATM   22  C   UNL     1      41.242 -12.608   1.205  1.00  0.00     0.060 A 
BRANCH  21  23
HETATM   23  C   UNL     1      39.655 -13.592  -0.607  1.00  0.00    -0.006 A 
HETATM   24  C   UNL     1      38.784 -12.493  -0.663  1.00  0.00     0.014 A 
HETATM   25  C   UNL     1      37.792 -12.410  -1.645  1.00  0.00     0.001 A 
HETATM   26  C   UNL     1      37.657 -13.427  -2.587  1.00  0.00     0.000 A 
HETATM   27  C   UNL     1      38.514 -14.525  -2.547  1.00  0.00     0.001 A 
HETATM   28  C   UNL     1      39.506 -14.608  -1.565  1.00  0.00     0.014 A 
ENDBRANCH  21  23
ENDBRANCH  16  17
ENDBRANCH  15  16
ENDBRANCH   1  15
TORSDOF 7
ENDMDL
