MODEL 1
REMARK VINA RESULT:      -7.6      0.000      0.000
REMARK  5 active torsions:
REMARK  status: ('A' for Active; 'I' for Inactive)
REMARK    1  A    between atoms: C_3  and  N_4 
REMARK       I    between atoms: N_4  and  C_5 
REMARK       I    between atoms: C_5  and  N_6 
REMARK    2  A    between atoms: N_6  and  C_7 
REMARK    3  A    between atoms: C_7  and  C_8 
REMARK    4  A    between atoms: C_8  and  C_9 
REMARK    5  A    between atoms: N_15  and  C_16 
ROOT
HETATM    1  C   UNL     1      39.860 -13.296   5.957  1.00  0.00     0.054 C 
HETATM    2  C   UNL     1      40.931 -13.991   5.205  1.00  0.00     0.003 A 
HETATM    3  C   UNL     1      41.960 -13.433   4.410  1.00  0.00     0.159 A 
HETATM    4  N   UNL     1      42.754 -14.379   3.906  1.00  0.00    -0.149 NA
HETATM    5  N   UNL     1      42.236 -15.567   4.324  1.00  0.00    -0.241 N 
HETATM    6  C   UNL     1      41.156 -15.351   5.148  1.00  0.00     0.129 A 
ENDROOT
BRANCH   3   7
HETATM    7  N   UNL     1      42.142 -12.082   4.203  1.00  0.00    -0.291 N 
HETATM    8  C   UNL     1      42.892 -11.201   4.924  1.00  0.00     0.322 C 
HETATM    9  N   UNL     1      43.646 -11.714   5.932  1.00  0.00    -0.339 N 
HETATM   10  O   UNL     1      42.892 -10.011   4.617  1.00  0.00    -0.247 OA
HETATM   11  H   UNL     1      43.419 -12.675   6.186  1.00  0.00     0.164 HD
HETATM   12  H   UNL     1      41.670 -11.660   3.419  1.00  0.00     0.172 HD
BRANCH   9  13
HETATM   13  C   UNL     1      44.459 -10.908   6.825  1.00  0.00     0.082 C 
HETATM   14  C   UNL     1      45.936 -11.224   6.607  1.00  0.00     0.032 C 
BRANCH  13  15
HETATM   15  C   UNL     1      44.030 -11.053   8.298  1.00  0.00     0.029 C 
BRANCH  15  16
HETATM   16  C   UNL     1      44.272  -9.825   9.135  1.00  0.00    -0.013 A 
HETATM   17  C   UNL     1      44.022  -9.832  10.622  1.00  0.00     0.005 A 
HETATM   18  C   UNL     1      45.431  -9.809  10.100  1.00  0.00     0.005 A 
ENDBRANCH  15  16
ENDBRANCH  13  15
ENDBRANCH   9  13
ENDBRANCH   3   7
BRANCH   5  19
HETATM   19  C   UNL     1      42.869 -16.786   3.933  1.00  0.00     0.079 A 
HETATM   20  C   UNL     1      43.879 -17.437   4.660  1.00  0.00     0.062 A 
HETATM   21 CL   UNL     1      44.423 -17.000   6.242  1.00  0.00    -0.082 Cl
HETATM   22  C   UNL     1      44.462 -18.610   4.148  1.00  0.00     0.026 A 
HETATM   23  C   UNL     1      44.045 -19.153   2.934  1.00  0.00     0.002 A 
HETATM   24  C   UNL     1      43.027 -18.535   2.221  1.00  0.00     0.002 A 
HETATM   25  C   UNL     1      42.442 -17.368   2.717  1.00  0.00     0.033 A 
ENDBRANCH   5  19
TORSDOF 5
ENDMDL
MODEL 2
REMARK VINA RESULT:      -7.5      3.544      6.469
REMARK  5 active torsions:
REMARK  status: ('A' for Active; 'I' for Inactive)
REMARK    1  A    between atoms: C_3  and  N_4 
REMARK       I    between atoms: N_4  and  C_5 
REMARK       I    between atoms: C_5  and  N_6 
REMARK    2  A    between atoms: N_6  and  C_7 
REMARK    3  A    between atoms: C_7  and  C_8 
REMARK    4  A    between atoms: C_8  and  C_9 
REMARK    5  A    between atoms: N_15  and  C_16 
ROOT
HETATM    1  C   UNL     1      40.247 -12.701   5.028  1.00  0.00     0.054 C 
HETATM    2  C   UNL     1      41.209 -13.605   4.355  1.00  0.00     0.003 A 
HETATM    3  C   UNL     1      42.127 -13.310   3.320  1.00  0.00     0.159 A 
HETATM    4  N   UNL     1      42.846 -14.383   2.985  1.00  0.00    -0.149 NA
HETATM    5  N   UNL     1      42.384 -15.402   3.760  1.00  0.00    -0.241 N 
HETATM    6  C   UNL     1      41.421 -14.941   4.627  1.00  0.00     0.129 A 
ENDROOT
BRANCH   3   7
HETATM    7  N   UNL     1      42.285 -12.066   2.747  1.00  0.00    -0.291 N 
HETATM    8  C   UNL     1      41.736 -11.579   1.598  1.00  0.00     0.322 C 
HETATM    9  N   UNL     1      40.835 -12.371   0.961  1.00  0.00    -0.339 N 
HETATM   10  O   UNL     1      42.036 -10.450   1.213  1.00  0.00    -0.247 OA
HETATM   11  H   UNL     1      40.811 -13.336   1.288  1.00  0.00     0.164 HD
HETATM   12  H   UNL     1      42.881 -11.405   3.219  1.00  0.00     0.172 HD
BRANCH   9  13
HETATM   13  C   UNL     1      40.198 -12.023  -0.297  1.00  0.00     0.082 C 
HETATM   14  C   UNL     1      38.770 -11.549  -0.041  1.00  0.00     0.032 C 
BRANCH  13  15
HETATM   15  C   UNL     1      40.270 -13.169  -1.325  1.00  0.00     0.029 C 
BRANCH  15  16
HETATM   16  C   UNL     1      38.951 -13.845  -1.589  1.00  0.00    -0.013 A 
HETATM   17  C   UNL     1      38.334 -13.844  -2.965  1.00  0.00     0.005 A 
HETATM   18  C   UNL     1      38.923 -15.110  -2.409  1.00  0.00     0.005 A 
ENDBRANCH  15  16
ENDBRANCH  13  15
ENDBRANCH   9  13
ENDBRANCH   3   7
BRANCH   5  19
HETATM   19  C   UNL     1      42.957 -16.703   3.623  1.00  0.00     0.079 A 
HETATM   20  C   UNL     1      43.907 -17.259   4.497  1.00  0.00     0.062 A 
HETATM   21 CL   UNL     1      44.429 -16.565   5.991  1.00  0.00    -0.082 Cl
HETATM   22  C   UNL     1      44.436 -18.535   4.232  1.00  0.00     0.026 A 
HETATM   23  C   UNL     1      44.023 -19.271   3.122  1.00  0.00     0.002 A 
HETATM   24  C   UNL     1      43.064 -18.745   2.269  1.00  0.00     0.002 A 
HETATM   25  C   UNL     1      42.532 -17.478   2.519  1.00  0.00     0.033 A 
ENDBRANCH   5  19
TORSDOF 5
ENDMDL
MODEL 3
REMARK VINA RESULT:      -7.4      3.020      4.549
REMARK  5 active torsions:
REMARK  status: ('A' for Active; 'I' for Inactive)
REMARK    1  A    between atoms: C_3  and  N_4 
REMARK       I    between atoms: N_4  and  C_5 
REMARK       I    between atoms: C_5  and  N_6 
REMARK    2  A    between atoms: N_6  and  C_7 
REMARK    3  A    between atoms: C_7  and  C_8 
REMARK    4  A    between atoms: C_8  and  C_9 
REMARK    5  A    between atoms: N_15  and  C_16 
ROOT
HETATM    1  C   UNL     1      44.069 -13.892   6.813  1.00  0.00     0.054 C 
HETATM    2  C   UNL     1      43.525 -15.142   6.232  1.00  0.00     0.003 A 
HETATM    3  C   UNL     1      42.176 -15.557   6.128  1.00  0.00     0.159 A 
HETATM    4  N   UNL     1      42.075 -16.741   5.522  1.00  0.00    -0.149 NA
HETATM    5  N   UNL     1      43.351 -17.139   5.260  1.00  0.00    -0.241 N 
HETATM    6  C   UNL     1      44.242 -16.164   5.644  1.00  0.00     0.129 A 
ENDROOT
BRANCH   3   7
HETATM    7  N   UNL     1      41.097 -14.821   6.568  1.00  0.00    -0.291 N 
HETATM    8  C   UNL     1      40.270 -14.006   5.853  1.00  0.00     0.322 C 
HETATM    9  N   UNL     1      40.455 -13.969   4.507  1.00  0.00    -0.339 N 
HETATM   10  O   UNL     1      39.382 -13.384   6.431  1.00  0.00    -0.247 OA
HETATM   11  H   UNL     1      41.325 -14.391   4.186  1.00  0.00     0.164 HD
HETATM   12  H   UNL     1      40.862 -14.873   7.547  1.00  0.00     0.172 HD
BRANCH   9  13
HETATM   13  C   UNL     1      39.696 -13.117   3.609  1.00  0.00     0.082 C 
HETATM   14  C   UNL     1      39.578 -13.781   2.240  1.00  0.00     0.032 C 
BRANCH  13  15
HETATM   15  C   UNL     1      40.271 -11.689   3.531  1.00  0.00     0.029 C 
BRANCH  15  16
HETATM   16  C   UNL     1      41.665 -11.555   4.083  1.00  0.00    -0.013 A 
HETATM   17  C   UNL     1      42.837 -11.261   3.180  1.00  0.00     0.005 A 
HETATM   18  C   UNL     1      42.320 -10.197   4.106  1.00  0.00     0.005 A 
ENDBRANCH  15  16
ENDBRANCH  13  15
ENDBRANCH   9  13
ENDBRANCH   3   7
BRANCH   5  19
HETATM   19  C   UNL     1      43.577 -18.393   4.615  1.00  0.00     0.079 A 
HETATM   20  C   UNL     1      43.518 -18.606   3.228  1.00  0.00     0.062 A 
HETATM   21 CL   UNL     1      43.345 -17.376   2.026  1.00  0.00    -0.082 Cl
HETATM   22  C   UNL     1      43.712 -19.900   2.711  1.00  0.00     0.026 A 
HETATM   23  C   UNL     1      43.979 -20.980   3.552  1.00  0.00     0.002 A 
HETATM   24  C   UNL     1      44.069 -20.776   4.922  1.00  0.00     0.002 A 
HETATM   25  C   UNL     1      43.876 -19.497   5.448  1.00  0.00     0.033 A 
ENDBRANCH   5  19
TORSDOF 5
ENDMDL
MODEL 4
REMARK VINA RESULT:      -7.4      4.527      7.741
REMARK  5 active torsions:
REMARK  status: ('A' for Active; 'I' for Inactive)
REMARK    1  A    between atoms: C_3  and  N_4 
REMARK       I    between atoms: N_4  and  C_5 
REMARK       I    between atoms: C_5  and  N_6 
REMARK    2  A    between atoms: N_6  and  C_7 
REMARK    3  A    between atoms: C_7  and  C_8 
REMARK    4  A    between atoms: C_8  and  C_9 
REMARK    5  A    between atoms: N_15  and  C_16 
ROOT
HETATM    1  C   UNL     1      41.966 -12.065   3.985  1.00  0.00     0.054 C 
HETATM    2  C   UNL     1      41.284 -12.751   2.862  1.00  0.00     0.003 A 
HETATM    3  C   UNL     1      40.574 -13.975   2.873  1.00  0.00     0.159 A 
HETATM    4  N   UNL     1      40.077 -14.261   1.668  1.00  0.00    -0.149 NA
HETATM    5  N   UNL     1      40.488 -13.257   0.844  1.00  0.00    -0.241 N 
HETATM    6  C   UNL     1      41.184 -12.310   1.559  1.00  0.00     0.129 A 
ENDROOT
BRANCH   3   7
HETATM    7  N   UNL     1      40.390 -14.762   3.989  1.00  0.00    -0.291 N 
HETATM    8  C   UNL     1      41.059 -15.890   4.359  1.00  0.00     0.322 C 
HETATM    9  N   UNL     1      42.117 -16.259   3.591  1.00  0.00    -0.339 N 
HETATM   10  O   UNL     1      40.717 -16.494   5.374  1.00  0.00    -0.247 OA
HETATM   11  H   UNL     1      42.181 -15.777   2.695  1.00  0.00     0.164 HD
HETATM   12  H   UNL     1      39.669 -14.491   4.640  1.00  0.00     0.172 HD
BRANCH   9  13
HETATM   13  C   UNL     1      42.903 -17.459   3.817  1.00  0.00     0.082 C 
HETATM   14  C   UNL     1      44.056 -17.152   4.769  1.00  0.00     0.032 C 
BRANCH  13  15
HETATM   15  C   UNL     1      43.374 -18.107   2.501  1.00  0.00     0.029 C 
BRANCH  15  16
HETATM   16  C   UNL     1      42.955 -19.544   2.337  1.00  0.00    -0.013 A 
HETATM   17  C   UNL     1      43.858 -20.549   1.666  1.00  0.00     0.005 A 
HETATM   18  C   UNL     1      43.644 -20.610   3.152  1.00  0.00     0.005 A 
ENDBRANCH  15  16
ENDBRANCH  13  15
ENDBRANCH   9  13
ENDBRANCH   3   7
BRANCH   5  19
HETATM   19  C   UNL     1      40.118 -13.285  -0.535  1.00  0.00     0.079 A 
HETATM   20  C   UNL     1      40.300 -12.225  -1.438  1.00  0.00     0.062 A 
HETATM   21 CL   UNL     1      41.160 -10.761  -1.114  1.00  0.00    -0.082 Cl
HETATM   22  C   UNL     1      39.851 -12.353  -2.765  1.00  0.00     0.026 A 
HETATM   23  C   UNL     1      39.240 -13.525  -3.210  1.00  0.00     0.002 A 
HETATM   24  C   UNL     1      39.083 -14.590  -2.334  1.00  0.00     0.002 A 
HETATM   25  C   UNL     1      39.521 -14.475  -1.014  1.00  0.00     0.033 A 
ENDBRANCH   5  19
TORSDOF 5
ENDMDL
MODEL 5
REMARK VINA RESULT:      -7.4      3.126      5.941
REMARK  5 active torsions:
REMARK  status: ('A' for Active; 'I' for Inactive)
REMARK    1  A    between atoms: C_3  and  N_4 
REMARK       I    between atoms: N_4  and  C_5 
REMARK       I    between atoms: C_5  and  N_6 
REMARK    2  A    between atoms: N_6  and  C_7 
REMARK    3  A    between atoms: C_7  and  C_8 
REMARK    4  A    between atoms: C_8  and  C_9 
REMARK    5  A    between atoms: N_15  and  C_16 
ROOT
HETATM    1  C   UNL     1      43.848 -13.688   6.846  1.00  0.00     0.054 C 
HETATM    2  C   UNL     1      43.399 -14.874   6.081  1.00  0.00     0.003 A 
HETATM    3  C   UNL     1      42.195 -15.060   5.362  1.00  0.00     0.159 A 
HETATM    4  N   UNL     1      42.155 -16.260   4.779  1.00  0.00    -0.149 NA
HETATM    5  N   UNL     1      43.305 -16.892   5.141  1.00  0.00    -0.241 N 
HETATM    6  C   UNL     1      44.092 -16.053   5.895  1.00  0.00     0.129 A 
ENDROOT
BRANCH   3   7
HETATM    7  N   UNL     1      41.199 -14.114   5.247  1.00  0.00    -0.291 N 
HETATM    8  C   UNL     1      40.500 -13.740   4.139  1.00  0.00     0.322 C 
HETATM    9  N   UNL     1      40.729 -14.443   2.999  1.00  0.00    -0.339 N 
HETATM   10  O   UNL     1      39.676 -12.830   4.219  1.00  0.00    -0.247 OA
HETATM   11  H   UNL     1      41.550 -15.044   3.029  1.00  0.00     0.164 HD
HETATM   12  H   UNL     1      40.930 -13.614   6.080  1.00  0.00     0.172 HD
BRANCH   9  13
HETATM   13  C   UNL     1      40.105 -14.140   1.723  1.00  0.00     0.082 C 
HETATM   14  C   UNL     1      39.985 -15.414   0.890  1.00  0.00     0.032 C 
BRANCH  13  15
HETATM   15  C   UNL     1      40.829 -13.005   0.972  1.00  0.00     0.029 C 
BRANCH  15  16
HETATM   16  C   UNL     1      40.557 -12.973  -0.508  1.00  0.00    -0.013 A 
HETATM   17  C   UNL     1      39.527 -12.039  -1.093  1.00  0.00     0.005 A 
HETATM   18  C   UNL     1      40.990 -11.772  -1.310  1.00  0.00     0.005 A 
ENDBRANCH  15  16
ENDBRANCH  13  15
ENDBRANCH   9  13
ENDBRANCH   3   7
BRANCH   5  19
HETATM   19  C   UNL     1      43.553 -18.220   4.677  1.00  0.00     0.079 A 
HETATM   20  C   UNL     1      43.546 -18.614   3.329  1.00  0.00     0.062 A 
HETATM   21 CL   UNL     1      43.419 -17.554   1.969  1.00  0.00    -0.082 Cl
HETATM   22  C   UNL     1      43.757 -19.965   2.995  1.00  0.00     0.026 A 
HETATM   23  C   UNL     1      43.991 -20.923   3.981  1.00  0.00     0.002 A 
HETATM   24  C   UNL     1      44.030 -20.539   5.314  1.00  0.00     0.002 A 
HETATM   25  C   UNL     1      43.819 -19.203   5.658  1.00  0.00     0.033 A 
ENDBRANCH   5  19
TORSDOF 5
ENDMDL
MODEL 6
REMARK VINA RESULT:      -7.3      3.635      6.251
REMARK  5 active torsions:
REMARK  status: ('A' for Active; 'I' for Inactive)
REMARK    1  A    between atoms: C_3  and  N_4 
REMARK       I    between atoms: N_4  and  C_5 
REMARK       I    between atoms: C_5  and  N_6 
REMARK    2  A    between atoms: N_6  and  C_7 
REMARK    3  A    between atoms: C_7  and  C_8 
REMARK    4  A    between atoms: C_8  and  C_9 
REMARK    5  A    between atoms: N_15  and  C_16 
ROOT
HETATM    1  C   UNL     1      42.201 -12.282   5.559  1.00  0.00     0.054 C 
HETATM    2  C   UNL     1      42.061 -13.644   4.991  1.00  0.00     0.003 A 
HETATM    3  C   UNL     1      40.992 -14.183   4.237  1.00  0.00     0.159 A 
HETATM    4  N   UNL     1      41.235 -15.445   3.879  1.00  0.00    -0.149 NA
HETATM    5  N   UNL     1      42.440 -15.765   4.427  1.00  0.00    -0.241 N 
HETATM    6  C   UNL     1      42.976 -14.673   5.068  1.00  0.00     0.129 A 
ENDROOT
BRANCH   3   7
HETATM    7  N   UNL     1      39.854 -13.487   3.887  1.00  0.00    -0.291 N 
HETATM    8  C   UNL     1      39.393 -13.176   2.643  1.00  0.00     0.322 C 
HETATM    9  N   UNL     1      40.077 -13.688   1.586  1.00  0.00    -0.339 N 
HETATM   10  O   UNL     1      38.375 -12.496   2.525  1.00  0.00    -0.247 OA
HETATM   11  H   UNL     1      40.987 -14.081   1.819  1.00  0.00     0.164 HD
HETATM   12  H   UNL     1      39.263 -13.150   4.631  1.00  0.00     0.172 HD
BRANCH   9  13
HETATM   13  C   UNL     1      39.747 -13.411   0.199  1.00  0.00     0.082 C 
HETATM   14  C   UNL     1      39.715 -14.715  -0.596  1.00  0.00     0.032 C 
BRANCH  13  15
HETATM   15  C   UNL     1      40.682 -12.357  -0.425  1.00  0.00     0.029 C 
BRANCH  15  16
HETATM   16  C   UNL     1      40.294 -11.936  -1.819  1.00  0.00    -0.013 A 
HETATM   17  C   UNL     1      41.016 -10.816  -2.525  1.00  0.00     0.005 A 
HETATM   18  C   UNL     1      41.227 -12.238  -2.964  1.00  0.00     0.005 A 
ENDBRANCH  15  16
ENDBRANCH  13  15
ENDBRANCH   9  13
ENDBRANCH   3   7
BRANCH   5  19
HETATM   19  C   UNL     1      42.976 -17.074   4.228  1.00  0.00     0.079 A 
HETATM   20  C   UNL     1      43.501 -17.891   5.242  1.00  0.00     0.062 A 
HETATM   21 CL   UNL     1      43.438 -17.559   6.937  1.00  0.00    -0.082 Cl
HETATM   22  C   UNL     1      44.046 -19.146   4.915  1.00  0.00     0.026 A 
HETATM   23  C   UNL     1      44.062 -19.605   3.599  1.00  0.00     0.002 A 
HETATM   24  C   UNL     1      43.519 -18.819   2.593  1.00  0.00     0.002 A 
HETATM   25  C   UNL     1      42.977 -17.570   2.903  1.00  0.00     0.033 A 
ENDBRANCH   5  19
TORSDOF 5
ENDMDL
MODEL 7
REMARK VINA RESULT:      -7.2      3.738      6.371
REMARK  5 active torsions:
REMARK  status: ('A' for Active; 'I' for Inactive)
REMARK    1  A    between atoms: C_3  and  N_4 
REMARK       I    between atoms: N_4  and  C_5 
REMARK       I    between atoms: C_5  and  N_6 
REMARK    2  A    between atoms: N_6  and  C_7 
REMARK    3  A    between atoms: C_7  and  C_8 
REMARK    4  A    between atoms: C_8  and  C_9 
REMARK    5  A    between atoms: N_15  and  C_16 
ROOT
HETATM    1  C   UNL     1      41.868 -12.056   5.932  1.00  0.00     0.054 C 
HETATM    2  C   UNL     1      41.847 -13.394   5.297  1.00  0.00     0.003 A 
HETATM    3  C   UNL     1      40.884 -13.941   4.417  1.00  0.00     0.159 A 
HETATM    4  N   UNL     1      41.219 -15.175   4.033  1.00  0.00    -0.149 NA
HETATM    5  N   UNL     1      42.377 -15.470   4.686  1.00  0.00    -0.241 N 
HETATM    6  C   UNL     1      42.796 -14.388   5.424  1.00  0.00     0.129 A 
ENDROOT
BRANCH   3   7
HETATM    7  N   UNL     1      39.757 -13.277   3.982  1.00  0.00    -0.291 N 
HETATM    8  C   UNL     1      39.338 -13.052   2.704  1.00  0.00     0.322 C 
HETATM    9  N   UNL     1      40.060 -13.629   1.708  1.00  0.00    -0.339 N 
HETATM   10  O   UNL     1      38.322 -12.388   2.507  1.00  0.00    -0.247 OA
HETATM   11  H   UNL     1      40.963 -14.000   1.998  1.00  0.00     0.164 HD
HETATM   12  H   UNL     1      39.139 -12.896   4.681  1.00  0.00     0.172 HD
BRANCH   9  13
HETATM   13  C   UNL     1      39.778 -13.447   0.295  1.00  0.00     0.082 C 
HETATM   14  C   UNL     1      39.821 -14.795  -0.420  1.00  0.00     0.032 C 
BRANCH  13  15
HETATM   15  C   UNL     1      40.701 -12.399  -0.356  1.00  0.00     0.029 C 
BRANCH  15  16
HETATM   16  C   UNL     1      40.198 -11.864  -1.670  1.00  0.00    -0.013 A 
HETATM   17  C   UNL     1      41.040 -10.936  -2.509  1.00  0.00     0.005 A 
HETATM   18  C   UNL     1      40.822 -12.355  -2.952  1.00  0.00     0.005 A 
ENDBRANCH  15  16
ENDBRANCH  13  15
ENDBRANCH   9  13
ENDBRANCH   3   7
BRANCH   5  19
HETATM   19  C   UNL     1      42.989 -16.745   4.487  1.00  0.00     0.079 A 
HETATM   20  C   UNL     1      43.370 -17.269   3.241  1.00  0.00     0.062 A 
HETATM   21 CL   UNL     1      43.344 -16.414   1.738  1.00  0.00    -0.082 Cl
HETATM   22  C   UNL     1      43.922 -18.560   3.166  1.00  0.00     0.026 A 
HETATM   23  C   UNL     1      44.115 -19.330   4.312  1.00  0.00     0.002 A 
HETATM   24  C   UNL     1      43.770 -18.812   5.552  1.00  0.00     0.002 A 
HETATM   25  C   UNL     1      43.218 -17.532   5.640  1.00  0.00     0.033 A 
ENDBRANCH   5  19
TORSDOF 5
ENDMDL
MODEL 8
REMARK VINA RESULT:      -7.1      2.497      7.481
REMARK  5 active torsions:
REMARK  status: ('A' for Active; 'I' for Inactive)
REMARK    1  A    between atoms: C_3  and  N_4 
REMARK       I    between atoms: N_4  and  C_5 
REMARK       I    between atoms: C_5  and  N_6 
REMARK    2  A    between atoms: N_6  and  C_7 
REMARK    3  A    between atoms: C_7  and  C_8 
REMARK    4  A    between atoms: C_8  and  C_9 
REMARK    5  A    between atoms: N_15  and  C_16 
ROOT
HETATM    1  C   UNL     1      41.215 -11.717   1.995  1.00  0.00     0.054 C 
HETATM    2  C   UNL     1      41.825 -11.897   3.333  1.00  0.00     0.003 A 
HETATM    3  C   UNL     1      41.682 -12.980   4.233  1.00  0.00     0.159 A 
HETATM    4  N   UNL     1      42.406 -12.796   5.338  1.00  0.00    -0.149 NA
HETATM    5  N   UNL     1      42.997 -11.576   5.200  1.00  0.00    -0.241 N 
HETATM    6  C   UNL     1      42.691 -11.036   3.973  1.00  0.00     0.129 A 
ENDROOT
BRANCH   3   7
HETATM    7  N   UNL     1      40.917 -14.101   3.990  1.00  0.00    -0.291 N 
HETATM    8  C   UNL     1      41.298 -15.410   3.983  1.00  0.00     0.322 C 
HETATM    9  N   UNL     1      42.577 -15.681   4.352  1.00  0.00    -0.339 N 
HETATM   10  O   UNL     1      40.479 -16.279   3.690  1.00  0.00    -0.247 OA
HETATM   11  H   UNL     1      43.188 -14.868   4.398  1.00  0.00     0.164 HD
HETATM   12  H   UNL     1      39.938 -13.966   3.788  1.00  0.00     0.172 HD
BRANCH   9  13
HETATM   13  C   UNL     1      43.155 -17.014   4.349  1.00  0.00     0.082 C 
HETATM   14  C   UNL     1      44.339 -17.068   5.312  1.00  0.00     0.032 C 
BRANCH  13  15
HETATM   15  C   UNL     1      43.520 -17.490   2.930  1.00  0.00     0.029 C 
BRANCH  15  16
HETATM   16  C   UNL     1      43.035 -18.878   2.601  1.00  0.00    -0.013 A 
HETATM   17  C   UNL     1      43.881 -19.828   1.791  1.00  0.00     0.005 A 
HETATM   18  C   UNL     1      43.692 -20.063   3.263  1.00  0.00     0.005 A 
ENDBRANCH  15  16
ENDBRANCH  13  15
ENDBRANCH   9  13
ENDBRANCH   3   7
BRANCH   5  19
HETATM   19  C   UNL     1      43.841 -11.084   6.242  1.00  0.00     0.079 A 
HETATM   20  C   UNL     1      43.419 -10.255   7.295  1.00  0.00     0.062 A 
HETATM   21 CL   UNL     1      41.782  -9.820   7.641  1.00  0.00    -0.082 Cl
HETATM   22  C   UNL     1      44.355  -9.794   8.238  1.00  0.00     0.026 A 
HETATM   23  C   UNL     1      45.699 -10.157   8.158  1.00  0.00     0.002 A 
HETATM   24  C   UNL     1      46.121 -10.999   7.140  1.00  0.00     0.002 A 
HETATM   25  C   UNL     1      45.203 -11.462   6.195  1.00  0.00     0.033 A 
ENDBRANCH   5  19
TORSDOF 5
ENDMDL
MODEL 9
REMARK VINA RESULT:      -7.0      6.360      9.105
REMARK  5 active torsions:
REMARK  status: ('A' for Active; 'I' for Inactive)
REMARK    1  A    between atoms: C_3  and  N_4 
REMARK       I    between atoms: N_4  and  C_5 
REMARK       I    between atoms: C_5  and  N_6 
REMARK    2  A    between atoms: N_6  and  C_7 
REMARK    3  A    between atoms: C_7  and  C_8 
REMARK    4  A    between atoms: C_8  and  C_9 
REMARK    5  A    between atoms: N_15  and  C_16 
ROOT
HETATM    1  C   UNL     1      39.392 -14.412  -2.581  1.00  0.00     0.054 C 
HETATM    2  C   UNL     1      39.873 -13.103  -2.079  1.00  0.00     0.003 A 
HETATM    3  C   UNL     1      39.892 -12.617  -0.750  1.00  0.00     0.159 A 
HETATM    4  N   UNL     1      40.422 -11.394  -0.686  1.00  0.00    -0.149 NA
HETATM    5  N   UNL     1      40.716 -11.044  -1.969  1.00  0.00    -0.241 N 
HETATM    6  C   UNL     1      40.431 -12.084  -2.823  1.00  0.00     0.129 A 
ENDROOT
BRANCH   3   7
HETATM    7  N   UNL     1      39.449 -13.325   0.347  1.00  0.00    -0.291 N 
HETATM    8  C   UNL     1      40.177 -13.860   1.368  1.00  0.00     0.322 C 
HETATM    9  N   UNL     1      41.509 -13.596   1.380  1.00  0.00    -0.339 N 
HETATM   10  O   UNL     1      39.607 -14.511   2.242  1.00  0.00    -0.247 OA
HETATM   11  H   UNL     1      41.872 -13.199   0.515  1.00  0.00     0.164 HD
HETATM   12  H   UNL     1      38.458 -13.484   0.433  1.00  0.00     0.172 HD
BRANCH   9  13
HETATM   13  C   UNL     1      42.431 -14.131   2.367  1.00  0.00     0.082 C 
HETATM   14  C   UNL     1      43.036 -12.991   3.182  1.00  0.00     0.032 C 
BRANCH  13  15
HETATM   15  C   UNL     1      43.500 -15.043   1.734  1.00  0.00     0.029 C 
BRANCH  15  16
HETATM   16  C   UNL     1      43.082 -16.484   1.602  1.00  0.00    -0.013 A 
HETATM   17  C   UNL     1      43.453 -17.503   2.650  1.00  0.00     0.005 A 
HETATM   18  C   UNL     1      42.030 -17.033   2.533  1.00  0.00     0.005 A 
ENDBRANCH  15  16
ENDBRANCH  13  15
ENDBRANCH   9  13
ENDBRANCH   3   7
BRANCH   5  19
HETATM   19  C   UNL     1      41.296  -9.765  -2.232  1.00  0.00     0.079 A 
HETATM   20  C   UNL     1      40.976  -8.948  -3.328  1.00  0.00     0.062 A 
HETATM   21 CL   UNL     1      39.704  -9.237  -4.464  1.00  0.00    -0.082 Cl
HETATM   22  C   UNL     1      41.650  -7.727  -3.509  1.00  0.00     0.026 A 
HETATM   23  C   UNL     1      42.624  -7.300  -2.607  1.00  0.00     0.002 A 
HETATM   24  C   UNL     1      42.927  -8.085  -1.504  1.00  0.00     0.002 A 
HETATM   25  C   UNL     1      42.267  -9.302  -1.314  1.00  0.00     0.033 A 
ENDBRANCH   5  19
TORSDOF 5
ENDMDL
MODEL 10
REMARK VINA RESULT:      -6.9      1.692      2.001
REMARK  5 active torsions:
REMARK  status: ('A' for Active; 'I' for Inactive)
REMARK    1  A    between atoms: C_3  and  N_4 
REMARK       I    between atoms: N_4  and  C_5 
REMARK       I    between atoms: C_5  and  N_6 
REMARK    2  A    between atoms: N_6  and  C_7 
REMARK    3  A    between atoms: C_7  and  C_8 
REMARK    4  A    between atoms: C_8  and  C_9 
REMARK    5  A    between atoms: N_15  and  C_16 
ROOT
HETATM    1  C   UNL     1      39.298 -12.344   2.737  1.00  0.00     0.054 C 
HETATM    2  C   UNL     1      40.347 -13.120   3.440  1.00  0.00     0.003 A 
HETATM    3  C   UNL     1      41.165 -12.723   4.524  1.00  0.00     0.159 A 
HETATM    4  N   UNL     1      41.982 -13.707   4.905  1.00  0.00    -0.149 NA
HETATM    5  N   UNL     1      41.745 -14.742   4.052  1.00  0.00    -0.241 N 
HETATM    6  C   UNL     1      40.727 -14.421   3.185  1.00  0.00     0.129 A 
ENDROOT
BRANCH   3   7
HETATM    7  N   UNL     1      41.108 -11.489   5.135  1.00  0.00    -0.291 N 
HETATM    8  C   UNL     1      42.076 -10.840   5.842  1.00  0.00     0.322 C 
HETATM    9  N   UNL     1      43.302 -11.423   5.886  1.00  0.00    -0.339 N 
HETATM   10  O   UNL     1      41.823  -9.756   6.364  1.00  0.00    -0.247 OA
HETATM   11  H   UNL     1      43.325 -12.390   5.565  1.00  0.00     0.164 HD
HETATM   12  H   UNL     1      40.245 -10.972   5.067  1.00  0.00     0.172 HD
BRANCH   9  13
HETATM   13  C   UNL     1      44.426 -10.889   6.636  1.00  0.00     0.082 C 
HETATM   14  C   UNL     1      45.736 -11.367   6.015  1.00  0.00     0.032 C 
BRANCH  13  15
HETATM   15  C   UNL     1      44.329 -11.207   8.141  1.00  0.00     0.029 C 
BRANCH  15  16
HETATM   16  C   UNL     1      44.383  -9.994   9.032  1.00  0.00    -0.013 A 
HETATM   17  C   UNL     1      45.146 -10.015  10.333  1.00  0.00     0.005 A 
HETATM   18  C   UNL     1      45.680  -9.236   9.164  1.00  0.00     0.005 A 
ENDBRANCH  15  16
ENDBRANCH  13  15
ENDBRANCH   9  13
ENDBRANCH   3   7
BRANCH   5  19
HETATM   19  C   UNL     1      42.485 -15.955   4.199  1.00  0.00     0.079 A 
HETATM   20  C   UNL     1      43.136 -16.632   3.154  1.00  0.00     0.062 A 
HETATM   21 CL   UNL     1      43.324 -16.047   1.538  1.00  0.00    -0.082 Cl
HETATM   22  C   UNL     1      43.795 -17.847   3.412  1.00  0.00     0.026 A 
HETATM   23  C   UNL     1      43.830 -18.390   4.696  1.00  0.00     0.002 A 
HETATM   24  C   UNL     1      43.217 -17.715   5.742  1.00  0.00     0.002 A 
HETATM   25  C   UNL     1      42.556 -16.509   5.498  1.00  0.00     0.033 A 
ENDBRANCH   5  19
TORSDOF 5
ENDMDL
