MODEL 1
REMARK VINA RESULT:      -9.2      0.000      0.000
REMARK  7 active torsions:
REMARK  status: ('A' for Active; 'I' for Inactive)
REMARK    1  A    between atoms: C_2  and  O_3 
REMARK    2  A    between atoms: O_3  and  C_4 
REMARK    3  A    between atoms: C_7  and  N_8 
REMARK    4  A    between atoms: C_9  and  C_11 
REMARK    5  A    between atoms: C_9  and  O_10 
REMARK       I    between atoms: C_11  and  N_12 
REMARK    6  A    between atoms: N_12  and  C_13 
REMARK    7  A    between atoms: C_13  and  C_14 
ROOT
HETATM    1  N   UNL     1      40.447 -13.597   3.659  1.00  0.00    -0.254 N 
HETATM    2  C   UNL     1      40.529 -14.377   2.408  1.00  0.00     0.256 C 
HETATM    3  C   UNL     1      40.020 -13.617   1.196  1.00  0.00     0.034 A 
HETATM    4  C   UNL     1      39.127 -12.572   1.407  1.00  0.00     0.048 A 
HETATM    5  N   UNL     1      38.794 -12.223   2.709  1.00  0.00    -0.308 N 
HETATM    6  C   UNL     1      39.409 -12.691   3.833  1.00  0.00     0.330 C 
HETATM    7  O   UNL     1      39.048 -12.225   4.914  1.00  0.00    -0.246 OA
HETATM    8  C   UNL     1      40.325 -13.972  -0.130  1.00  0.00     0.015 A 
HETATM    9  C   UNL     1      39.774 -13.266  -1.203  1.00  0.00     0.001 A 
HETATM   10  C   UNL     1      38.890 -12.216  -0.968  1.00  0.00     0.002 A 
HETATM   11  C   UNL     1      38.556 -11.873   0.340  1.00  0.00     0.030 A 
HETATM   12  H   UNL     1      38.114 -11.495   2.879  1.00  0.00     0.170 HD
ENDROOT
BRANCH   2  13
HETATM   13  C   UNL     1      41.972 -14.965   2.102  1.00  0.00     0.279 C 
HETATM   14  N   UNL     1      42.010 -16.351   2.070  1.00  0.00    -0.352 N 
HETATM   15  H   UNL     1      41.117 -16.823   1.964  1.00  0.00     0.162 HD
HETATM   16  O   UNL     1      42.980 -14.282   1.929  1.00  0.00    -0.268 OA
BRANCH  14  17
HETATM   17  C   UNL     1      43.221 -17.060   1.742  1.00  0.00     0.161 C 
BRANCH  17  18
HETATM   18  C   UNL     1      43.439 -18.204   2.695  1.00  0.00    -0.040 A 
HETATM   19  C   UNL     1      43.704 -17.964   4.053  1.00  0.00     0.012 A 
HETATM   20  C   UNL     1      43.929 -19.030   4.926  1.00  0.00     0.043 A 
HETATM   21  C   UNL     1      43.896 -20.333   4.442  1.00  0.00     0.116 A 
HETATM   22  F   UNL     1      44.112 -21.354   5.281  1.00  0.00    -0.206 F 
HETATM   23  C   UNL     1      43.646 -20.591   3.099  1.00  0.00     0.043 A 
HETATM   24  C   UNL     1      43.422 -19.528   2.223  1.00  0.00     0.012 A 
ENDBRANCH  17  18
ENDBRANCH  14  17
ENDBRANCH   2  13
BRANCH   2  25
HETATM   25  O   UNL     1      39.622 -15.487   2.564  1.00  0.00    -0.359 OA
HETATM   26  H   UNL     1      39.421 -15.755   1.653  1.00  0.00     0.213 HD
ENDBRANCH   2  25
BRANCH   1  27
HETATM   27  C   UNL     1      41.133 -14.077   4.820  1.00  0.00     0.043 A 
HETATM   28  C   UNL     1      42.216 -13.373   5.363  1.00  0.00     0.032 A 
HETATM   29  C   UNL     1      42.895 -13.855   6.490  1.00  0.00     0.039 A 
HETATM   30  C   UNL     1      42.513 -15.061   7.076  1.00  0.00     0.068 A 
HETATM   31  C   UNL     1      41.444 -15.772   6.528  1.00  0.00     0.039 A 
HETATM   32  C   UNL     1      40.769 -15.293   5.403  1.00  0.00     0.032 A 
BRANCH  30  33
HETATM   33  O   UNL     1      43.093 -15.650   8.163  1.00  0.00    -0.352 OA
BRANCH  33  34
HETATM   34  C   UNL     1      43.965 -16.750   7.916  1.00  0.00     0.171 C 
HETATM   35  C   UNL     1      45.013 -16.296   6.916  1.00  0.00     0.034 C 
ENDBRANCH  33  34
ENDBRANCH  30  33
ENDBRANCH   1  27
TORSDOF 7
ENDMDL
MODEL 2
REMARK VINA RESULT:      -9.2      2.579      3.440
REMARK  7 active torsions:
REMARK  status: ('A' for Active; 'I' for Inactive)
REMARK    1  A    between atoms: C_2  and  O_3 
REMARK    2  A    between atoms: O_3  and  C_4 
REMARK    3  A    between atoms: C_7  and  N_8 
REMARK    4  A    between atoms: C_9  and  C_11 
REMARK    5  A    between atoms: C_9  and  O_10 
REMARK       I    between atoms: C_11  and  N_12 
REMARK    6  A    between atoms: N_12  and  C_13 
REMARK    7  A    between atoms: C_13  and  C_14 
ROOT
HETATM    1  N   UNL     1      41.597 -12.257   3.696  1.00  0.00    -0.254 N 
HETATM    2  C   UNL     1      40.805 -13.500   3.782  1.00  0.00     0.256 C 
HETATM    3  C   UNL     1      40.504 -14.111   2.425  1.00  0.00     0.034 A 
HETATM    4  C   UNL     1      40.530 -13.278   1.312  1.00  0.00     0.048 A 
HETATM    5  N   UNL     1      40.896 -11.949   1.474  1.00  0.00    -0.308 N 
HETATM    6  C   UNL     1      41.422 -11.409   2.611  1.00  0.00     0.330 C 
HETATM    7  O   UNL     1      41.769 -10.228   2.571  1.00  0.00    -0.246 OA
HETATM    8  C   UNL     1      40.106 -15.448   2.244  1.00  0.00     0.015 A 
HETATM    9  C   UNL     1      39.785 -15.932   0.973  1.00  0.00     0.001 A 
HETATM   10  C   UNL     1      39.828 -15.082  -0.128  1.00  0.00     0.002 A 
HETATM   11  C   UNL     1      40.192 -13.748   0.040  1.00  0.00     0.030 A 
HETATM   12  H   UNL     1      40.879 -11.319   0.684  1.00  0.00     0.170 HD
ENDROOT
BRANCH   2  13
HETATM   13  C   UNL     1      41.429 -14.603   4.739  1.00  0.00     0.279 C 
HETATM   14  N   UNL     1      42.610 -15.149   4.261  1.00  0.00    -0.352 N 
HETATM   15  H   UNL     1      43.086 -14.623   3.533  1.00  0.00     0.162 HD
HETATM   16  O   UNL     1      40.922 -14.972   5.797  1.00  0.00    -0.268 OA
BRANCH  14  17
HETATM   17  C   UNL     1      43.353 -16.117   5.027  1.00  0.00     0.161 C 
BRANCH  17  18
HETATM   18  C   UNL     1      43.477 -17.410   4.268  1.00  0.00    -0.040 A 
HETATM   19  C   UNL     1      44.060 -18.538   4.866  1.00  0.00     0.012 A 
HETATM   20  C   UNL     1      44.195 -19.728   4.147  1.00  0.00     0.043 A 
HETATM   21  C   UNL     1      43.752 -19.788   2.831  1.00  0.00     0.116 A 
HETATM   22  F   UNL     1      43.881 -20.930   2.144  1.00  0.00    -0.206 F 
HETATM   23  C   UNL     1      43.181 -18.680   2.217  1.00  0.00     0.043 A 
HETATM   24  C   UNL     1      43.047 -17.489   2.931  1.00  0.00     0.012 A 
ENDBRANCH  17  18
ENDBRANCH  14  17
ENDBRANCH   2  13
BRANCH   2  25
HETATM   25  O   UNL     1      39.521 -13.123   4.318  1.00  0.00    -0.359 OA
HETATM   26  H   UNL     1      39.403 -12.206   4.019  1.00  0.00     0.213 HD
ENDBRANCH   2  25
BRANCH   1  27
HETATM   27  C   UNL     1      42.181 -11.724   4.889  1.00  0.00     0.043 A 
HETATM   28  C   UNL     1      41.415 -10.990   5.805  1.00  0.00     0.032 A 
HETATM   29  C   UNL     1      41.995 -10.457   6.964  1.00  0.00     0.039 A 
HETATM   30  C   UNL     1      43.356 -10.631   7.210  1.00  0.00     0.068 A 
HETATM   31  C   UNL     1      44.124 -11.347   6.292  1.00  0.00     0.039 A 
HETATM   32  C   UNL     1      43.548 -11.878   5.136  1.00  0.00     0.032 A 
BRANCH  30  33
HETATM   33  O   UNL     1      44.049 -10.155   8.287  1.00  0.00    -0.352 OA
BRANCH  33  34
HETATM   34  C   UNL     1      45.446 -10.436   8.334  1.00  0.00     0.171 C 
HETATM   35  C   UNL     1      46.187  -9.111   8.309  1.00  0.00     0.034 C 
ENDBRANCH  33  34
ENDBRANCH  30  33
ENDBRANCH   1  27
TORSDOF 7
ENDMDL
MODEL 3
REMARK VINA RESULT:      -9.1      1.790      5.845
REMARK  7 active torsions:
REMARK  status: ('A' for Active; 'I' for Inactive)
REMARK    1  A    between atoms: C_2  and  O_3 
REMARK    2  A    between atoms: O_3  and  C_4 
REMARK    3  A    between atoms: C_7  and  N_8 
REMARK    4  A    between atoms: C_9  and  C_11 
REMARK    5  A    between atoms: C_9  and  O_10 
REMARK       I    between atoms: C_11  and  N_12 
REMARK    6  A    between atoms: N_12  and  C_13 
REMARK    7  A    between atoms: C_13  and  C_14 
ROOT
HETATM    1  N   UNL     1      40.870 -13.773   2.412  1.00  0.00    -0.254 N 
HETATM    2  C   UNL     1      42.257 -13.985   2.872  1.00  0.00     0.256 C 
HETATM    3  C   UNL     1      42.362 -14.213   4.369  1.00  0.00     0.034 A 
HETATM    4  C   UNL     1      41.336 -13.735   5.177  1.00  0.00     0.048 A 
HETATM    5  N   UNL     1      40.235 -13.135   4.582  1.00  0.00    -0.308 N 
HETATM    6  C   UNL     1      39.965 -13.131   3.245  1.00  0.00     0.330 C 
HETATM    7  O   UNL     1      38.904 -12.621   2.881  1.00  0.00    -0.246 OA
HETATM    8  C   UNL     1      43.481 -14.795   4.992  1.00  0.00     0.015 A 
HETATM    9  C   UNL     1      43.539 -14.922   6.382  1.00  0.00     0.001 A 
HETATM   10  C   UNL     1      42.495 -14.445   7.171  1.00  0.00     0.002 A 
HETATM   11  C   UNL     1      41.394 -13.840   6.569  1.00  0.00     0.030 A 
HETATM   12  H   UNL     1      39.501 -12.742   5.156  1.00  0.00     0.170 HD
ENDROOT
BRANCH   2  13
HETATM   13  C   UNL     1      43.030 -15.137   2.099  1.00  0.00     0.279 C 
HETATM   14  N   UNL     1      42.582 -16.412   2.413  1.00  0.00    -0.352 N 
HETATM   15  H   UNL     1      41.671 -16.471   2.860  1.00  0.00     0.162 HD
HETATM   16  O   UNL     1      43.953 -14.948   1.310  1.00  0.00    -0.268 OA
BRANCH  14  17
HETATM   17  C   UNL     1      43.121 -17.577   1.760  1.00  0.00     0.161 C 
BRANCH  17  18
HETATM   18  C   UNL     1      43.502 -18.623   2.773  1.00  0.00    -0.040 A 
HETATM   19  C   UNL     1      43.515 -19.983   2.426  1.00  0.00     0.012 A 
HETATM   20  C   UNL     1      43.846 -20.951   3.377  1.00  0.00     0.043 A 
HETATM   21  C   UNL     1      44.156 -20.559   4.674  1.00  0.00     0.116 A 
HETATM   22  F   UNL     1      44.474 -21.488   5.585  1.00  0.00    -0.206 F 
HETATM   23  C   UNL     1      44.138 -19.219   5.041  1.00  0.00     0.043 A 
HETATM   24  C   UNL     1      43.806 -18.249   4.094  1.00  0.00     0.012 A 
ENDBRANCH  17  18
ENDBRANCH  14  17
ENDBRANCH   2  13
BRANCH   2  25
HETATM   25  O   UNL     1      42.955 -12.746   2.631  1.00  0.00    -0.359 OA
HETATM   26  H   UNL     1      43.683 -12.999   2.041  1.00  0.00     0.213 HD
ENDBRANCH   2  25
BRANCH   1  27
HETATM   27  C   UNL     1      40.592 -13.815   1.009  1.00  0.00     0.043 A 
HETATM   28  C   UNL     1      40.890 -12.727   0.178  1.00  0.00     0.032 A 
HETATM   29  C   UNL     1      40.600 -12.767  -1.193  1.00  0.00     0.039 A 
HETATM   30  C   UNL     1      39.988 -13.889  -1.746  1.00  0.00     0.068 A 
HETATM   31  C   UNL     1      39.676 -14.969  -0.919  1.00  0.00     0.039 A 
HETATM   32  C   UNL     1      39.962 -14.929   0.447  1.00  0.00     0.032 A 
BRANCH  30  33
HETATM   33  O   UNL     1      39.640 -14.055  -3.057  1.00  0.00    -0.352 OA
BRANCH  33  34
HETATM   34  C   UNL     1      38.324 -14.535  -3.322  1.00  0.00     0.171 C 
HETATM   35  C   UNL     1      37.344 -13.440  -2.943  1.00  0.00     0.034 C 
ENDBRANCH  33  34
ENDBRANCH  30  33
ENDBRANCH   1  27
TORSDOF 7
ENDMDL
MODEL 4
REMARK VINA RESULT:      -9.0      3.025      6.824
REMARK  7 active torsions:
REMARK  status: ('A' for Active; 'I' for Inactive)
REMARK    1  A    between atoms: C_2  and  O_3 
REMARK    2  A    between atoms: O_3  and  C_4 
REMARK    3  A    between atoms: C_7  and  N_8 
REMARK    4  A    between atoms: C_9  and  C_11 
REMARK    5  A    between atoms: C_9  and  O_10 
REMARK       I    between atoms: C_11  and  N_12 
REMARK    6  A    between atoms: N_12  and  C_13 
REMARK    7  A    between atoms: C_13  and  C_14 
ROOT
HETATM    1  N   UNL     1      42.573 -15.247   4.646  1.00  0.00    -0.254 N 
HETATM    2  C   UNL     1      42.534 -15.820   3.286  1.00  0.00     0.256 C 
HETATM    3  C   UNL     1      42.966 -17.274   3.238  1.00  0.00     0.034 A 
HETATM    4  C   UNL     1      43.778 -17.750   4.262  1.00  0.00     0.048 A 
HETATM    5  N   UNL     1      44.100 -16.903   5.313  1.00  0.00    -0.308 N 
HETATM    6  C   UNL     1      43.539 -15.682   5.543  1.00  0.00     0.330 C 
HETATM    7  O   UNL     1      43.878 -15.084   6.565  1.00  0.00    -0.246 OA
HETATM    8  C   UNL     1      42.671 -18.139   2.169  1.00  0.00     0.015 A 
HETATM    9  C   UNL     1      43.150 -19.452   2.158  1.00  0.00     0.001 A 
HETATM   10  C   UNL     1      43.953 -19.910   3.200  1.00  0.00     0.002 A 
HETATM   11  C   UNL     1      44.277 -19.055   4.250  1.00  0.00     0.030 A 
HETATM   12  H   UNL     1      44.725 -17.219   6.043  1.00  0.00     0.170 HD
ENDROOT
BRANCH   2  13
HETATM   13  C   UNL     1      41.137 -15.652   2.550  1.00  0.00     0.279 C 
HETATM   14  N   UNL     1      41.231 -15.019   1.319  1.00  0.00    -0.352 N 
HETATM   15  H   UNL     1      42.156 -14.983   0.902  1.00  0.00     0.162 HD
HETATM   16  O   UNL     1      40.058 -16.019   3.013  1.00  0.00    -0.268 OA
BRANCH  14  17
HETATM   17  C   UNL     1      40.074 -14.838   0.480  1.00  0.00     0.161 C 
BRANCH  17  18
HETATM   18  C   UNL     1      40.365 -13.850  -0.617  1.00  0.00    -0.040 A 
HETATM   19  C   UNL     1      40.909 -12.591  -0.320  1.00  0.00     0.012 A 
HETATM   20  C   UNL     1      41.154 -11.669  -1.340  1.00  0.00     0.043 A 
HETATM   21  C   UNL     1      40.849 -12.004  -2.654  1.00  0.00     0.116 A 
HETATM   22  F   UNL     1      41.085 -11.119  -3.631  1.00  0.00    -0.206 F 
HETATM   23  C   UNL     1      40.299 -13.241  -2.968  1.00  0.00     0.043 A 
HETATM   24  C   UNL     1      40.052 -14.164  -1.951  1.00  0.00     0.012 A 
ENDBRANCH  17  18
ENDBRANCH  14  17
ENDBRANCH   2  13
BRANCH   2  25
HETATM   25  O   UNL     1      43.527 -15.107   2.520  1.00  0.00    -0.359 OA
HETATM   26  H   UNL     1      43.753 -15.721   1.803  1.00  0.00     0.213 HD
ENDBRANCH   2  25
BRANCH   1  27
HETATM   27  C   UNL     1      41.942 -13.985   4.884  1.00  0.00     0.043 A 
HETATM   28  C   UNL     1      42.480 -12.798   4.369  1.00  0.00     0.032 A 
HETATM   29  C   UNL     1      41.867 -11.562   4.619  1.00  0.00     0.039 A 
HETATM   30  C   UNL     1      40.721 -11.496   5.407  1.00  0.00     0.068 A 
HETATM   31  C   UNL     1      40.191 -12.674   5.935  1.00  0.00     0.039 A 
HETATM   32  C   UNL     1      40.803 -13.906   5.689  1.00  0.00     0.032 A 
BRANCH  30  33
HETATM   33  O   UNL     1      40.033 -10.362   5.739  1.00  0.00    -0.352 OA
BRANCH  33  34
HETATM   34  C   UNL     1      38.650 -10.319   5.395  1.00  0.00     0.171 C 
HETATM   35  C   UNL     1      38.549  -9.966   3.923  1.00  0.00     0.034 C 
ENDBRANCH  33  34
ENDBRANCH  30  33
ENDBRANCH   1  27
TORSDOF 7
ENDMDL
MODEL 5
REMARK VINA RESULT:      -8.7      1.901      4.362
REMARK  7 active torsions:
REMARK  status: ('A' for Active; 'I' for Inactive)
REMARK    1  A    between atoms: C_2  and  O_3 
REMARK    2  A    between atoms: O_3  and  C_4 
REMARK    3  A    between atoms: C_7  and  N_8 
REMARK    4  A    between atoms: C_9  and  C_11 
REMARK    5  A    between atoms: C_9  and  O_10 
REMARK       I    between atoms: C_11  and  N_12 
REMARK    6  A    between atoms: N_12  and  C_13 
REMARK    7  A    between atoms: C_13  and  C_14 
ROOT
HETATM    1  N   UNL     1      40.485 -13.915   1.544  1.00  0.00    -0.254 N 
HETATM    2  C   UNL     1      40.581 -12.644   2.289  1.00  0.00     0.256 C 
HETATM    3  C   UNL     1      39.419 -11.705   2.023  1.00  0.00     0.034 A 
HETATM    4  C   UNL     1      38.709 -11.862   0.837  1.00  0.00     0.048 A 
HETATM    5  N   UNL     1      39.045 -12.906  -0.015  1.00  0.00    -0.308 N 
HETATM    6  C   UNL     1      39.899 -13.926   0.286  1.00  0.00     0.330 C 
HETATM    7  O   UNL     1      40.033 -14.820  -0.551  1.00  0.00    -0.246 OA
HETATM    8  C   UNL     1      39.080 -10.627   2.861  1.00  0.00     0.015 A 
HETATM    9  C   UNL     1      38.033  -9.764   2.526  1.00  0.00     0.001 A 
HETATM   10  C   UNL     1      37.331  -9.947   1.338  1.00  0.00     0.002 A 
HETATM   11  C   UNL     1      37.674 -10.993   0.485  1.00  0.00     0.030 A 
HETATM   12  H   UNL     1      38.569 -13.009  -0.901  1.00  0.00     0.170 HD
ENDROOT
BRANCH   2  13
HETATM   13  C   UNL     1      40.778 -12.822   3.856  1.00  0.00     0.279 C 
HETATM   14  N   UNL     1      42.107 -12.852   4.248  1.00  0.00    -0.352 N 
HETATM   15  H   UNL     1      42.782 -12.492   3.579  1.00  0.00     0.162 HD
HETATM   16  O   UNL     1      39.857 -12.945   4.662  1.00  0.00    -0.268 OA
BRANCH  14  17
HETATM   17  C   UNL     1      42.476 -12.941   5.637  1.00  0.00     0.161 C 
BRANCH  17  18
HETATM   18  C   UNL     1      42.711 -14.374   6.032  1.00  0.00    -0.040 A 
HETATM   19  C   UNL     1      43.975 -14.964   5.869  1.00  0.00     0.012 A 
HETATM   20  C   UNL     1      44.179 -16.301   6.214  1.00  0.00     0.043 A 
HETATM   21  C   UNL     1      43.121 -17.049   6.717  1.00  0.00     0.116 A 
HETATM   22  F   UNL     1      43.319 -18.332   7.048  1.00  0.00    -0.206 F 
HETATM   23  C   UNL     1      41.860 -16.488   6.876  1.00  0.00     0.043 A 
HETATM   24  C   UNL     1      41.651 -15.152   6.530  1.00  0.00     0.012 A 
ENDBRANCH  17  18
ENDBRANCH  14  17
ENDBRANCH   2  13
BRANCH   2  25
HETATM   25  O   UNL     1      41.742 -11.961   1.772  1.00  0.00    -0.359 OA
HETATM   26  H   UNL     1      42.454 -12.220   2.380  1.00  0.00     0.213 HD
ENDBRANCH   2  25
BRANCH   1  27
HETATM   27  C   UNL     1      41.356 -14.994   1.899  1.00  0.00     0.043 A 
HETATM   28  C   UNL     1      40.939 -16.003   2.777  1.00  0.00     0.032 A 
HETATM   29  C   UNL     1      41.801 -17.048   3.133  1.00  0.00     0.039 A 
HETATM   30  C   UNL     1      43.101 -17.085   2.634  1.00  0.00     0.068 A 
HETATM   31  C   UNL     1      43.526 -16.073   1.772  1.00  0.00     0.039 A 
HETATM   32  C   UNL     1      42.667 -15.029   1.418  1.00  0.00     0.032 A 
BRANCH  30  33
HETATM   33  O   UNL     1      44.046 -18.033   2.909  1.00  0.00    -0.352 OA
BRANCH  33  34
HETATM   34  C   UNL     1      43.576 -19.335   3.251  1.00  0.00     0.171 C 
HETATM   35  C   UNL     1      43.456 -20.138   1.968  1.00  0.00     0.034 C 
ENDBRANCH  33  34
ENDBRANCH  30  33
ENDBRANCH   1  27
TORSDOF 7
ENDMDL
MODEL 6
REMARK VINA RESULT:      -8.3      2.307      3.375
REMARK  7 active torsions:
REMARK  status: ('A' for Active; 'I' for Inactive)
REMARK    1  A    between atoms: C_2  and  O_3 
REMARK    2  A    between atoms: O_3  and  C_4 
REMARK    3  A    between atoms: C_7  and  N_8 
REMARK    4  A    between atoms: C_9  and  C_11 
REMARK    5  A    between atoms: C_9  and  O_10 
REMARK       I    between atoms: C_11  and  N_12 
REMARK    6  A    between atoms: N_12  and  C_13 
REMARK    7  A    between atoms: C_13  and  C_14 
ROOT
HETATM    1  N   UNL     1      40.370 -11.376   1.735  1.00  0.00    -0.254 N 
HETATM    2  C   UNL     1      39.451 -12.321   1.069  1.00  0.00     0.256 C 
HETATM    3  C   UNL     1      38.980 -11.838  -0.290  1.00  0.00     0.034 A 
HETATM    4  C   UNL     1      39.014 -10.471  -0.548  1.00  0.00     0.048 A 
HETATM    5  N   UNL     1      39.540  -9.619   0.414  1.00  0.00    -0.308 N 
HETATM    6  C   UNL     1      40.209 -10.012   1.536  1.00  0.00     0.330 C 
HETATM    7  O   UNL     1      40.682  -9.130   2.253  1.00  0.00    -0.246 OA
HETATM    8  C   UNL     1      38.421 -12.682  -1.266  1.00  0.00     0.015 A 
HETATM    9  C   UNL     1      37.951 -12.164  -2.476  1.00  0.00     0.001 A 
HETATM   10  C   UNL     1      38.005 -10.793  -2.715  1.00  0.00     0.002 A 
HETATM   11  C   UNL     1      38.529  -9.942  -1.745  1.00  0.00     0.030 A 
HETATM   12  H   UNL     1      39.533  -8.620   0.262  1.00  0.00     0.170 HD
ENDROOT
BRANCH   2  13
HETATM   13  C   UNL     1      40.018 -13.800   0.944  1.00  0.00     0.279 C 
HETATM   14  N   UNL     1      39.500 -14.674   1.888  1.00  0.00    -0.352 N 
HETATM   15  H   UNL     1      38.648 -14.377   2.356  1.00  0.00     0.162 HD
HETATM   16  O   UNL     1      40.852 -14.157   0.114  1.00  0.00    -0.268 OA
BRANCH  14  17
HETATM   17  C   UNL     1      39.849 -16.071   1.887  1.00  0.00     0.161 C 
BRANCH  17  18
HETATM   18  C   UNL     1      41.075 -16.311   2.726  1.00  0.00    -0.040 A 
HETATM   19  C   UNL     1      42.264 -16.773   2.142  1.00  0.00     0.012 A 
HETATM   20  C   UNL     1      43.390 -17.017   2.930  1.00  0.00     0.043 A 
HETATM   21  C   UNL     1      43.325 -16.805   4.302  1.00  0.00     0.116 A 
HETATM   22  F   UNL     1      44.406 -17.039   5.057  1.00  0.00    -0.206 F 
HETATM   23  C   UNL     1      42.154 -16.359   4.903  1.00  0.00     0.043 A 
HETATM   24  C   UNL     1      41.026 -16.115   4.118  1.00  0.00     0.012 A 
ENDBRANCH  17  18
ENDBRANCH  14  17
ENDBRANCH   2  13
BRANCH   2  25
HETATM   25  O   UNL     1      38.263 -12.369   1.884  1.00  0.00    -0.359 OA
HETATM   26  H   UNL     1      37.644 -11.773   1.431  1.00  0.00     0.213 HD
ENDBRANCH   2  25
BRANCH   1  27
HETATM   27  C   UNL     1      41.099 -11.815   2.886  1.00  0.00     0.043 A 
HETATM   28  C   UNL     1      42.442 -12.203   2.787  1.00  0.00     0.032 A 
HETATM   29  C   UNL     1      43.147 -12.647   3.913  1.00  0.00     0.039 A 
HETATM   30  C   UNL     1      42.512 -12.729   5.150  1.00  0.00     0.068 A 
HETATM   31  C   UNL     1      41.171 -12.358   5.250  1.00  0.00     0.039 A 
HETATM   32  C   UNL     1      40.466 -11.918   4.127  1.00  0.00     0.032 A 
BRANCH  30  33
HETATM   33  O   UNL     1      43.074 -13.155   6.321  1.00  0.00    -0.352 OA
BRANCH  33  34
HETATM   34  C   UNL     1      44.376 -12.664   6.630  1.00  0.00     0.171 C 
HETATM   35  C   UNL     1      44.213 -11.386   7.432  1.00  0.00     0.034 C 
ENDBRANCH  33  34
ENDBRANCH  30  33
ENDBRANCH   1  27
TORSDOF 7
ENDMDL
MODEL 7
REMARK VINA RESULT:      -8.2      3.224      6.303
REMARK  7 active torsions:
REMARK  status: ('A' for Active; 'I' for Inactive)
REMARK    1  A    between atoms: C_2  and  O_3 
REMARK    2  A    between atoms: O_3  and  C_4 
REMARK    3  A    between atoms: C_7  and  N_8 
REMARK    4  A    between atoms: C_9  and  C_11 
REMARK    5  A    between atoms: C_9  and  O_10 
REMARK       I    between atoms: C_11  and  N_12 
REMARK    6  A    between atoms: N_12  and  C_13 
REMARK    7  A    between atoms: C_13  and  C_14 
ROOT
HETATM    1  N   UNL     1      40.821 -13.772   4.623  1.00  0.00    -0.254 N 
HETATM    2  C   UNL     1      40.092 -12.793   3.793  1.00  0.00     0.256 C 
HETATM    3  C   UNL     1      39.706 -11.536   4.551  1.00  0.00     0.034 A 
HETATM    4  C   UNL     1      39.605 -11.612   5.936  1.00  0.00     0.048 A 
HETATM    5  N   UNL     1      39.927 -12.805   6.569  1.00  0.00    -0.308 N 
HETATM    6  C   UNL     1      40.521 -13.879   5.975  1.00  0.00     0.330 C 
HETATM    7  O   UNL     1      40.812 -14.837   6.692  1.00  0.00    -0.246 OA
HETATM    8  C   UNL     1      39.352 -10.327   3.926  1.00  0.00     0.015 A 
HETATM    9  C   UNL     1      38.948  -9.223   4.682  1.00  0.00     0.001 A 
HETATM   10  C   UNL     1      38.864  -9.320   6.068  1.00  0.00     0.002 A 
HETATM   11  C   UNL     1      39.183 -10.520   6.699  1.00  0.00     0.030 A 
HETATM   12  H   UNL     1      39.817 -12.892   7.571  1.00  0.00     0.170 HD
ENDROOT
BRANCH   2  13
HETATM   13  C   UNL     1      40.839 -12.398   2.448  1.00  0.00     0.279 C 
HETATM   14  N   UNL     1      40.186 -12.831   1.303  1.00  0.00    -0.352 N 
HETATM   15  H   UNL     1      39.210 -13.091   1.414  1.00  0.00     0.162 HD
HETATM   16  O   UNL     1      41.905 -11.787   2.398  1.00  0.00    -0.268 OA
BRANCH  14  17
HETATM   17  C   UNL     1      40.683 -12.508  -0.010  1.00  0.00     0.161 C 
BRANCH  17  18
HETATM   18  C   UNL     1      39.744 -13.015  -1.070  1.00  0.00    -0.040 A 
HETATM   19  C   UNL     1      40.107 -14.095  -1.891  1.00  0.00     0.012 A 
HETATM   20  C   UNL     1      39.240 -14.545  -2.889  1.00  0.00     0.043 A 
HETATM   21  C   UNL     1      38.016 -13.912  -3.071  1.00  0.00     0.116 A 
HETATM   22  F   UNL     1      37.187 -14.345  -4.029  1.00  0.00    -0.206 F 
HETATM   23  C   UNL     1      37.643 -12.834  -2.278  1.00  0.00     0.043 A 
HETATM   24  C   UNL     1      38.507 -12.381  -1.280  1.00  0.00     0.012 A 
ENDBRANCH  17  18
ENDBRANCH  14  17
ENDBRANCH   2  13
BRANCH   2  25
HETATM   25  O   UNL     1      38.842 -13.418   3.438  1.00  0.00    -0.359 OA
HETATM   26  H   UNL     1      38.545 -12.920   2.659  1.00  0.00     0.213 HD
ENDBRANCH   2  25
BRANCH   1  27
HETATM   27  C   UNL     1      41.478 -14.871   3.983  1.00  0.00     0.043 A 
HETATM   28  C   UNL     1      42.876 -14.939   3.917  1.00  0.00     0.032 A 
HETATM   29  C   UNL     1      43.514 -16.009   3.275  1.00  0.00     0.039 A 
HETATM   30  C   UNL     1      42.761 -17.013   2.670  1.00  0.00     0.068 A 
HETATM   31  C   UNL     1      41.369 -16.940   2.720  1.00  0.00     0.039 A 
HETATM   32  C   UNL     1      40.731 -15.873   3.358  1.00  0.00     0.032 A 
BRANCH  30  33
HETATM   33  O   UNL     1      43.252 -18.099   2.002  1.00  0.00    -0.352 OA
BRANCH  33  34
HETATM   34  C   UNL     1      43.187 -19.356   2.673  1.00  0.00     0.171 C 
HETATM   35  C   UNL     1      43.613 -20.430   1.690  1.00  0.00     0.034 C 
ENDBRANCH  33  34
ENDBRANCH  30  33
ENDBRANCH   1  27
TORSDOF 7
ENDMDL
MODEL 8
REMARK VINA RESULT:      -8.0      4.487      7.363
REMARK  7 active torsions:
REMARK  status: ('A' for Active; 'I' for Inactive)
REMARK    1  A    between atoms: C_2  and  O_3 
REMARK    2  A    between atoms: O_3  and  C_4 
REMARK    3  A    between atoms: C_7  and  N_8 
REMARK    4  A    between atoms: C_9  and  C_11 
REMARK    5  A    between atoms: C_9  and  O_10 
REMARK       I    between atoms: C_11  and  N_12 
REMARK    6  A    between atoms: N_12  and  C_13 
REMARK    7  A    between atoms: C_13  and  C_14 
ROOT
HETATM    1  N   UNL     1      40.820 -12.527   4.084  1.00  0.00    -0.254 N 
HETATM    2  C   UNL     1      41.814 -13.435   4.691  1.00  0.00     0.256 C 
HETATM    3  C   UNL     1      42.001 -14.723   3.910  1.00  0.00     0.034 A 
HETATM    4  C   UNL     1      40.967 -15.141   3.079  1.00  0.00     0.048 A 
HETATM    5  N   UNL     1      39.845 -14.336   2.945  1.00  0.00    -0.308 N 
HETATM    6  C   UNL     1      39.728 -13.060   3.412  1.00  0.00     0.330 C 
HETATM    7  O   UNL     1      38.693 -12.449   3.144  1.00  0.00    -0.246 OA
HETATM    8  C   UNL     1      43.119 -15.564   4.053  1.00  0.00     0.015 A 
HETATM    9  C   UNL     1      43.203 -16.768   3.347  1.00  0.00     0.001 A 
HETATM   10  C   UNL     1      42.159 -17.161   2.513  1.00  0.00     0.002 A 
HETATM   11  C   UNL     1      41.033 -16.352   2.385  1.00  0.00     0.030 A 
HETATM   12  H   UNL     1      39.065 -14.645   2.380  1.00  0.00     0.170 HD
ENDROOT
BRANCH   2  13
HETATM   13  C   UNL     1      43.227 -12.763   4.963  1.00  0.00     0.279 C 
HETATM   14  N   UNL     1      43.591 -12.759   6.301  1.00  0.00    -0.352 N 
HETATM   15  H   UNL     1      43.086 -13.400   6.906  1.00  0.00     0.162 HD
HETATM   16  O   UNL     1      43.941 -12.267   4.092  1.00  0.00    -0.268 OA
BRANCH  14  17
HETATM   17  C   UNL     1      44.869 -12.249   6.728  1.00  0.00     0.161 C 
BRANCH  17  18
HETATM   18  C   UNL     1      44.717 -10.882   7.338  1.00  0.00    -0.040 A 
HETATM   19  C   UNL     1      45.839 -10.174   7.796  1.00  0.00     0.012 A 
HETATM   20  C   UNL     1      45.688  -8.916   8.384  1.00  0.00     0.043 A 
HETATM   21  C   UNL     1      44.417  -8.371   8.519  1.00  0.00     0.116 A 
HETATM   22  F   UNL     1      44.275  -7.164   9.082  1.00  0.00    -0.206 F 
HETATM   23  C   UNL     1      43.292  -9.060   8.082  1.00  0.00     0.043 A 
HETATM   24  C   UNL     1      43.439 -10.318   7.496  1.00  0.00     0.012 A 
ENDBRANCH  17  18
ENDBRANCH  14  17
ENDBRANCH   2  13
BRANCH   2  25
HETATM   25  O   UNL     1      41.265 -13.841   5.961  1.00  0.00    -0.359 OA
HETATM   26  H   UNL     1      41.909 -14.484   6.299  1.00  0.00     0.213 HD
ENDBRANCH   2  25
BRANCH   1  27
HETATM   27  C   UNL     1      40.738 -11.177   4.553  1.00  0.00     0.043 A 
HETATM   28  C   UNL     1      40.100 -10.868   5.761  1.00  0.00     0.032 A 
HETATM   29  C   UNL     1      40.008  -9.542   6.208  1.00  0.00     0.039 A 
HETATM   30  C   UNL     1      40.534  -8.506   5.439  1.00  0.00     0.068 A 
HETATM   31  C   UNL     1      41.156  -8.809   4.227  1.00  0.00     0.039 A 
HETATM   32  C   UNL     1      41.246 -10.130   3.780  1.00  0.00     0.032 A 
BRANCH  30  33
HETATM   33  O   UNL     1      40.502  -7.175   5.747  1.00  0.00    -0.352 OA
BRANCH  33  34
HETATM   34  C   UNL     1      40.480  -6.831   7.130  1.00  0.00     0.171 C 
HETATM   35  C   UNL     1      41.613  -5.853   7.384  1.00  0.00     0.034 C 
ENDBRANCH  33  34
ENDBRANCH  30  33
ENDBRANCH   1  27
TORSDOF 7
ENDMDL
MODEL 9
REMARK VINA RESULT:      -8.0      3.999      7.278
REMARK  7 active torsions:
REMARK  status: ('A' for Active; 'I' for Inactive)
REMARK    1  A    between atoms: C_2  and  O_3 
REMARK    2  A    between atoms: O_3  and  C_4 
REMARK    3  A    between atoms: C_7  and  N_8 
REMARK    4  A    between atoms: C_9  and  C_11 
REMARK    5  A    between atoms: C_9  and  O_10 
REMARK       I    between atoms: C_11  and  N_12 
REMARK    6  A    between atoms: N_12  and  C_13 
REMARK    7  A    between atoms: C_13  and  C_14 
ROOT
HETATM    1  N   UNL     1      41.065 -10.350   7.289  1.00  0.00    -0.254 N 
HETATM    2  C   UNL     1      42.518 -10.095   7.365  1.00  0.00     0.256 C 
HETATM    3  C   UNL     1      43.001  -9.801   8.773  1.00  0.00     0.034 A 
HETATM    4  C   UNL     1      42.076  -9.321   9.695  1.00  0.00     0.048 A 
HETATM    5  N   UNL     1      40.747  -9.200   9.313  1.00  0.00    -0.308 N 
HETATM    6  C   UNL     1      40.210  -9.686   8.158  1.00  0.00     0.330 C 
HETATM    7  O   UNL     1      38.995  -9.564   8.000  1.00  0.00    -0.246 OA
HETATM    8  C   UNL     1      44.347  -9.893   9.170  1.00  0.00     0.015 A 
HETATM    9  C   UNL     1      44.734  -9.549  10.469  1.00  0.00     0.001 A 
HETATM   10  C   UNL     1      43.789  -9.082  11.377  1.00  0.00     0.002 A 
HETATM   11  C   UNL     1      42.457  -8.957  10.989  1.00  0.00     0.030 A 
HETATM   12  H   UNL     1      40.070  -8.812   9.956  1.00  0.00     0.170 HD
ENDROOT
BRANCH   2  13
HETATM   13  C   UNL     1      43.412 -11.239   6.721  1.00  0.00     0.279 C 
HETATM   14  N   UNL     1      43.157 -12.500   7.238  1.00  0.00    -0.352 N 
HETATM   15  H   UNL     1      42.280 -12.611   7.739  1.00  0.00     0.162 HD
HETATM   16  O   UNL     1      44.271 -11.050   5.861  1.00  0.00    -0.268 OA
BRANCH  14  17
HETATM   17  C   UNL     1      43.826 -13.669   6.728  1.00  0.00     0.161 C 
BRANCH  17  18
HETATM   18  C   UNL     1      42.940 -14.408   5.763  1.00  0.00    -0.040 A 
HETATM   19  C   UNL     1      42.926 -14.071   4.400  1.00  0.00     0.012 A 
HETATM   20  C   UNL     1      42.083 -14.745   3.514  1.00  0.00     0.043 A 
HETATM   21  C   UNL     1      41.251 -15.750   3.991  1.00  0.00     0.116 A 
HETATM   22  F   UNL     1      40.443 -16.396   3.140  1.00  0.00    -0.206 F 
HETATM   23  C   UNL     1      41.240 -16.092   5.338  1.00  0.00     0.043 A 
HETATM   24  C   UNL     1      42.080 -15.420   6.226  1.00  0.00     0.012 A 
ENDBRANCH  17  18
ENDBRANCH  14  17
ENDBRANCH   2  13
BRANCH   2  25
HETATM   25  O   UNL     1      42.753  -8.880   6.624  1.00  0.00    -0.359 OA
HETATM   26  H   UNL     1      43.590  -9.047   6.162  1.00  0.00     0.213 HD
ENDBRANCH   2  25
BRANCH   1  27
HETATM   27  C   UNL     1      40.520 -10.902   6.087  1.00  0.00     0.043 A 
HETATM   28  C   UNL     1      40.485 -10.158   4.899  1.00  0.00     0.032 A 
HETATM   29  C   UNL     1      39.935 -10.698   3.729  1.00  0.00     0.039 A 
HETATM   30  C   UNL     1      39.393 -11.981   3.736  1.00  0.00     0.068 A 
HETATM   31  C   UNL     1      39.412 -12.718   4.920  1.00  0.00     0.039 A 
HETATM   32  C   UNL     1      39.958 -12.181   6.089  1.00  0.00     0.032 A 
BRANCH  30  33
HETATM   33  O   UNL     1      38.816 -12.620   2.675  1.00  0.00    -0.352 OA
BRANCH  33  34
HETATM   34  C   UNL     1      39.320 -12.307   1.379  1.00  0.00     0.171 C 
HETATM   35  C   UNL     1      39.914 -13.574   0.792  1.00  0.00     0.034 C 
ENDBRANCH  33  34
ENDBRANCH  30  33
ENDBRANCH   1  27
TORSDOF 7
ENDMDL
MODEL 10
REMARK VINA RESULT:      -7.9      3.497      6.716
REMARK  7 active torsions:
REMARK  status: ('A' for Active; 'I' for Inactive)
REMARK    1  A    between atoms: C_2  and  O_3 
REMARK    2  A    between atoms: O_3  and  C_4 
REMARK    3  A    between atoms: C_7  and  N_8 
REMARK    4  A    between atoms: C_9  and  C_11 
REMARK    5  A    between atoms: C_9  and  O_10 
REMARK       I    between atoms: C_11  and  N_12 
REMARK    6  A    between atoms: N_12  and  C_13 
REMARK    7  A    between atoms: C_13  and  C_14 
ROOT
HETATM    1  N   UNL     1      41.033 -13.263   4.705  1.00  0.00    -0.254 N 
HETATM    2  C   UNL     1      42.137 -13.241   3.724  1.00  0.00     0.256 C 
HETATM    3  C   UNL     1      42.444 -14.608   3.140  1.00  0.00     0.034 A 
HETATM    4  C   UNL     1      42.073 -15.731   3.871  1.00  0.00     0.048 A 
HETATM    5  N   UNL     1      41.380 -15.559   5.062  1.00  0.00    -0.308 N 
HETATM    6  C   UNL     1      40.854 -14.382   5.506  1.00  0.00     0.330 C 
HETATM    7  O   UNL     1      40.199 -14.410   6.549  1.00  0.00    -0.246 OA
HETATM    8  C   UNL     1      43.167 -14.802   1.949  1.00  0.00     0.015 A 
HETATM    9  C   UNL     1      43.467 -16.089   1.496  1.00  0.00     0.001 A 
HETATM   10  C   UNL     1      43.076 -17.199   2.241  1.00  0.00     0.002 A 
HETATM   11  C   UNL     1      42.386 -17.021   3.437  1.00  0.00     0.030 A 
HETATM   12  H   UNL     1      41.141 -16.362   5.629  1.00  0.00     0.170 HD
ENDROOT
BRANCH   2  13
HETATM   13  C   UNL     1      41.942 -12.189   2.550  1.00  0.00     0.279 C 
HETATM   14  N   UNL     1      40.945 -12.538   1.652  1.00  0.00    -0.352 N 
HETATM   15  H   UNL     1      40.282 -13.240   1.967  1.00  0.00     0.162 HD
HETATM   16  O   UNL     1      42.612 -11.166   2.415  1.00  0.00    -0.268 OA
BRANCH  14  17
HETATM   17  C   UNL     1      40.584 -11.671   0.560  1.00  0.00     0.161 C 
BRANCH  17  18
HETATM   18  C   UNL     1      40.049 -12.470  -0.597  1.00  0.00    -0.040 A 
HETATM   19  C   UNL     1      39.688 -11.839  -1.798  1.00  0.00     0.012 A 
HETATM   20  C   UNL     1      39.170 -12.585  -2.859  1.00  0.00     0.043 A 
HETATM   21  C   UNL     1      39.007 -13.958  -2.717  1.00  0.00     0.116 A 
HETATM   22  F   UNL     1      38.510 -14.671  -3.736  1.00  0.00    -0.206 F 
HETATM   23  C   UNL     1      39.348 -14.600  -1.533  1.00  0.00     0.043 A 
HETATM   24  C   UNL     1      39.865 -13.859  -0.470  1.00  0.00     0.012 A 
ENDBRANCH  17  18
ENDBRANCH  14  17
ENDBRANCH   2  13
BRANCH   2  25
HETATM   25  O   UNL     1      43.321 -12.871   4.459  1.00  0.00    -0.359 OA
HETATM   26  H   UNL     1      43.385 -11.911   4.330  1.00  0.00     0.213 HD
ENDBRANCH   2  25
BRANCH   1  27
HETATM   27  C   UNL     1      40.460 -12.022   5.130  1.00  0.00     0.043 A 
HETATM   28  C   UNL     1      41.107 -11.209   6.069  1.00  0.00     0.032 A 
HETATM   29  C   UNL     1      40.533 -10.004   6.494  1.00  0.00     0.039 A 
HETATM   30  C   UNL     1      39.292  -9.606   6.001  1.00  0.00     0.068 A 
HETATM   31  C   UNL     1      38.638 -10.421   5.076  1.00  0.00     0.039 A 
HETATM   32  C   UNL     1      39.208 -11.624   4.654  1.00  0.00     0.032 A 
BRANCH  30  33
HETATM   33  O   UNL     1      38.616  -8.468   6.338  1.00  0.00    -0.352 OA
BRANCH  33  34
HETATM   34  C   UNL     1      39.210  -7.631   7.328  1.00  0.00     0.171 C 
HETATM   35  C   UNL     1      38.537  -6.272   7.252  1.00  0.00     0.034 C 
ENDBRANCH  33  34
ENDBRANCH  30  33
ENDBRANCH   1  27
TORSDOF 7
ENDMDL
