MODEL 1
REMARK VINA RESULT:      -9.2      0.000      0.000
REMARK  5 active torsions:
REMARK  status: ('A' for Active; 'I' for Inactive)
REMARK    1  A    between atoms: O_2  and  C_3 
REMARK    2  A    between atoms: C_5  and  O_6 
REMARK    3  A    between atoms: C_9  and  N_10 
REMARK       I    between atoms: N_10  and  C_11 
REMARK    4  A    between atoms: C_11  and  C_12 
REMARK    5  A    between atoms: C_20  and  C_21 
ROOT
HETATM    1  C   UNL     1      41.838 -14.676   3.023  1.00  0.00     0.047 A 
HETATM    2  C   UNL     1      42.394 -14.024   4.151  1.00  0.00     0.008 A 
HETATM    3  C   UNL     1      43.104 -14.850   5.044  1.00  0.00     0.068 A 
HETATM    4  C   UNL     1      43.624 -14.298   6.205  1.00  0.00     0.032 A 
HETATM    5  C   UNL     1      43.500 -12.940   6.503  1.00  0.00     0.002 A 
HETATM    6  C   UNL     1      42.859 -12.101   5.606  1.00  0.00     0.001 A 
HETATM    7  C   UNL     1      42.322 -12.633   4.435  1.00  0.00     0.015 A 
HETATM    8  N   UNL     1      43.319 -16.156   4.822  1.00  0.00    -0.248 NA
HETATM    9  C   UNL     1      42.866 -16.738   3.685  1.00  0.00     0.068 A 
HETATM   10  C   UNL     1      42.097 -16.029   2.781  1.00  0.00     0.050 A 
ENDROOT
BRANCH   1  11
HETATM   11  C   UNL     1      40.965 -14.006   2.019  1.00  0.00     0.257 C 
HETATM   12  N   UNL     1      41.580 -13.677   0.824  1.00  0.00    -0.323 N 
HETATM   13  H   UNL     1      42.556 -13.928   0.722  1.00  0.00     0.169 HD
HETATM   14  O   UNL     1      39.803 -13.777   2.332  1.00  0.00    -0.267 OA
BRANCH  12  15
HETATM   15  C   UNL     1      40.974 -13.106  -0.315  1.00  0.00     0.040 A 
HETATM   16  C   UNL     1      40.389 -13.851  -1.345  1.00  0.00     0.066 A 
HETATM   17  C   UNL     1      39.804 -13.207  -2.443  1.00  0.00     0.073 A 
HETATM   18  C   UNL     1      39.864 -11.818  -2.543  1.00  0.00     0.073 A 
HETATM   19  C   UNL     1      40.470 -11.082  -1.533  1.00  0.00     0.073 A 
HETATM   20  C   UNL     1      40.980 -11.710  -0.399  1.00  0.00     0.066 A 
BRANCH  17  21
HETATM   21  O   UNL     1      39.171 -13.832  -3.485  1.00  0.00    -0.356 OA
HETATM   22  C   UNL     1      38.392 -14.976  -3.149  1.00  0.00     0.210 C 
ENDBRANCH  17  21
BRANCH  19  23
HETATM   23  O   UNL     1      40.525  -9.717  -1.622  1.00  0.00    -0.356 OA
HETATM   24  C   UNL     1      41.856  -9.271  -1.351  1.00  0.00     0.210 C 
ENDBRANCH  19  23
ENDBRANCH  12  15
ENDBRANCH   1  11
BRANCH   9  25
HETATM   25  C   UNL     1      43.261 -18.150   3.485  1.00  0.00    -0.007 A 
HETATM   26  C   UNL     1      43.054 -18.789   2.248  1.00  0.00     0.014 A 
HETATM   27  C   UNL     1      43.398 -20.129   2.049  1.00  0.00     0.001 A 
HETATM   28  C   UNL     1      43.957 -20.866   3.088  1.00  0.00     0.000 A 
HETATM   29  C   UNL     1      44.169 -20.264   4.323  1.00  0.00     0.001 A 
HETATM   30  C   UNL     1      43.823 -18.923   4.520  1.00  0.00     0.014 A 
ENDBRANCH   9  25
TORSDOF 5
ENDMDL
MODEL 2
REMARK VINA RESULT:      -9.2      1.459      2.463
REMARK  5 active torsions:
REMARK  status: ('A' for Active; 'I' for Inactive)
REMARK    1  A    between atoms: O_2  and  C_3 
REMARK    2  A    between atoms: C_5  and  O_6 
REMARK    3  A    between atoms: C_9  and  N_10 
REMARK       I    between atoms: N_10  and  C_11 
REMARK    4  A    between atoms: C_11  and  C_12 
REMARK    5  A    between atoms: C_20  and  C_21 
ROOT
HETATM    1  C   UNL     1      42.547 -14.462   3.163  1.00  0.00     0.047 A 
HETATM    2  C   UNL     1      42.939 -13.958   4.429  1.00  0.00     0.008 A 
HETATM    3  C   UNL     1      43.358 -14.923   5.365  1.00  0.00     0.068 A 
HETATM    4  C   UNL     1      43.698 -14.517   6.647  1.00  0.00     0.032 A 
HETATM    5  C   UNL     1      43.673 -13.175   7.032  1.00  0.00     0.002 A 
HETATM    6  C   UNL     1      43.322 -12.206   6.106  1.00  0.00     0.001 A 
HETATM    7  C   UNL     1      42.970 -12.590   4.813  1.00  0.00     0.015 A 
HETATM    8  N   UNL     1      43.463 -16.230   5.075  1.00  0.00    -0.248 NA
HETATM    9  C   UNL     1      43.182 -16.676   3.827  1.00  0.00     0.068 A 
HETATM   10  C   UNL     1      42.692 -15.819   2.859  1.00  0.00     0.050 A 
ENDROOT
BRANCH   1  11
HETATM   11  C   UNL     1      41.972 -13.623   2.075  1.00  0.00     0.257 C 
HETATM   12  N   UNL     1      40.866 -14.158   1.437  1.00  0.00    -0.323 N 
HETATM   13  H   UNL     1      40.532 -15.056   1.765  1.00  0.00     0.169 HD
HETATM   14  O   UNL     1      42.525 -12.562   1.816  1.00  0.00    -0.267 OA
BRANCH  12  15
HETATM   15  C   UNL     1      40.089 -13.548   0.429  1.00  0.00     0.040 A 
HETATM   16  C   UNL     1      39.225 -12.471   0.653  1.00  0.00     0.066 A 
HETATM   17  C   UNL     1      38.489 -11.920  -0.403  1.00  0.00     0.073 A 
HETATM   18  C   UNL     1      38.567 -12.490  -1.672  1.00  0.00     0.073 A 
HETATM   19  C   UNL     1      39.405 -13.578  -1.887  1.00  0.00     0.073 A 
HETATM   20  C   UNL     1      40.201 -14.078  -0.861  1.00  0.00     0.066 A 
BRANCH  17  21
HETATM   21  O   UNL     1      37.646 -10.843  -0.307  1.00  0.00    -0.356 OA
HETATM   22  C   UNL     1      36.805 -10.807   0.841  1.00  0.00     0.210 C 
ENDBRANCH  17  21
BRANCH  19  23
HETATM   23  O   UNL     1      39.492 -14.136  -3.134  1.00  0.00    -0.356 OA
HETATM   24  C   UNL     1      38.261 -14.788  -3.455  1.00  0.00     0.210 C 
ENDBRANCH  19  23
ENDBRANCH  12  15
ENDBRANCH   1  11
BRANCH   9  25
HETATM   25  C   UNL     1      43.444 -18.112   3.584  1.00  0.00    -0.007 A 
HETATM   26  C   UNL     1      43.129 -18.704   2.348  1.00  0.00     0.014 A 
HETATM   27  C   UNL     1      43.348 -20.064   2.109  1.00  0.00     0.001 A 
HETATM   28  C   UNL     1      43.887 -20.868   3.107  1.00  0.00     0.000 A 
HETATM   29  C   UNL     1      44.205 -20.313   4.342  1.00  0.00     0.001 A 
HETATM   30  C   UNL     1      43.984 -18.952   4.579  1.00  0.00     0.014 A 
ENDBRANCH   9  25
TORSDOF 5
ENDMDL
MODEL 3
REMARK VINA RESULT:      -9.0      3.156      7.002
REMARK  5 active torsions:
REMARK  status: ('A' for Active; 'I' for Inactive)
REMARK    1  A    between atoms: O_2  and  C_3 
REMARK    2  A    between atoms: C_5  and  O_6 
REMARK    3  A    between atoms: C_9  and  N_10 
REMARK       I    between atoms: N_10  and  C_11 
REMARK    4  A    between atoms: C_11  and  C_12 
REMARK    5  A    between atoms: C_20  and  C_21 
ROOT
HETATM    1  C   UNL     1      42.628 -13.884   3.172  1.00  0.00     0.047 A 
HETATM    2  C   UNL     1      41.671 -13.745   2.136  1.00  0.00     0.008 A 
HETATM    3  C   UNL     1      41.381 -14.918   1.414  1.00  0.00     0.068 A 
HETATM    4  C   UNL     1      40.501 -14.851   0.343  1.00  0.00     0.032 A 
HETATM    5  C   UNL     1      39.864 -13.664  -0.022  1.00  0.00     0.002 A 
HETATM    6  C   UNL     1      40.091 -12.513   0.716  1.00  0.00     0.001 A 
HETATM    7  C   UNL     1      40.975 -12.554   1.793  1.00  0.00     0.015 A 
HETATM    8  N   UNL     1      41.904 -16.116   1.718  1.00  0.00    -0.248 NA
HETATM    9  C   UNL     1      42.738 -16.246   2.778  1.00  0.00     0.068 A 
HETATM   10  C   UNL     1      43.142 -15.141   3.505  1.00  0.00     0.050 A 
ENDROOT
BRANCH   1  11
HETATM   11  C   UNL     1      43.153 -12.748   3.980  1.00  0.00     0.257 C 
HETATM   12  N   UNL     1      42.613 -12.624   5.248  1.00  0.00    -0.323 N 
HETATM   13  H   UNL     1      41.926 -13.314   5.527  1.00  0.00     0.169 HD
HETATM   14  O   UNL     1      43.983 -12.011   3.461  1.00  0.00    -0.267 OA
BRANCH  12  15
HETATM   15  C   UNL     1      42.978 -11.689   6.240  1.00  0.00     0.040 A 
HETATM   16  C   UNL     1      44.000 -11.900   7.173  1.00  0.00     0.066 A 
HETATM   17  C   UNL     1      44.304 -10.920   8.126  1.00  0.00     0.073 A 
HETATM   18  C   UNL     1      43.540  -9.755   8.188  1.00  0.00     0.073 A 
HETATM   19  C   UNL     1      42.507  -9.561   7.279  1.00  0.00     0.073 A 
HETATM   20  C   UNL     1      42.254 -10.494   6.277  1.00  0.00     0.066 A 
BRANCH  17  21
HETATM   21  O   UNL     1      45.306 -11.000   9.058  1.00  0.00    -0.356 OA
HETATM   22  C   UNL     1      45.276 -10.024  10.094  1.00  0.00     0.210 C 
ENDBRANCH  17  21
BRANCH  19  23
HETATM   23  O   UNL     1      41.759  -8.415   7.330  1.00  0.00    -0.356 OA
HETATM   24  C   UNL     1      42.519  -7.373   7.947  1.00  0.00     0.210 C 
ENDBRANCH  19  23
ENDBRANCH  12  15
ENDBRANCH   1  11
BRANCH   9  25
HETATM   25  C   UNL     1      43.162 -17.628   3.096  1.00  0.00    -0.007 A 
HETATM   26  C   UNL     1      43.756 -17.934   4.335  1.00  0.00     0.014 A 
HETATM   27  C   UNL     1      44.184 -19.228   4.643  1.00  0.00     0.001 A 
HETATM   28  C   UNL     1      44.031 -20.252   3.713  1.00  0.00     0.000 A 
HETATM   29  C   UNL     1      43.452 -19.980   2.478  1.00  0.00     0.001 A 
HETATM   30  C   UNL     1      43.025 -18.683   2.172  1.00  0.00     0.014 A 
ENDBRANCH   9  25
TORSDOF 5
ENDMDL
MODEL 4
REMARK VINA RESULT:      -8.8      3.203      7.008
REMARK  5 active torsions:
REMARK  status: ('A' for Active; 'I' for Inactive)
REMARK    1  A    between atoms: O_2  and  C_3 
REMARK    2  A    between atoms: C_5  and  O_6 
REMARK    3  A    between atoms: C_9  and  N_10 
REMARK       I    between atoms: N_10  and  C_11 
REMARK    4  A    between atoms: C_11  and  C_12 
REMARK    5  A    between atoms: C_20  and  C_21 
ROOT
HETATM    1  C   UNL     1      42.517 -13.681   3.129  1.00  0.00     0.047 A 
HETATM    2  C   UNL     1      41.565 -13.604   2.083  1.00  0.00     0.008 A 
HETATM    3  C   UNL     1      41.326 -14.805   1.387  1.00  0.00     0.068 A 
HETATM    4  C   UNL     1      40.454 -14.799   0.308  1.00  0.00     0.032 A 
HETATM    5  C   UNL     1      39.774 -13.646  -0.090  1.00  0.00     0.002 A 
HETATM    6  C   UNL     1      39.949 -12.470   0.621  1.00  0.00     0.001 A 
HETATM    7  C   UNL     1      40.826 -12.450   1.705  1.00  0.00     0.015 A 
HETATM    8  N   UNL     1      41.893 -15.974   1.725  1.00  0.00    -0.248 NA
HETATM    9  C   UNL     1      42.722 -16.045   2.794  1.00  0.00     0.068 A 
HETATM   10  C   UNL     1      43.076 -14.909   3.496  1.00  0.00     0.050 A 
ENDROOT
BRANCH   1  11
HETATM   11  C   UNL     1      42.990 -12.506   3.913  1.00  0.00     0.257 C 
HETATM   12  N   UNL     1      42.422 -12.362   5.166  1.00  0.00    -0.323 N 
HETATM   13  H   UNL     1      41.750 -13.064   5.452  1.00  0.00     0.169 HD
HETATM   14  O   UNL     1      43.808 -11.759   3.389  1.00  0.00    -0.267 OA
BRANCH  12  15
HETATM   15  C   UNL     1      42.738 -11.388   6.136  1.00  0.00     0.040 A 
HETATM   16  C   UNL     1      42.162 -10.113   6.179  1.00  0.00     0.066 A 
HETATM   17  C   UNL     1      42.528  -9.202   7.177  1.00  0.00     0.073 A 
HETATM   18  C   UNL     1      43.520  -9.542   8.095  1.00  0.00     0.073 A 
HETATM   19  C   UNL     1      44.111 -10.799   8.034  1.00  0.00     0.073 A 
HETATM   20  C   UNL     1      43.693 -11.739   7.095  1.00  0.00     0.066 A 
BRANCH  17  21
HETATM   21  O   UNL     1      42.002  -7.946   7.339  1.00  0.00    -0.356 OA
HETATM   22  C   UNL     1      42.662  -7.109   8.284  1.00  0.00     0.210 C 
ENDBRANCH  17  21
BRANCH  19  23
HETATM   23  O   UNL     1      45.081 -11.142   8.937  1.00  0.00    -0.356 OA
HETATM   24  C   UNL     1      45.229 -10.097   9.901  1.00  0.00     0.210 C 
ENDBRANCH  19  23
ENDBRANCH  12  15
ENDBRANCH   1  11
BRANCH   9  25
HETATM   25  C   UNL     1      43.197 -17.401   3.149  1.00  0.00    -0.007 A 
HETATM   26  C   UNL     1      43.111 -18.461   2.227  1.00  0.00     0.014 A 
HETATM   27  C   UNL     1      43.532 -19.754   2.554  1.00  0.00     0.001 A 
HETATM   28  C   UNL     1      44.049 -20.018   3.818  1.00  0.00     0.000 A 
HETATM   29  C   UNL     1      44.142 -18.993   4.753  1.00  0.00     0.001 A 
HETATM   30  C   UNL     1      43.720 -17.701   4.423  1.00  0.00     0.014 A 
ENDBRANCH   9  25
TORSDOF 5
ENDMDL
MODEL 5
REMARK VINA RESULT:      -8.6      3.176      7.867
REMARK  5 active torsions:
REMARK  status: ('A' for Active; 'I' for Inactive)
REMARK    1  A    between atoms: O_2  and  C_3 
REMARK    2  A    between atoms: C_5  and  O_6 
REMARK    3  A    between atoms: C_9  and  N_10 
REMARK       I    between atoms: N_10  and  C_11 
REMARK    4  A    between atoms: C_11  and  C_12 
REMARK    5  A    between atoms: C_20  and  C_21 
ROOT
HETATM    1  C   UNL     1      42.520 -14.787   4.173  1.00  0.00     0.047 A 
HETATM    2  C   UNL     1      43.062 -16.082   3.978  1.00  0.00     0.008 A 
HETATM    3  C   UNL     1      42.730 -16.705   2.760  1.00  0.00     0.068 A 
HETATM    4  C   UNL     1      43.170 -17.999   2.521  1.00  0.00     0.032 A 
HETATM    5  C   UNL     1      43.964 -18.693   3.435  1.00  0.00     0.002 A 
HETATM    6  C   UNL     1      44.353 -18.073   4.611  1.00  0.00     0.001 A 
HETATM    7  C   UNL     1      43.918 -16.776   4.877  1.00  0.00     0.015 A 
HETATM    8  N   UNL     1      42.013 -16.101   1.799  1.00  0.00    -0.248 NA
HETATM    9  C   UNL     1      41.591 -14.824   1.964  1.00  0.00     0.068 A 
HETATM   10  C   UNL     1      41.805 -14.153   3.153  1.00  0.00     0.050 A 
ENDROOT
BRANCH   1  11
HETATM   11  C   UNL     1      42.662 -14.005   5.433  1.00  0.00     0.257 C 
HETATM   12  N   UNL     1      43.228 -12.750   5.290  1.00  0.00    -0.323 N 
HETATM   13  H   UNL     1      43.483 -12.462   4.354  1.00  0.00     0.169 HD
HETATM   14  O   UNL     1      42.301 -14.532   6.478  1.00  0.00    -0.267 OA
BRANCH  12  15
HETATM   15  C   UNL     1      43.412 -11.781   6.299  1.00  0.00     0.040 A 
HETATM   16  C   UNL     1      44.367 -11.885   7.317  1.00  0.00     0.066 A 
HETATM   17  C   UNL     1      44.489 -10.878   8.282  1.00  0.00     0.073 A 
HETATM   18  C   UNL     1      43.609  -9.796   8.268  1.00  0.00     0.073 A 
HETATM   19  C   UNL     1      42.643  -9.709   7.273  1.00  0.00     0.073 A 
HETATM   20  C   UNL     1      42.570 -10.665   6.263  1.00  0.00     0.066 A 
BRANCH  17  21
HETATM   21  O   UNL     1      45.411 -10.855   9.295  1.00  0.00    -0.356 OA
HETATM   22  C   UNL     1      45.280  -9.795  10.237  1.00  0.00     0.210 C 
ENDBRANCH  17  21
BRANCH  19  23
HETATM   23  O   UNL     1      41.782  -8.645   7.250  1.00  0.00    -0.356 OA
HETATM   24  C   UNL     1      42.444  -7.481   7.748  1.00  0.00     0.210 C 
ENDBRANCH  19  23
ENDBRANCH  12  15
ENDBRANCH   1  11
BRANCH   9  25
HETATM   25  C   UNL     1      40.914 -14.216   0.797  1.00  0.00    -0.007 A 
HETATM   26  C   UNL     1      40.041 -14.972  -0.006  1.00  0.00     0.014 A 
HETATM   27  C   UNL     1      39.411 -14.421  -1.126  1.00  0.00     0.001 A 
HETATM   28  C   UNL     1      39.644 -13.094  -1.472  1.00  0.00     0.000 A 
HETATM   29  C   UNL     1      40.507 -12.322  -0.701  1.00  0.00     0.001 A 
HETATM   30  C   UNL     1      41.135 -12.876   0.419  1.00  0.00     0.014 A 
ENDBRANCH   9  25
TORSDOF 5
ENDMDL
MODEL 6
REMARK VINA RESULT:      -8.2      2.048      5.369
REMARK  5 active torsions:
REMARK  status: ('A' for Active; 'I' for Inactive)
REMARK    1  A    between atoms: O_2  and  C_3 
REMARK    2  A    between atoms: C_5  and  O_6 
REMARK    3  A    between atoms: C_9  and  N_10 
REMARK       I    between atoms: N_10  and  C_11 
REMARK    4  A    between atoms: C_11  and  C_12 
REMARK    5  A    between atoms: C_20  and  C_21 
ROOT
HETATM    1  C   UNL     1      42.298 -13.555   4.676  1.00  0.00     0.047 A 
HETATM    2  C   UNL     1      42.742 -14.824   5.122  1.00  0.00     0.008 A 
HETATM    3  C   UNL     1      43.763 -14.806   6.092  1.00  0.00     0.068 A 
HETATM    4  C   UNL     1      44.296 -16.009   6.533  1.00  0.00     0.032 A 
HETATM    5  C   UNL     1      43.827 -17.242   6.075  1.00  0.00     0.002 A 
HETATM    6  C   UNL     1      42.781 -17.279   5.168  1.00  0.00     0.001 A 
HETATM    7  C   UNL     1      42.233 -16.084   4.704  1.00  0.00     0.015 A 
HETATM    8  N   UNL     1      44.245 -13.675   6.629  1.00  0.00    -0.248 NA
HETATM    9  C   UNL     1      43.734 -12.475   6.263  1.00  0.00     0.068 A 
HETATM   10  C   UNL     1      42.780 -12.382   5.266  1.00  0.00     0.050 A 
ENDROOT
BRANCH   1  11
HETATM   11  C   UNL     1      41.307 -13.356   3.582  1.00  0.00     0.257 C 
HETATM   12  N   UNL     1      41.827 -13.380   2.300  1.00  0.00    -0.323 N 
HETATM   13  H   UNL     1      42.822 -13.543   2.208  1.00  0.00     0.169 HD
HETATM   14  O   UNL     1      40.138 -13.164   3.895  1.00  0.00    -0.267 OA
BRANCH  12  15
HETATM   15  C   UNL     1      41.108 -13.289   1.089  1.00  0.00     0.040 A 
HETATM   16  C   UNL     1      40.518 -14.385   0.448  1.00  0.00     0.066 A 
HETATM   17  C   UNL     1      39.818 -14.212  -0.752  1.00  0.00     0.073 A 
HETATM   18  C   UNL     1      39.764 -12.952  -1.347  1.00  0.00     0.073 A 
HETATM   19  C   UNL     1      40.374 -11.871  -0.722  1.00  0.00     0.073 A 
HETATM   20  C   UNL     1      41.001 -12.020   0.512  1.00  0.00     0.066 A 
BRANCH  17  21
HETATM   21  O   UNL     1      39.169 -15.201  -1.444  1.00  0.00    -0.356 OA
HETATM   22  C   UNL     1      38.785 -14.883  -2.778  1.00  0.00     0.210 C 
ENDBRANCH  17  21
BRANCH  19  23
HETATM   23  O   UNL     1      40.318 -10.629  -1.297  1.00  0.00    -0.356 OA
HETATM   24  C   UNL     1      41.596  -9.996  -1.198  1.00  0.00     0.210 C 
ENDBRANCH  19  23
ENDBRANCH  12  15
ENDBRANCH   1  11
BRANCH   9  25
HETATM   25  C   UNL     1      44.253 -11.303   7.002  1.00  0.00    -0.007 A 
HETATM   26  C   UNL     1      43.379 -10.323   7.509  1.00  0.00     0.014 A 
HETATM   27  C   UNL     1      43.854  -9.198   8.189  1.00  0.00     0.001 A 
HETATM   28  C   UNL     1      45.221  -9.023   8.376  1.00  0.00     0.000 A 
HETATM   29  C   UNL     1      46.111  -9.971   7.882  1.00  0.00     0.001 A 
HETATM   30  C   UNL     1      45.633 -11.096   7.202  1.00  0.00     0.014 A 
ENDBRANCH   9  25
TORSDOF 5
ENDMDL
MODEL 7
REMARK VINA RESULT:      -8.0      3.028      7.906
REMARK  5 active torsions:
REMARK  status: ('A' for Active; 'I' for Inactive)
REMARK    1  A    between atoms: O_2  and  C_3 
REMARK    2  A    between atoms: C_5  and  O_6 
REMARK    3  A    between atoms: C_9  and  N_10 
REMARK       I    between atoms: N_10  and  C_11 
REMARK    4  A    between atoms: C_11  and  C_12 
REMARK    5  A    between atoms: C_20  and  C_21 
ROOT
HETATM    1  C   UNL     1      42.340 -13.535   2.790  1.00  0.00     0.047 A 
HETATM    2  C   UNL     1      42.595 -14.914   2.996  1.00  0.00     0.008 A 
HETATM    3  C   UNL     1      41.992 -15.789   2.072  1.00  0.00     0.068 A 
HETATM    4  C   UNL     1      42.141 -17.158   2.242  1.00  0.00     0.032 A 
HETATM    5  C   UNL     1      42.901 -17.699   3.281  1.00  0.00     0.002 A 
HETATM    6  C   UNL     1      43.552 -16.851   4.163  1.00  0.00     0.001 A 
HETATM    7  C   UNL     1      43.412 -15.472   4.016  1.00  0.00     0.015 A 
HETATM    8  N   UNL     1      41.284 -15.365   1.013  1.00  0.00    -0.248 NA
HETATM    9  C   UNL     1      41.140 -14.039   0.777  1.00  0.00     0.068 A 
HETATM   10  C   UNL     1      41.632 -13.101   1.665  1.00  0.00     0.050 A 
ENDROOT
BRANCH   1  11
HETATM   11  C   UNL     1      42.794 -12.458   3.713  1.00  0.00     0.257 C 
HETATM   12  N   UNL     1      42.185 -12.448   4.956  1.00  0.00    -0.323 N 
HETATM   13  H   UNL     1      41.502 -13.171   5.142  1.00  0.00     0.169 HD
HETATM   14  O   UNL     1      43.631 -11.665   3.301  1.00  0.00    -0.267 OA
BRANCH  12  15
HETATM   15  C   UNL     1      42.475 -11.589   6.037  1.00  0.00     0.040 A 
HETATM   16  C   UNL     1      41.657 -10.522   6.428  1.00  0.00     0.066 A 
HETATM   17  C   UNL     1      42.013  -9.716   7.515  1.00  0.00     0.073 A 
HETATM   18  C   UNL     1      43.223  -9.934   8.171  1.00  0.00     0.073 A 
HETATM   19  C   UNL     1      44.048 -10.976   7.764  1.00  0.00     0.073 A 
HETATM   20  C   UNL     1      43.661 -11.832   6.737  1.00  0.00     0.066 A 
BRANCH  17  21
HETATM   21  O   UNL     1      41.272  -8.674   8.009  1.00  0.00    -0.356 OA
HETATM   22  C   UNL     1      40.782  -8.830   9.337  1.00  0.00     0.210 C 
ENDBRANCH  17  21
BRANCH  19  23
HETATM   23  O   UNL     1      45.234 -11.200   8.410  1.00  0.00    -0.356 OA
HETATM   24  C   UNL     1      46.281 -10.482   7.752  1.00  0.00     0.210 C 
ENDBRANCH  19  23
ENDBRANCH  12  15
ENDBRANCH   1  11
BRANCH   9  25
HETATM   25  C   UNL     1      40.444 -13.682  -0.479  1.00  0.00    -0.007 A 
HETATM   26  C   UNL     1      40.669 -12.440  -1.102  1.00  0.00     0.014 A 
HETATM   27  C   UNL     1      40.003 -12.077  -2.276  1.00  0.00     0.001 A 
HETATM   28  C   UNL     1      39.089 -12.951  -2.856  1.00  0.00     0.000 A 
HETATM   29  C   UNL     1      38.842 -14.184  -2.262  1.00  0.00     0.001 A 
HETATM   30  C   UNL     1      39.510 -14.544  -1.087  1.00  0.00     0.014 A 
ENDBRANCH   9  25
TORSDOF 5
ENDMDL
MODEL 8
REMARK VINA RESULT:      -7.8      2.740      7.904
REMARK  5 active torsions:
REMARK  status: ('A' for Active; 'I' for Inactive)
REMARK    1  A    between atoms: O_2  and  C_3 
REMARK    2  A    between atoms: C_5  and  O_6 
REMARK    3  A    between atoms: C_9  and  N_10 
REMARK       I    between atoms: N_10  and  C_11 
REMARK    4  A    between atoms: C_11  and  C_12 
REMARK    5  A    between atoms: C_20  and  C_21 
ROOT
HETATM    1  C   UNL     1      40.623 -13.429   2.369  1.00  0.00     0.047 A 
HETATM    2  C   UNL     1      40.720 -12.032   2.588  1.00  0.00     0.008 A 
HETATM    3  C   UNL     1      40.350 -11.218   1.500  1.00  0.00     0.068 A 
HETATM    4  C   UNL     1      40.477  -9.841   1.614  1.00  0.00     0.032 A 
HETATM    5  C   UNL     1      40.926  -9.231   2.787  1.00  0.00     0.002 A 
HETATM    6  C   UNL     1      41.236 -10.013   3.887  1.00  0.00     0.001 A 
HETATM    7  C   UNL     1      41.122 -11.400   3.795  1.00  0.00     0.015 A 
HETATM    8  N   UNL     1      39.861 -11.707   0.350  1.00  0.00    -0.248 NA
HETATM    9  C   UNL     1      39.679 -13.041   0.199  1.00  0.00     0.068 A 
HETATM   10  C   UNL     1      40.079 -13.928   1.181  1.00  0.00     0.050 A 
ENDROOT
BRANCH   1  11
HETATM   11  C   UNL     1      41.066 -14.459   3.349  1.00  0.00     0.257 C 
HETATM   12  N   UNL     1      42.181 -15.189   2.977  1.00  0.00    -0.323 N 
HETATM   13  H   UNL     1      42.609 -14.960   2.088  1.00  0.00     0.169 HD
HETATM   14  O   UNL     1      40.409 -14.595   4.374  1.00  0.00    -0.267 OA
BRANCH  12  15
HETATM   15  C   UNL     1      42.849 -16.169   3.742  1.00  0.00     0.040 A 
HETATM   16  C   UNL     1      43.265 -15.978   5.064  1.00  0.00     0.066 A 
HETATM   17  C   UNL     1      43.921 -17.002   5.757  1.00  0.00     0.073 A 
HETATM   18  C   UNL     1      44.222 -18.197   5.105  1.00  0.00     0.073 A 
HETATM   19  C   UNL     1      43.833 -18.375   3.782  1.00  0.00     0.073 A 
HETATM   20  C   UNL     1      43.107 -17.392   3.114  1.00  0.00     0.066 A 
BRANCH  17  21
HETATM   21  O   UNL     1      44.336 -16.941   7.062  1.00  0.00    -0.356 OA
HETATM   22  C   UNL     1      43.511 -16.186   7.945  1.00  0.00     0.210 C 
ENDBRANCH  17  21
BRANCH  19  23
HETATM   23  O   UNL     1      44.118 -19.549   3.139  1.00  0.00    -0.356 OA
HETATM   24  C   UNL     1      43.212 -19.730   2.047  1.00  0.00     0.210 C 
ENDBRANCH  19  23
ENDBRANCH  12  15
ENDBRANCH   1  11
BRANCH   9  25
HETATM   25  C   UNL     1      39.024 -13.462  -1.059  1.00  0.00    -0.007 A 
HETATM   26  C   UNL     1      37.967 -12.713  -1.608  1.00  0.00     0.014 A 
HETATM   27  C   UNL     1      37.321 -13.109  -2.783  1.00  0.00     0.001 A 
HETATM   28  C   UNL     1      37.717 -14.271  -3.438  1.00  0.00     0.000 A 
HETATM   29  C   UNL     1      38.755 -15.035  -2.917  1.00  0.00     0.001 A 
HETATM   30  C   UNL     1      39.400 -14.637  -1.740  1.00  0.00     0.014 A 
ENDBRANCH   9  25
TORSDOF 5
ENDMDL
MODEL 9
REMARK VINA RESULT:      -7.6      4.176      8.320
REMARK  5 active torsions:
REMARK  status: ('A' for Active; 'I' for Inactive)
REMARK    1  A    between atoms: O_2  and  C_3 
REMARK    2  A    between atoms: C_5  and  O_6 
REMARK    3  A    between atoms: C_9  and  N_10 
REMARK       I    between atoms: N_10  and  C_11 
REMARK    4  A    between atoms: C_11  and  C_12 
REMARK    5  A    between atoms: C_20  and  C_21 
ROOT
HETATM    1  C   UNL     1      42.620 -12.861   5.113  1.00  0.00     0.047 A 
HETATM    2  C   UNL     1      42.619 -14.111   5.782  1.00  0.00     0.008 A 
HETATM    3  C   UNL     1      41.976 -15.164   5.104  1.00  0.00     0.068 A 
HETATM    4  C   UNL     1      41.877 -16.403   5.720  1.00  0.00     0.032 A 
HETATM    5  C   UNL     1      42.428 -16.653   6.979  1.00  0.00     0.002 A 
HETATM    6  C   UNL     1      43.118 -15.645   7.633  1.00  0.00     0.001 A 
HETATM    7  C   UNL     1      43.225 -14.389   7.037  1.00  0.00     0.015 A 
HETATM    8  N   UNL     1      41.460 -15.037   3.872  1.00  0.00    -0.248 NA
HETATM    9  C   UNL     1      41.562 -13.860   3.208  1.00  0.00     0.068 A 
HETATM   10  C   UNL     1      42.111 -12.746   3.816  1.00  0.00     0.050 A 
ENDROOT
BRANCH   1  11
HETATM   11  C   UNL     1      43.150 -11.601   5.703  1.00  0.00     0.257 C 
HETATM   12  N   UNL     1      42.420 -11.089   6.762  1.00  0.00    -0.323 N 
HETATM   13  H   UNL     1      41.604 -11.612   7.056  1.00  0.00     0.169 HD
HETATM   14  O   UNL     1      44.154 -11.110   5.201  1.00  0.00    -0.267 OA
BRANCH  12  15
HETATM   15  C   UNL     1      42.734  -9.957   7.543  1.00  0.00     0.040 A 
HETATM   16  C   UNL     1      42.438  -8.642   7.167  1.00  0.00     0.066 A 
HETATM   17  C   UNL     1      42.781  -7.571   8.000  1.00  0.00     0.073 A 
HETATM   18  C   UNL     1      43.482  -7.810   9.181  1.00  0.00     0.073 A 
HETATM   19  C   UNL     1      43.800  -9.115   9.540  1.00  0.00     0.073 A 
HETATM   20  C   UNL     1      43.389 -10.190   8.756  1.00  0.00     0.066 A 
BRANCH  17  21
HETATM   21  O   UNL     1      42.505  -6.251   7.753  1.00  0.00    -0.356 OA
HETATM   22  C   UNL     1      41.781  -5.563   8.769  1.00  0.00     0.210 C 
ENDBRANCH  17  21
BRANCH  19  23
HETATM   23  O   UNL     1      44.481  -9.357  10.702  1.00  0.00    -0.356 OA
HETATM   24  C   UNL     1      43.861 -10.435  11.406  1.00  0.00     0.210 C 
ENDBRANCH  19  23
ENDBRANCH  12  15
ENDBRANCH   1  11
BRANCH   9  25
HETATM   25  C   UNL     1      41.067 -13.864   1.813  1.00  0.00    -0.007 A 
HETATM   26  C   UNL     1      41.225 -12.735   0.988  1.00  0.00     0.014 A 
HETATM   27  C   UNL     1      40.741 -12.712  -0.324  1.00  0.00     0.001 A 
HETATM   28  C   UNL     1      40.082 -13.822  -0.842  1.00  0.00     0.000 A 
HETATM   29  C   UNL     1      39.906 -14.951  -0.049  1.00  0.00     0.001 A 
HETATM   30  C   UNL     1      40.390 -14.971   1.263  1.00  0.00     0.014 A 
ENDBRANCH   9  25
TORSDOF 5
ENDMDL
MODEL 10
REMARK VINA RESULT:      -7.6     15.535     17.286
REMARK  5 active torsions:
REMARK  status: ('A' for Active; 'I' for Inactive)
REMARK    1  A    between atoms: O_2  and  C_3 
REMARK    2  A    between atoms: C_5  and  O_6 
REMARK    3  A    between atoms: C_9  and  N_10 
REMARK       I    between atoms: N_10  and  C_11 
REMARK    4  A    between atoms: C_11  and  C_12 
REMARK    5  A    between atoms: C_20  and  C_21 
ROOT
HETATM    1  C   UNL     1      44.742 -29.613   0.561  1.00  0.00     0.047 A 
HETATM    2  C   UNL     1      44.877 -29.386  -0.831  1.00  0.00     0.008 A 
HETATM    3  C   UNL     1      46.187 -29.141  -1.284  1.00  0.00     0.068 A 
HETATM    4  C   UNL     1      46.395 -28.846  -2.624  1.00  0.00     0.032 A 
HETATM    5  C   UNL     1      45.349 -28.820  -3.549  1.00  0.00     0.002 A 
HETATM    6  C   UNL     1      44.062 -29.120  -3.133  1.00  0.00     0.001 A 
HETATM    7  C   UNL     1      43.828 -29.412  -1.790  1.00  0.00     0.015 A 
HETATM    8  N   UNL     1      47.263 -29.191  -0.482  1.00  0.00    -0.248 NA
HETATM    9  C   UNL     1      47.122 -29.513   0.827  1.00  0.00     0.068 A 
HETATM   10  C   UNL     1      45.870 -29.699   1.382  1.00  0.00     0.050 A 
ENDROOT
BRANCH   1  11
HETATM   11  C   UNL     1      43.435 -29.784   1.255  1.00  0.00     0.257 C 
HETATM   12  N   UNL     1      43.320 -30.925   2.029  1.00  0.00    -0.323 N 
HETATM   13  H   UNL     1      44.126 -31.536   2.075  1.00  0.00     0.169 HD
HETATM   14  O   UNL     1      42.572 -28.935   1.068  1.00  0.00    -0.267 OA
BRANCH  12  15
HETATM   15  C   UNL     1      42.228 -31.294   2.842  1.00  0.00     0.040 A 
HETATM   16  C   UNL     1      41.030 -31.822   2.348  1.00  0.00     0.066 A 
HETATM   17  C   UNL     1      39.991 -32.167   3.222  1.00  0.00     0.073 A 
HETATM   18  C   UNL     1      40.126 -31.920   4.587  1.00  0.00     0.073 A 
HETATM   19  C   UNL     1      41.305 -31.369   5.073  1.00  0.00     0.073 A 
HETATM   20  C   UNL     1      42.372 -31.102   4.220  1.00  0.00     0.066 A 
BRANCH  17  21
HETATM   21  O   UNL     1      38.795 -32.727   2.854  1.00  0.00    -0.356 OA
HETATM   22  C   UNL     1      38.078 -33.401   3.883  1.00  0.00     0.210 C 
ENDBRANCH  17  21
BRANCH  19  23
HETATM   23  O   UNL     1      41.446 -31.132   6.414  1.00  0.00    -0.356 OA
HETATM   24  C   UNL     1      40.766 -32.148   7.155  1.00  0.00     0.210 C 
ENDBRANCH  19  23
ENDBRANCH  12  15
ENDBRANCH   1  11
BRANCH   9  25
HETATM   25  C   UNL     1      48.381 -29.657   1.591  1.00  0.00    -0.007 A 
HETATM   26  C   UNL     1      49.535 -30.190   0.988  1.00  0.00     0.014 A 
HETATM   27  C   UNL     1      50.726 -30.356   1.702  1.00  0.00     0.001 A 
HETATM   28  C   UNL     1      50.789 -29.994   3.043  1.00  0.00     0.000 A 
HETATM   29  C   UNL     1      49.663 -29.469   3.669  1.00  0.00     0.001 A 
HETATM   30  C   UNL     1      48.473 -29.304   2.953  1.00  0.00     0.014 A 
ENDBRANCH   9  25
TORSDOF 5
ENDMDL
