MODEL 1
REMARK VINA RESULT:      -8.0      0.000      0.000
REMARK  5 active torsions:
REMARK  status: ('A' for Active; 'I' for Inactive)
REMARK    1  A    between atoms: C_3  and  O_4 
REMARK    2  A    between atoms: O_4  and  C_5 
REMARK    3  A    between atoms: C_10  and  N_11 
REMARK       I    between atoms: N_11  and  C_12 
REMARK       I    between atoms: C_12  and  N_13 
REMARK    4  A    between atoms: N_13  and  C_14 
REMARK    5  A    between atoms: C_14  and  C_15 
ROOT
HETATM    1  N   UNL     1      40.191 -15.351   3.895  1.00  0.00    -0.309 N 
HETATM    2  C   UNL     1      41.149 -15.999   4.598  1.00  0.00     0.321 C 
HETATM    3  N   UNL     1      42.392 -16.133   4.079  1.00  0.00    -0.337 N 
HETATM    4  O   UNL     1      40.855 -16.431   5.714  1.00  0.00    -0.247 OA
HETATM    5  H   UNL     1      39.371 -15.243   4.478  1.00  0.00     0.170 HD
HETATM    6  H   UNL     1      42.718 -15.391   3.478  1.00  0.00     0.164 HD
ENDROOT
BRANCH   1   7
HETATM    7  C   UNL     1      40.072 -14.856   2.586  1.00  0.00     0.037 A 
HETATM    8  C   UNL     1      40.138 -15.609   1.418  1.00  0.00     0.032 A 
HETATM    9  C   UNL     1      40.006 -14.990   0.162  1.00  0.00     0.039 A 
HETATM   10  C   UNL     1      39.781 -13.615   0.060  1.00  0.00     0.075 A 
HETATM   11  C   UNL     1      39.675 -12.853   1.231  1.00  0.00    -0.026 A 
HETATM   12  C   UNL     1      39.416 -11.372   1.171  1.00  0.00     0.051 C 
HETATM   13  C   UNL     1      39.826 -13.480   2.477  1.00  0.00     0.039 A 
BRANCH  10  14
HETATM   14  O   UNL     1      39.672 -12.910  -1.106  1.00  0.00    -0.346 OA
BRANCH  14  15
HETATM   15  C   UNL     1      40.047 -13.510  -2.348  1.00  0.00     0.121 C 
HETATM   16  C   UNL     1      38.806 -13.789  -3.192  1.00  0.00     0.040 C 
HETATM   17  C   UNL     1      40.941 -12.498  -3.061  1.00  0.00     0.040 C 
ENDBRANCH  14  15
ENDBRANCH  10  14
ENDBRANCH   1   7
BRANCH   3  18
HETATM   18  C   UNL     1      43.420 -16.732   4.907  1.00  0.00     0.183 C 
BRANCH  18  19
HETATM   19  C   UNL     1      43.647 -18.202   4.637  1.00  0.00     0.053 A 
HETATM   20  N   UNL     1      43.832 -19.041   5.691  1.00  0.00    -0.264 NA
HETATM   21  C   UNL     1      44.013 -20.354   5.417  1.00  0.00     0.118 A 
HETATM   22  C   UNL     1      44.002 -20.884   4.141  1.00  0.00     0.043 A 
HETATM   23  C   UNL     1      43.789 -20.012   3.086  1.00  0.00     0.037 A 
HETATM   24 CL   UNL     1      43.749 -20.609   1.473  1.00  0.00    -0.084 Cl
HETATM   25  C   UNL     1      43.606 -18.656   3.322  1.00  0.00     0.052 A 
ENDBRANCH  18  19
ENDBRANCH   3  18
TORSDOF 5
ENDMDL
MODEL 2
REMARK VINA RESULT:      -7.7      4.845      7.722
REMARK  5 active torsions:
REMARK  status: ('A' for Active; 'I' for Inactive)
REMARK    1  A    between atoms: C_3  and  O_4 
REMARK    2  A    between atoms: O_4  and  C_5 
REMARK    3  A    between atoms: C_10  and  N_11 
REMARK       I    between atoms: N_11  and  C_12 
REMARK       I    between atoms: C_12  and  N_13 
REMARK    4  A    between atoms: N_13  and  C_14 
REMARK    5  A    between atoms: C_14  and  C_15 
ROOT
HETATM    1  N   UNL     1      40.267 -14.729   4.997  1.00  0.00    -0.309 N 
HETATM    2  C   UNL     1      40.439 -13.516   5.571  1.00  0.00     0.321 C 
HETATM    3  N   UNL     1      41.649 -12.910   5.517  1.00  0.00    -0.337 N 
HETATM    4  O   UNL     1      39.466 -12.989   6.112  1.00  0.00    -0.247 OA
HETATM    5  H   UNL     1      39.285 -14.973   5.030  1.00  0.00     0.170 HD
HETATM    6  H   UNL     1      42.214 -13.091   4.701  1.00  0.00     0.164 HD
ENDROOT
BRANCH   1   7
HETATM    7  C   UNL     1      41.111 -15.698   4.430  1.00  0.00     0.037 A 
HETATM    8  C   UNL     1      41.123 -16.095   3.096  1.00  0.00     0.032 A 
HETATM    9  C   UNL     1      42.019 -17.084   2.654  1.00  0.00     0.039 A 
HETATM   10  C   UNL     1      42.933 -17.669   3.534  1.00  0.00     0.075 A 
HETATM   11  C   UNL     1      42.956 -17.251   4.872  1.00  0.00    -0.026 A 
HETATM   12  C   UNL     1      43.934 -17.841   5.851  1.00  0.00     0.051 C 
HETATM   13  C   UNL     1      42.044 -16.276   5.304  1.00  0.00     0.039 A 
BRANCH  10  14
HETATM   14  O   UNL     1      43.822 -18.659   3.219  1.00  0.00    -0.346 OA
BRANCH  14  15
HETATM   15  C   UNL     1      43.357 -19.981   2.938  1.00  0.00     0.121 C 
HETATM   16  C   UNL     1      43.807 -20.411   1.544  1.00  0.00     0.040 C 
HETATM   17  C   UNL     1      43.987 -20.891   3.990  1.00  0.00     0.040 C 
ENDBRANCH  14  15
ENDBRANCH  10  14
ENDBRANCH   1   7
BRANCH   3  18
HETATM   18  C   UNL     1      41.766 -11.565   6.043  1.00  0.00     0.183 C 
BRANCH  18  19
HETATM   19  C   UNL     1      43.145 -11.228   6.565  1.00  0.00     0.053 A 
HETATM   20  N   UNL     1      44.211 -11.934   6.104  1.00  0.00    -0.264 NA
HETATM   21  C   UNL     1      45.433 -11.595   6.576  1.00  0.00     0.118 A 
HETATM   22  C   UNL     1      45.655 -10.571   7.477  1.00  0.00     0.043 A 
HETATM   23  C   UNL     1      44.555  -9.852   7.914  1.00  0.00     0.037 A 
HETATM   24 CL   UNL     1      44.763  -8.555   9.024  1.00  0.00    -0.084 Cl
HETATM   25  C   UNL     1      43.282 -10.171   7.460  1.00  0.00     0.052 A 
ENDBRANCH  18  19
ENDBRANCH   3  18
TORSDOF 5
ENDMDL
MODEL 3
REMARK VINA RESULT:      -7.5      3.196      7.966
REMARK  5 active torsions:
REMARK  status: ('A' for Active; 'I' for Inactive)
REMARK    1  A    between atoms: C_3  and  O_4 
REMARK    2  A    between atoms: O_4  and  C_5 
REMARK    3  A    between atoms: C_10  and  N_11 
REMARK       I    between atoms: N_11  and  C_12 
REMARK       I    between atoms: C_12  and  N_13 
REMARK    4  A    between atoms: N_13  and  C_14 
REMARK    5  A    between atoms: C_14  and  C_15 
ROOT
HETATM    1  N   UNL     1      42.840 -12.902   2.629  1.00  0.00    -0.309 N 
HETATM    2  C   UNL     1      42.056 -12.013   1.977  1.00  0.00     0.321 C 
HETATM    3  N   UNL     1      40.934 -12.437   1.349  1.00  0.00    -0.337 N 
HETATM    4  O   UNL     1      42.386 -10.826   1.998  1.00  0.00    -0.247 OA
HETATM    5  H   UNL     1      43.560 -12.400   3.132  1.00  0.00     0.170 HD
HETATM    6  H   UNL     1      40.455 -13.227   1.755  1.00  0.00     0.164 HD
ENDROOT
BRANCH   1   7
HETATM    7  C   UNL     1      42.902 -14.302   2.724  1.00  0.00     0.037 A 
HETATM    8  C   UNL     1      43.289 -15.175   1.712  1.00  0.00     0.032 A 
HETATM    9  C   UNL     1      43.305 -16.563   1.934  1.00  0.00     0.039 A 
HETATM   10  C   UNL     1      42.959 -17.094   3.179  1.00  0.00     0.075 A 
HETATM   11  C   UNL     1      42.605 -16.223   4.218  1.00  0.00    -0.026 A 
HETATM   12  C   UNL     1      42.242 -16.748   5.581  1.00  0.00     0.051 C 
HETATM   13  C   UNL     1      42.576 -14.840   3.978  1.00  0.00     0.039 A 
BRANCH  10  14
HETATM   14  O   UNL     1      42.909 -18.424   3.493  1.00  0.00    -0.346 OA
BRANCH  14  15
HETATM   15  C   UNL     1      44.077 -19.238   3.364  1.00  0.00     0.121 C 
HETATM   16  C   UNL     1      44.335 -19.995   4.664  1.00  0.00     0.040 C 
HETATM   17  C   UNL     1      43.788 -20.228   2.237  1.00  0.00     0.040 C 
ENDBRANCH  14  15
ENDBRANCH  10  14
ENDBRANCH   1   7
BRANCH   3  18
HETATM   18  C   UNL     1      40.060 -11.443   0.759  1.00  0.00     0.183 C 
BRANCH  18  19
HETATM   19  C   UNL     1      39.185 -11.977  -0.352  1.00  0.00     0.053 A 
HETATM   20  N   UNL     1      38.255 -11.154  -0.907  1.00  0.00    -0.264 NA
HETATM   21  C   UNL     1      37.501 -11.656  -1.912  1.00  0.00     0.118 A 
HETATM   22  C   UNL     1      37.635 -12.937  -2.412  1.00  0.00     0.043 A 
HETATM   23  C   UNL     1      38.604 -13.748  -1.844  1.00  0.00     0.037 A 
HETATM   24 CL   UNL     1      38.832 -15.350  -2.428  1.00  0.00    -0.084 Cl
HETATM   25  C   UNL     1      39.395 -13.276  -0.806  1.00  0.00     0.052 A 
ENDBRANCH  18  19
ENDBRANCH   3  18
TORSDOF 5
ENDMDL
MODEL 4
REMARK VINA RESULT:      -7.5      2.916      7.912
REMARK  5 active torsions:
REMARK  status: ('A' for Active; 'I' for Inactive)
REMARK    1  A    between atoms: C_3  and  O_4 
REMARK    2  A    between atoms: O_4  and  C_5 
REMARK    3  A    between atoms: C_10  and  N_11 
REMARK       I    between atoms: N_11  and  C_12 
REMARK       I    between atoms: C_12  and  N_13 
REMARK    4  A    between atoms: N_13  and  C_14 
REMARK    5  A    between atoms: C_14  and  C_15 
ROOT
HETATM    1  N   UNL     1      40.099 -14.575   3.535  1.00  0.00    -0.309 N 
HETATM    2  C   UNL     1      39.814 -13.432   2.870  1.00  0.00     0.321 C 
HETATM    3  N   UNL     1      40.413 -13.176   1.683  1.00  0.00    -0.337 N 
HETATM    4  O   UNL     1      38.990 -12.664   3.367  1.00  0.00    -0.247 OA
HETATM    5  H   UNL     1      39.481 -14.656   4.333  1.00  0.00     0.170 HD
HETATM    6  H   UNL     1      40.642 -13.971   1.106  1.00  0.00     0.164 HD
ENDROOT
BRANCH   1   7
HETATM    7  C   UNL     1      41.045 -15.605   3.398  1.00  0.00     0.037 A 
HETATM    8  C   UNL     1      41.211 -16.421   2.282  1.00  0.00     0.032 A 
HETATM    9  C   UNL     1      42.196 -17.423   2.272  1.00  0.00     0.039 A 
HETATM   10  C   UNL     1      43.045 -17.606   3.367  1.00  0.00     0.075 A 
HETATM   11  C   UNL     1      42.912 -16.766   4.481  1.00  0.00    -0.026 A 
HETATM   12  C   UNL     1      43.814 -16.915   5.676  1.00  0.00     0.051 C 
HETATM   13  C   UNL     1      41.912 -15.781   4.485  1.00  0.00     0.039 A 
BRANCH  10  14
HETATM   14  O   UNL     1      44.010 -18.568   3.475  1.00  0.00    -0.346 OA
BRANCH  14  15
HETATM   15  C   UNL     1      43.652 -19.951   3.464  1.00  0.00     0.121 C 
HETATM   16  C   UNL     1      44.084 -20.595   2.149  1.00  0.00     0.040 C 
HETATM   17  C   UNL     1      44.400 -20.598   4.627  1.00  0.00     0.040 C 
ENDBRANCH  14  15
ENDBRANCH  10  14
ENDBRANCH   1   7
BRANCH   3  18
HETATM   18  C   UNL     1      39.999 -11.998   0.946  1.00  0.00     0.183 C 
BRANCH  18  19
HETATM   19  C   UNL     1      39.127 -12.299  -0.252  1.00  0.00     0.053 A 
HETATM   20  N   UNL     1      38.237 -11.358  -0.668  1.00  0.00    -0.264 NA
HETATM   21  C   UNL     1      37.485 -11.650  -1.754  1.00  0.00     0.118 A 
HETATM   22  C   UNL     1      37.583 -12.830  -2.466  1.00  0.00     0.043 A 
HETATM   23  C   UNL     1      38.513 -13.763  -2.035  1.00  0.00     0.037 A 
HETATM   24 CL   UNL     1      38.696 -15.247  -2.885  1.00  0.00    -0.084 Cl
HETATM   25  C   UNL     1      39.300 -13.507  -0.921  1.00  0.00     0.052 A 
ENDBRANCH  18  19
ENDBRANCH   3  18
TORSDOF 5
ENDMDL
MODEL 5
REMARK VINA RESULT:      -7.2      4.924      7.043
REMARK  5 active torsions:
REMARK  status: ('A' for Active; 'I' for Inactive)
REMARK    1  A    between atoms: C_3  and  O_4 
REMARK    2  A    between atoms: O_4  and  C_5 
REMARK    3  A    between atoms: C_10  and  N_11 
REMARK       I    between atoms: N_11  and  C_12 
REMARK       I    between atoms: C_12  and  N_13 
REMARK    4  A    between atoms: N_13  and  C_14 
REMARK    5  A    between atoms: C_14  and  C_15 
ROOT
HETATM    1  N   UNL     1      42.566 -12.047   3.567  1.00  0.00    -0.309 N 
HETATM    2  C   UNL     1      42.359 -13.203   2.896  1.00  0.00     0.321 C 
HETATM    3  N   UNL     1      42.363 -14.381   3.565  1.00  0.00    -0.337 N 
HETATM    4  O   UNL     1      42.149 -13.140   1.684  1.00  0.00    -0.247 OA
HETATM    5  H   UNL     1      42.413 -11.269   2.938  1.00  0.00     0.170 HD
HETATM    6  H   UNL     1      42.036 -14.365   4.519  1.00  0.00     0.164 HD
ENDROOT
BRANCH   1   7
HETATM    7  C   UNL     1      42.969 -11.701   4.867  1.00  0.00     0.037 A 
HETATM    8  C   UNL     1      44.045 -12.244   5.562  1.00  0.00     0.032 A 
HETATM    9  C   UNL     1      44.343 -11.812   6.867  1.00  0.00     0.039 A 
HETATM   10  C   UNL     1      43.583 -10.815   7.483  1.00  0.00     0.075 A 
HETATM   11  C   UNL     1      42.520 -10.234   6.779  1.00  0.00    -0.026 A 
HETATM   12  C   UNL     1      41.685  -9.145   7.396  1.00  0.00     0.051 C 
HETATM   13  C   UNL     1      42.222 -10.686   5.484  1.00  0.00     0.039 A 
BRANCH  10  14
HETATM   14  O   UNL     1      43.764 -10.346   8.755  1.00  0.00    -0.346 OA
BRANCH  14  15
HETATM   15  C   UNL     1      45.066  -9.963   9.202  1.00  0.00     0.121 C 
HETATM   16  C   UNL     1      45.531  -8.715   8.456  1.00  0.00     0.040 C 
HETATM   17  C   UNL     1      44.936  -9.657  10.692  1.00  0.00     0.040 C 
ENDBRANCH  14  15
ENDBRANCH  10  14
ENDBRANCH   1   7
BRANCH   3  18
HETATM   18  C   UNL     1      42.026 -15.586   2.835  1.00  0.00     0.183 C 
BRANCH  18  19
HETATM   19  C   UNL     1      42.851 -16.792   3.225  1.00  0.00     0.053 A 
HETATM   20  N   UNL     1      43.520 -16.773   4.409  1.00  0.00    -0.264 NA
HETATM   21  C   UNL     1      44.233 -17.875   4.738  1.00  0.00     0.118 A 
HETATM   22  C   UNL     1      44.304 -19.011   3.955  1.00  0.00     0.043 A 
HETATM   23  C   UNL     1      43.595 -19.013   2.764  1.00  0.00     0.037 A 
HETATM   24 CL   UNL     1      43.629 -20.401   1.748  1.00  0.00    -0.084 Cl
HETATM   25  C   UNL     1      42.856 -17.901   2.384  1.00  0.00     0.052 A 
ENDBRANCH  18  19
ENDBRANCH   3  18
TORSDOF 5
ENDMDL
MODEL 6
REMARK VINA RESULT:      -7.1      5.008      7.939
REMARK  5 active torsions:
REMARK  status: ('A' for Active; 'I' for Inactive)
REMARK    1  A    between atoms: C_3  and  O_4 
REMARK    2  A    between atoms: O_4  and  C_5 
REMARK    3  A    between atoms: C_10  and  N_11 
REMARK       I    between atoms: N_11  and  C_12 
REMARK       I    between atoms: C_12  and  N_13 
REMARK    4  A    between atoms: N_13  and  C_14 
REMARK    5  A    between atoms: C_14  and  C_15 
ROOT
HETATM    1  N   UNL     1      39.882 -13.903   5.477  1.00  0.00    -0.309 N 
HETATM    2  C   UNL     1      39.883 -12.643   5.971  1.00  0.00     0.321 C 
HETATM    3  N   UNL     1      41.058 -12.014   6.210  1.00  0.00    -0.337 N 
HETATM    4  O   UNL     1      38.797 -12.097   6.167  1.00  0.00    -0.247 OA
HETATM    5  H   UNL     1      38.932 -14.168   5.252  1.00  0.00     0.170 HD
HETATM    6  H   UNL     1      41.832 -12.247   5.607  1.00  0.00     0.164 HD
ENDROOT
BRANCH   1   7
HETATM    7  C   UNL     1      40.853 -14.894   5.259  1.00  0.00     0.037 A 
HETATM    8  C   UNL     1      41.225 -15.888   6.159  1.00  0.00     0.032 A 
HETATM    9  C   UNL     1      42.218 -16.823   5.819  1.00  0.00     0.039 A 
HETATM   10  C   UNL     1      42.834 -16.792   4.565  1.00  0.00     0.075 A 
HETATM   11  C   UNL     1      42.441 -15.818   3.636  1.00  0.00    -0.026 A 
HETATM   12  C   UNL     1      43.064 -15.756   2.268  1.00  0.00     0.051 C 
HETATM   13  C   UNL     1      41.461 -14.880   3.995  1.00  0.00     0.039 A 
BRANCH  10  14
HETATM   14  O   UNL     1      43.830 -17.628   4.145  1.00  0.00    -0.346 OA
BRANCH  14  15
HETATM   15  C   UNL     1      43.558 -19.012   3.914  1.00  0.00     0.121 C 
HETATM   16  C   UNL     1      43.939 -19.391   2.485  1.00  0.00     0.040 C 
HETATM   17  C   UNL     1      44.421 -19.791   4.904  1.00  0.00     0.040 C 
ENDBRANCH  14  15
ENDBRANCH  10  14
ENDBRANCH   1   7
BRANCH   3  18
HETATM   18  C   UNL     1      41.021 -10.627   6.630  1.00  0.00     0.183 C 
BRANCH  18  19
HETATM   19  C   UNL     1      42.324 -10.126   7.211  1.00  0.00     0.053 A 
HETATM   20  N   UNL     1      42.296  -9.079   8.078  1.00  0.00    -0.264 NA
HETATM   21  C   UNL     1      43.476  -8.667   8.594  1.00  0.00     0.118 A 
HETATM   22  C   UNL     1      44.692  -9.256   8.306  1.00  0.00     0.043 A 
HETATM   23  C   UNL     1      44.691 -10.336   7.437  1.00  0.00     0.037 A 
HETATM   24 CL   UNL     1      46.170 -11.124   7.046  1.00  0.00    -0.084 Cl
HETATM   25  C   UNL     1      43.503 -10.786   6.878  1.00  0.00     0.052 A 
ENDBRANCH  18  19
ENDBRANCH   3  18
TORSDOF 5
ENDMDL
MODEL 7
REMARK VINA RESULT:      -7.0      8.056     10.352
REMARK  5 active torsions:
REMARK  status: ('A' for Active; 'I' for Inactive)
REMARK    1  A    between atoms: C_3  and  O_4 
REMARK    2  A    between atoms: O_4  and  C_5 
REMARK    3  A    between atoms: C_10  and  N_11 
REMARK       I    between atoms: N_11  and  C_12 
REMARK       I    between atoms: C_12  and  N_13 
REMARK    4  A    between atoms: N_13  and  C_14 
REMARK    5  A    between atoms: C_14  and  C_15 
ROOT
HETATM    1  N   UNL     1      44.923 -10.481   8.439  1.00  0.00    -0.309 N 
HETATM    2  C   UNL     1      44.684 -11.336   7.418  1.00  0.00     0.321 C 
HETATM    3  N   UNL     1      43.443 -11.850   7.246  1.00  0.00    -0.337 N 
HETATM    4  O   UNL     1      45.614 -11.602   6.656  1.00  0.00    -0.247 OA
HETATM    5  H   UNL     1      45.860 -10.110   8.346  1.00  0.00     0.170 HD
HETATM    6  H   UNL     1      42.666 -11.269   7.520  1.00  0.00     0.164 HD
ENDROOT
BRANCH   1   7
HETATM    7  C   UNL     1      44.212 -10.048   9.571  1.00  0.00     0.037 A 
HETATM    8  C   UNL     1      43.914 -10.815  10.693  1.00  0.00     0.032 A 
HETATM    9  C   UNL     1      43.188 -10.262  11.762  1.00  0.00     0.039 A 
HETATM   10  C   UNL     1      42.774  -8.928  11.735  1.00  0.00     0.075 A 
HETATM   11  C   UNL     1      43.101  -8.135  10.626  1.00  0.00    -0.026 A 
HETATM   12  C   UNL     1      42.692  -6.689  10.560  1.00  0.00     0.051 C 
HETATM   13  C   UNL     1      43.810  -8.705   9.557  1.00  0.00     0.039 A 
BRANCH  10  14
HETATM   14  O   UNL     1      42.038  -8.301  12.701  1.00  0.00    -0.346 OA
BRANCH  14  15
HETATM   15  C   UNL     1      42.478  -8.313  14.061  1.00  0.00     0.121 C 
HETATM   16  C   UNL     1      43.165  -6.994  14.403  1.00  0.00     0.040 C 
HETATM   17  C   UNL     1      41.224  -8.481  14.917  1.00  0.00     0.040 C 
ENDBRANCH  14  15
ENDBRANCH  10  14
ENDBRANCH   1   7
BRANCH   3  18
HETATM   18  C   UNL     1      43.196 -12.671   6.077  1.00  0.00     0.183 C 
BRANCH  18  19
HETATM   19  C   UNL     1      43.171 -14.156   6.363  1.00  0.00     0.053 A 
HETATM   20  N   UNL     1      43.045 -14.573   7.652  1.00  0.00    -0.264 NA
HETATM   21  C   UNL     1      43.007 -15.907   7.872  1.00  0.00     0.118 A 
HETATM   22  C   UNL     1      43.070 -16.857   6.870  1.00  0.00     0.043 A 
HETATM   23  C   UNL     1      43.176 -16.406   5.564  1.00  0.00     0.037 A 
HETATM   24 CL   UNL     1      43.245 -17.535   4.269  1.00  0.00    -0.084 Cl
HETATM   25  C   UNL     1      43.226 -15.045   5.294  1.00  0.00     0.052 A 
ENDBRANCH  18  19
ENDBRANCH   3  18
TORSDOF 5
ENDMDL
MODEL 8
REMARK VINA RESULT:      -6.9      7.848      9.820
REMARK  5 active torsions:
REMARK  status: ('A' for Active; 'I' for Inactive)
REMARK    1  A    between atoms: C_3  and  O_4 
REMARK    2  A    between atoms: O_4  and  C_5 
REMARK    3  A    between atoms: C_10  and  N_11 
REMARK       I    between atoms: N_11  and  C_12 
REMARK       I    between atoms: C_12  and  N_13 
REMARK    4  A    between atoms: N_13  and  C_14 
REMARK    5  A    between atoms: C_14  and  C_15 
ROOT
HETATM    1  N   UNL     1      45.680 -10.682   6.616  1.00  0.00    -0.309 N 
HETATM    2  C   UNL     1      45.768  -9.985   7.772  1.00  0.00     0.321 C 
HETATM    3  N   UNL     1      44.890 -10.228   8.774  1.00  0.00    -0.337 N 
HETATM    4  O   UNL     1      46.672  -9.156   7.881  1.00  0.00    -0.247 OA
HETATM    5  H   UNL     1      46.477 -10.457   6.034  1.00  0.00     0.170 HD
HETATM    6  H   UNL     1      44.543 -11.171   8.859  1.00  0.00     0.164 HD
ENDROOT
BRANCH   1   7
HETATM    7  C   UNL     1      44.753 -11.574   6.052  1.00  0.00     0.037 A 
HETATM    8  C   UNL     1      44.205 -11.484   4.775  1.00  0.00     0.032 A 
HETATM    9  C   UNL     1      43.279 -12.443   4.329  1.00  0.00     0.039 A 
HETATM   10  C   UNL     1      42.909 -13.517   5.142  1.00  0.00     0.075 A 
HETATM   11  C   UNL     1      43.483 -13.638   6.415  1.00  0.00    -0.026 A 
HETATM   12  C   UNL     1      43.127 -14.787   7.319  1.00  0.00     0.051 C 
HETATM   13  C   UNL     1      44.392 -12.664   6.856  1.00  0.00     0.039 A 
BRANCH  10  14
HETATM   14  O   UNL     1      41.996 -14.483   4.821  1.00  0.00    -0.346 OA
BRANCH  14  15
HETATM   15  C   UNL     1      42.153 -15.251   3.626  1.00  0.00     0.121 C 
HETATM   16  C   UNL     1      43.292 -16.253   3.790  1.00  0.00     0.040 C 
HETATM   17  C   UNL     1      40.835 -15.995   3.418  1.00  0.00     0.040 C 
ENDBRANCH  14  15
ENDBRANCH  10  14
ENDBRANCH   1   7
BRANCH   3  18
HETATM   18  C   UNL     1      45.084  -9.544  10.037  1.00  0.00     0.183 C 
BRANCH  18  19
HETATM   19  C   UNL     1      43.804  -9.294  10.803  1.00  0.00     0.053 A 
HETATM   20  N   UNL     1      42.639  -9.799  10.316  1.00  0.00    -0.264 NA
HETATM   21  C   UNL     1      41.515  -9.574  11.035  1.00  0.00     0.118 A 
HETATM   22  C   UNL     1      41.489  -8.883  12.231  1.00  0.00     0.043 A 
HETATM   23  C   UNL     1      42.693  -8.397  12.717  1.00  0.00     0.037 A 
HETATM   24 CL   UNL     1      42.733  -7.540  14.208  1.00  0.00    -0.084 Cl
HETATM   25  C   UNL     1      43.869  -8.599  12.007  1.00  0.00     0.052 A 
ENDBRANCH  18  19
ENDBRANCH   3  18
TORSDOF 5
ENDMDL
MODEL 9
REMARK VINA RESULT:      -6.9      1.708      2.459
REMARK  5 active torsions:
REMARK  status: ('A' for Active; 'I' for Inactive)
REMARK    1  A    between atoms: C_3  and  O_4 
REMARK    2  A    between atoms: O_4  and  C_5 
REMARK    3  A    between atoms: C_10  and  N_11 
REMARK       I    between atoms: N_11  and  C_12 
REMARK       I    between atoms: C_12  and  N_13 
REMARK    4  A    between atoms: N_13  and  C_14 
REMARK    5  A    between atoms: C_14  and  C_15 
ROOT
HETATM    1  N   UNL     1      40.102 -14.512   3.439  1.00  0.00    -0.309 N 
HETATM    2  C   UNL     1      41.028 -15.300   4.032  1.00  0.00     0.321 C 
HETATM    3  N   UNL     1      42.301 -15.308   3.571  1.00  0.00    -0.337 N 
HETATM    4  O   UNL     1      40.678 -15.976   5.000  1.00  0.00    -0.247 OA
HETATM    5  H   UNL     1      39.247 -14.543   3.980  1.00  0.00     0.170 HD
HETATM    6  H   UNL     1      42.649 -14.448   3.175  1.00  0.00     0.164 HD
ENDROOT
BRANCH   1   7
HETATM    7  C   UNL     1      40.049 -13.732   2.272  1.00  0.00     0.037 A 
HETATM    8  C   UNL     1      40.225 -12.353   2.201  1.00  0.00     0.032 A 
HETATM    9  C   UNL     1      40.144 -11.687   0.965  1.00  0.00     0.039 A 
HETATM   10  C   UNL     1      39.911 -12.394  -0.218  1.00  0.00     0.075 A 
HETATM   11  C   UNL     1      39.770 -13.787  -0.163  1.00  0.00    -0.026 A 
HETATM   12  C   UNL     1      39.536 -14.592  -1.412  1.00  0.00     0.051 C 
HETATM   13  C   UNL     1      39.836 -14.438   1.079  1.00  0.00     0.039 A 
BRANCH  10  14
HETATM   14  O   UNL     1      39.781 -11.845  -1.462  1.00  0.00    -0.346 OA
BRANCH  14  15
HETATM   15  C   UNL     1      38.829 -10.804  -1.693  1.00  0.00     0.121 C 
HETATM   16  C   UNL     1      38.947 -10.293  -3.126  1.00  0.00     0.040 C 
HETATM   17  C   UNL     1      37.451 -11.426  -1.477  1.00  0.00     0.040 C 
ENDBRANCH  14  15
ENDBRANCH  10  14
ENDBRANCH   1   7
BRANCH   3  18
HETATM   18  C   UNL     1      43.290 -16.076   4.300  1.00  0.00     0.183 C 
BRANCH  18  19
HETATM   19  C   UNL     1      43.421 -17.509   3.834  1.00  0.00     0.053 A 
HETATM   20  N   UNL     1      43.132 -17.806   2.539  1.00  0.00    -0.264 NA
HETATM   21  C   UNL     1      43.278 -19.093   2.149  1.00  0.00     0.118 A 
HETATM   22  C   UNL     1      43.716 -20.107   2.980  1.00  0.00     0.043 A 
HETATM   23  C   UNL     1      44.025 -19.774   4.289  1.00  0.00     0.037 A 
HETATM   24 CL   UNL     1      44.589 -20.985   5.372  1.00  0.00    -0.084 Cl
HETATM   25  C   UNL     1      43.883 -18.466   4.733  1.00  0.00     0.052 A 
ENDBRANCH  18  19
ENDBRANCH   3  18
TORSDOF 5
ENDMDL
MODEL 10
REMARK VINA RESULT:      -6.9      1.992      2.806
REMARK  5 active torsions:
REMARK  status: ('A' for Active; 'I' for Inactive)
REMARK    1  A    between atoms: C_3  and  O_4 
REMARK    2  A    between atoms: O_4  and  C_5 
REMARK    3  A    between atoms: C_10  and  N_11 
REMARK       I    between atoms: N_11  and  C_12 
REMARK       I    between atoms: C_12  and  N_13 
REMARK    4  A    between atoms: N_13  and  C_14 
REMARK    5  A    between atoms: C_14  and  C_15 
ROOT
HETATM    1  N   UNL     1      39.327 -13.085   4.552  1.00  0.00    -0.309 N 
HETATM    2  C   UNL     1      40.264 -13.553   5.408  1.00  0.00     0.321 C 
HETATM    3  N   UNL     1      41.543 -13.704   4.990  1.00  0.00    -0.337 N 
HETATM    4  O   UNL     1      39.917 -13.809   6.562  1.00  0.00    -0.247 OA
HETATM    5  H   UNL     1      38.466 -12.927   5.060  1.00  0.00     0.170 HD
HETATM    6  H   UNL     1      41.874 -13.056   4.292  1.00  0.00     0.164 HD
ENDROOT
BRANCH   1   7
HETATM    7  C   UNL     1      39.271 -12.822   3.173  1.00  0.00     0.037 A 
HETATM    8  C   UNL     1      38.861 -11.630   2.583  1.00  0.00     0.032 A 
HETATM    9  C   UNL     1      38.847 -11.496   1.183  1.00  0.00     0.039 A 
HETATM   10  C   UNL     1      39.267 -12.541   0.357  1.00  0.00     0.075 A 
HETATM   11  C   UNL     1      39.717 -13.733   0.942  1.00  0.00    -0.026 A 
HETATM   12  C   UNL     1      40.195 -14.880   0.093  1.00  0.00     0.051 C 
HETATM   13  C   UNL     1      39.709 -13.861   2.339  1.00  0.00     0.039 A 
BRANCH  10  14
HETATM   14  O   UNL     1      39.262 -12.529  -1.009  1.00  0.00    -0.346 OA
BRANCH  14  15
HETATM   15  C   UNL     1      38.025 -12.549  -1.725  1.00  0.00     0.121 C 
HETATM   16  C   UNL     1      37.813 -11.220  -2.445  1.00  0.00     0.040 C 
HETATM   17  C   UNL     1      38.137 -13.679  -2.746  1.00  0.00     0.040 C 
ENDBRANCH  14  15
ENDBRANCH  10  14
ENDBRANCH   1   7
BRANCH   3  18
HETATM   18  C   UNL     1      42.541 -14.099   5.964  1.00  0.00     0.183 C 
BRANCH  18  19
HETATM   19  C   UNL     1      42.954 -15.550   5.866  1.00  0.00     0.053 A 
HETATM   20  N   UNL     1      43.042 -16.286   7.006  1.00  0.00    -0.264 NA
HETATM   21  C   UNL     1      43.395 -17.586   6.882  1.00  0.00     0.118 A 
HETATM   22  C   UNL     1      43.651 -18.204   5.673  1.00  0.00     0.043 A 
HETATM   23  C   UNL     1      43.533 -17.438   4.524  1.00  0.00     0.037 A 
HETATM   24 CL   UNL     1      43.824 -18.150   2.985  1.00  0.00    -0.084 Cl
HETATM   25  C   UNL     1      43.180 -16.098   4.607  1.00  0.00     0.052 A 
ENDBRANCH  18  19
ENDBRANCH   3  18
TORSDOF 5
ENDMDL
