MODEL 1
REMARK VINA RESULT:      -7.6      0.000      0.000
REMARK  10 active torsions:
REMARK  status: ('A' for Active; 'I' for Inactive)
REMARK    1  A    between atoms: C_3  and  N_4 
REMARK    2  A    between atoms: C_5  and  S_6 
REMARK    3  A    between atoms: S_6  and  C_7 
REMARK    4  A    between atoms: C_7  and  C_8 
REMARK       I    between atoms: C_8  and  N_9 
REMARK    5  A    between atoms: N_9  and  C_10 
REMARK    6  A    between atoms: C_10  and  C_11 
REMARK    7  A    between atoms: C_11  and  C_12 
REMARK    8  A    between atoms: C_15  and  S_16 
REMARK    9  A    between atoms: S_16  and  N_17 
REMARK   10  A    between atoms: C_26  and  N_27 
ROOT
HETATM    1  N   UNL     1      44.778 -30.446   0.741  1.00  0.00    -0.275 N 
HETATM    2  C   UNL     1      45.561 -31.537   0.979  1.00  0.00     0.177 A 
HETATM    3  N   UNL     1      45.480 -32.325   2.074  1.00  0.00    -0.204 NA
HETATM    4  C   UNL     1      44.452 -31.989   2.853  1.00  0.00     0.162 A 
HETATM    5  C   UNL     1      43.575 -30.943   2.662  1.00  0.00     0.081 A 
HETATM    6  C   UNL     1      43.754 -30.085   1.564  1.00  0.00     0.124 A 
HETATM    7  N   UNL     1      44.063 -32.631   3.994  1.00  0.00    -0.260 N 
HETATM    8  H   UNL     1      44.487 -33.444   4.428  1.00  0.00     0.191 HD
HETATM    9  N   UNL     1      42.982 -32.082   4.564  1.00  0.00    -0.177 NA
HETATM   10  C   UNL     1      42.667 -31.059   3.759  1.00  0.00     0.068 A 
HETATM   11  C   UNL     1      41.482 -30.222   4.082  1.00  0.00     0.073 C 
ENDROOT
BRANCH   2  12
HETATM   12  S   UNL     1      46.846 -32.033  -0.186  1.00  0.00    -0.082 SA
BRANCH  12  13
HETATM   13  C   UNL     1      48.335 -31.579   0.761  1.00  0.00     0.185 C 
BRANCH  13  14
HETATM   14  C   UNL     1      49.164 -30.491   0.084  1.00  0.00     0.227 C 
HETATM   15  N   UNL     1      50.188 -29.941   0.817  1.00  0.00    -0.360 N 
HETATM   16  H   UNL     1      50.751 -29.268   0.305  1.00  0.00     0.162 HD
HETATM   17  O   UNL     1      48.963 -30.106  -1.069  1.00  0.00    -0.273 OA
BRANCH  15  18
HETATM   18  C   UNL     1      50.699 -30.477   2.069  1.00  0.00     0.127 C 
BRANCH  18  19
HETATM   19  C   UNL     1      50.295 -29.667   3.302  1.00  0.00     0.058 C 
BRANCH  19  20
HETATM   20  C   UNL     1      49.270 -30.439   4.101  1.00  0.00    -0.057 A 
HETATM   21  C   UNL     1      47.945 -29.986   4.181  1.00  0.00     0.009 A 
HETATM   22  C   UNL     1      47.026 -30.631   5.011  1.00  0.00     0.025 A 
HETATM   23  C   UNL     1      47.431 -31.738   5.761  1.00  0.00     0.074 A 
HETATM   24  C   UNL     1      48.744 -32.207   5.683  1.00  0.00     0.025 A 
HETATM   25  C   UNL     1      49.659 -31.561   4.851  1.00  0.00     0.009 A 
BRANCH  23  26
HETATM   26  S   UNL     1      46.299 -32.481   6.903  1.00  0.00     0.239 S 
HETATM   27  O   UNL     1      45.799 -33.710   6.334  1.00  0.00    -0.206 OA
HETATM   28  O   UNL     1      46.870 -32.417   8.228  1.00  0.00    -0.206 OA
BRANCH  26  29
HETATM   29  N   UNL     1      45.018 -31.399   6.887  1.00  0.00    -0.225 NA
HETATM   30  H   UNL     1      44.765 -31.173   5.924  1.00  0.00     0.136 HD
HETATM   31  H   UNL     1      44.241 -31.771   7.434  1.00  0.00     0.136 HD
ENDBRANCH  26  29
ENDBRANCH  23  26
ENDBRANCH  19  20
ENDBRANCH  18  19
ENDBRANCH  15  18
ENDBRANCH  13  14
ENDBRANCH  12  13
ENDBRANCH   2  12
BRANCH   1  32
HETATM   32  C   UNL     1      45.020 -29.646  -0.430  1.00  0.00     0.051 A 
HETATM   33  C   UNL     1      45.879 -28.533  -0.356  1.00  0.00    -0.035 A 
HETATM   34  C   UNL     1      46.656 -28.159   0.874  1.00  0.00     0.050 C 
HETATM   35  C   UNL     1      46.050 -27.773  -1.520  1.00  0.00     0.011 A 
HETATM   36  C   UNL     1      45.352 -28.090  -2.690  1.00  0.00     0.024 A 
HETATM   37  C   UNL     1      44.485 -29.181  -2.718  1.00  0.00     0.036 A 
HETATM   38  C   UNL     1      44.310 -29.974  -1.588  1.00  0.00     0.054 A 
HETATM   39 CL   UNL     1      43.613 -29.544  -4.152  1.00  0.00    -0.084 Cl
ENDBRANCH   1  32
BRANCH   6  40
HETATM   40  N   UNL     1      42.961 -28.966   1.345  1.00  0.00    -0.384 N 
HETATM   41  H   UNL     1      43.408 -28.062   1.233  1.00  0.00     0.157 HD
HETATM   42  H   UNL     1      42.032 -29.028   0.949  1.00  0.00     0.157 HD
ENDBRANCH   6  40
TORSDOF 10
ENDMDL
MODEL 2
REMARK VINA RESULT:      -7.3     18.830     20.162
REMARK  10 active torsions:
REMARK  status: ('A' for Active; 'I' for Inactive)
REMARK    1  A    between atoms: C_3  and  N_4 
REMARK    2  A    between atoms: C_5  and  S_6 
REMARK    3  A    between atoms: S_6  and  C_7 
REMARK    4  A    between atoms: C_7  and  C_8 
REMARK       I    between atoms: C_8  and  N_9 
REMARK    5  A    between atoms: N_9  and  C_10 
REMARK    6  A    between atoms: C_10  and  C_11 
REMARK    7  A    between atoms: C_11  and  C_12 
REMARK    8  A    between atoms: C_15  and  S_16 
REMARK    9  A    between atoms: S_16  and  N_17 
REMARK   10  A    between atoms: C_26  and  N_27 
ROOT
HETATM    1  N   UNL     1      42.223 -13.504   4.563  1.00  0.00    -0.275 N 
HETATM    2  C   UNL     1      42.923 -13.205   5.695  1.00  0.00     0.177 A 
HETATM    3  N   UNL     1      43.676 -14.083   6.395  1.00  0.00    -0.204 NA
HETATM    4  C   UNL     1      43.764 -15.263   5.781  1.00  0.00     0.162 A 
HETATM    5  C   UNL     1      43.142 -15.635   4.608  1.00  0.00     0.081 A 
HETATM    6  C   UNL     1      42.286 -14.726   3.963  1.00  0.00     0.124 A 
HETATM    7  N   UNL     1      44.502 -16.333   6.196  1.00  0.00    -0.260 N 
HETATM    8  H   UNL     1      45.085 -16.407   7.023  1.00  0.00     0.191 HD
HETATM    9  N   UNL     1      44.415 -17.385   5.370  1.00  0.00    -0.177 NA
HETATM   10  C   UNL     1      43.597 -16.971   4.393  1.00  0.00     0.068 A 
HETATM   11  C   UNL     1      43.287 -17.895   3.270  1.00  0.00     0.073 C 
ENDROOT
BRANCH   2  12
HETATM   12  S   UNL     1      42.884 -11.547   6.404  1.00  0.00    -0.082 SA
BRANCH  12  13
HETATM   13  C   UNL     1      44.327 -11.634   7.512  1.00  0.00     0.185 C 
BRANCH  13  14
HETATM   14  C   UNL     1      45.570 -10.971   6.927  1.00  0.00     0.227 C 
HETATM   15  N   UNL     1      46.079  -9.890   7.606  1.00  0.00    -0.360 N 
HETATM   16  H   UNL     1      46.941  -9.521   7.215  1.00  0.00     0.162 HD
HETATM   17  O   UNL     1      46.129 -11.366   5.902  1.00  0.00    -0.273 OA
BRANCH  15  18
HETATM   18  C   UNL     1      45.687  -9.489   8.948  1.00  0.00     0.127 C 
BRANCH  18  19
HETATM   19  C   UNL     1      44.548  -8.470   8.984  1.00  0.00     0.058 C 
BRANCH  19  20
HETATM   20  C   UNL     1      43.537  -8.878  10.030  1.00  0.00    -0.057 A 
HETATM   21  C   UNL     1      42.191  -9.064   9.680  1.00  0.00     0.009 A 
HETATM   22  C   UNL     1      41.234  -9.326  10.663  1.00  0.00     0.025 A 
HETATM   23  C   UNL     1      41.625  -9.410  12.002  1.00  0.00     0.074 A 
HETATM   24  C   UNL     1      42.962  -9.237  12.364  1.00  0.00     0.025 A 
HETATM   25  C   UNL     1      43.915  -8.977  11.379  1.00  0.00     0.009 A 
BRANCH  23  26
HETATM   26  S   UNL     1      40.395  -9.623  13.258  1.00  0.00     0.239 S 
HETATM   27  O   UNL     1      40.032 -11.019  13.326  1.00  0.00    -0.206 OA
HETATM   28  O   UNL     1      40.788  -8.868  14.425  1.00  0.00    -0.206 OA
BRANCH  26  29
HETATM   29  N   UNL     1      39.074  -8.825  12.602  1.00  0.00    -0.225 NA
HETATM   30  H   UNL     1      38.224  -9.369  12.761  1.00  0.00     0.136 HD
HETATM   31  H   UNL     1      39.023  -7.874  12.970  1.00  0.00     0.136 HD
ENDBRANCH  26  29
ENDBRANCH  23  26
ENDBRANCH  19  20
ENDBRANCH  18  19
ENDBRANCH  15  18
ENDBRANCH  13  14
ENDBRANCH  12  13
ENDBRANCH   2  12
BRANCH   1  32
HETATM   32  C   UNL     1      41.396 -12.495   3.957  1.00  0.00     0.051 A 
HETATM   33  C   UNL     1      40.087 -12.281   4.430  1.00  0.00    -0.035 A 
HETATM   34  C   UNL     1      39.502 -12.993   5.616  1.00  0.00     0.050 C 
HETATM   35  C   UNL     1      39.318 -11.307   3.780  1.00  0.00     0.011 A 
HETATM   36  C   UNL     1      39.826 -10.615   2.676  1.00  0.00     0.024 A 
HETATM   37  C   UNL     1      41.117 -10.874   2.215  1.00  0.00     0.036 A 
HETATM   38  C   UNL     1      41.918 -11.816   2.852  1.00  0.00     0.054 A 
HETATM   39 CL   UNL     1      41.719 -10.037   0.843  1.00  0.00    -0.084 Cl
ENDBRANCH   1  32
BRANCH   6  40
HETATM   40  N   UNL     1      41.564 -15.051   2.822  1.00  0.00    -0.384 N 
HETATM   41  H   UNL     1      41.893 -15.808   2.232  1.00  0.00     0.157 HD
HETATM   42  H   UNL     1      40.580 -14.837   2.722  1.00  0.00     0.157 HD
ENDBRANCH   6  40
TORSDOF 10
ENDMDL
MODEL 3
REMARK VINA RESULT:      -7.3     16.315     18.164
REMARK  10 active torsions:
REMARK  status: ('A' for Active; 'I' for Inactive)
REMARK    1  A    between atoms: C_3  and  N_4 
REMARK    2  A    between atoms: C_5  and  S_6 
REMARK    3  A    between atoms: S_6  and  C_7 
REMARK    4  A    between atoms: C_7  and  C_8 
REMARK       I    between atoms: C_8  and  N_9 
REMARK    5  A    between atoms: N_9  and  C_10 
REMARK    6  A    between atoms: C_10  and  C_11 
REMARK    7  A    between atoms: C_11  and  C_12 
REMARK    8  A    between atoms: C_15  and  S_16 
REMARK    9  A    between atoms: S_16  and  N_17 
REMARK   10  A    between atoms: C_26  and  N_27 
ROOT
HETATM    1  N   UNL     1      42.959 -16.762   4.215  1.00  0.00    -0.275 N 
HETATM    2  C   UNL     1      42.898 -16.684   2.855  1.00  0.00     0.177 A 
HETATM    3  N   UNL     1      43.242 -17.678   2.005  1.00  0.00    -0.204 NA
HETATM    4  C   UNL     1      43.535 -18.806   2.652  1.00  0.00     0.162 A 
HETATM    5  C   UNL     1      43.565 -18.994   4.017  1.00  0.00     0.081 A 
HETATM    6  C   UNL     1      43.300 -17.908   4.869  1.00  0.00     0.124 A 
HETATM    7  N   UNL     1      43.853 -20.003   2.078  1.00  0.00    -0.260 N 
HETATM    8  H   UNL     1      43.924 -20.223   1.090  1.00  0.00     0.191 HD
HETATM    9  N   UNL     1      44.084 -20.971   2.976  1.00  0.00    -0.177 NA
HETATM   10  C   UNL     1      43.902 -20.375   4.160  1.00  0.00     0.068 A 
HETATM   11  C   UNL     1      44.060 -21.173   5.404  1.00  0.00     0.073 C 
ENDROOT
BRANCH   2  12
HETATM   12  S   UNL     1      42.354 -15.174   2.032  1.00  0.00    -0.082 SA
BRANCH  12  13
HETATM   13  C   UNL     1      40.591 -15.558   1.782  1.00  0.00     0.185 C 
BRANCH  13  14
HETATM   14  C   UNL     1      39.895 -14.580   0.840  1.00  0.00     0.227 C 
HETATM   15  N   UNL     1      39.355 -13.449   1.404  1.00  0.00    -0.360 N 
HETATM   16  H   UNL     1      38.959 -12.797   0.732  1.00  0.00     0.162 HD
HETATM   17  O   UNL     1      39.812 -14.754  -0.377  1.00  0.00    -0.273 OA
BRANCH  15  18
HETATM   18  C   UNL     1      39.608 -12.991   2.762  1.00  0.00     0.127 C 
BRANCH  18  19
HETATM   19  C   UNL     1      39.997 -11.516   2.857  1.00  0.00     0.058 C 
BRANCH  19  20
HETATM   20  C   UNL     1      40.008 -11.087   4.306  1.00  0.00    -0.057 A 
HETATM   21  C   UNL     1      38.953 -11.446   5.159  1.00  0.00     0.009 A 
HETATM   22  C   UNL     1      38.902 -10.955   6.465  1.00  0.00     0.025 A 
HETATM   23  C   UNL     1      39.912 -10.107   6.924  1.00  0.00     0.074 A 
HETATM   24  C   UNL     1      40.974  -9.750   6.090  1.00  0.00     0.025 A 
HETATM   25  C   UNL     1      41.022 -10.244   4.786  1.00  0.00     0.009 A 
BRANCH  23  26
HETATM   26  S   UNL     1      39.784  -9.390   8.539  1.00  0.00     0.239 S 
HETATM   27  O   UNL     1      38.686 -10.012   9.241  1.00  0.00    -0.206 OA
HETATM   28  O   UNL     1      41.108  -9.289   9.107  1.00  0.00    -0.206 OA
BRANCH  26  29
HETATM   29  N   UNL     1      39.296  -7.823   8.194  1.00  0.00    -0.225 NA
HETATM   30  H   UNL     1      39.988  -7.158   8.543  1.00  0.00     0.136 HD
HETATM   31  H   UNL     1      39.110  -7.728   7.195  1.00  0.00     0.136 HD
ENDBRANCH  26  29
ENDBRANCH  23  26
ENDBRANCH  19  20
ENDBRANCH  18  19
ENDBRANCH  15  18
ENDBRANCH  13  14
ENDBRANCH  12  13
ENDBRANCH   2  12
BRANCH   1  32
HETATM   32  C   UNL     1      42.639 -15.603   5.004  1.00  0.00     0.051 A 
HETATM   33  C   UNL     1      41.327 -15.417   5.480  1.00  0.00    -0.035 A 
HETATM   34  C   UNL     1      40.221 -16.417   5.292  1.00  0.00     0.050 C 
HETATM   35  C   UNL     1      41.067 -14.254   6.216  1.00  0.00     0.011 A 
HETATM   36  C   UNL     1      42.069 -13.299   6.421  1.00  0.00     0.024 A 
HETATM   37  C   UNL     1      43.350 -13.502   5.908  1.00  0.00     0.036 A 
HETATM   38  C   UNL     1      43.650 -14.658   5.195  1.00  0.00     0.054 A 
HETATM   39 CL   UNL     1      44.563 -12.311   6.144  1.00  0.00    -0.084 Cl
ENDBRANCH   1  32
BRANCH   6  40
HETATM   40  N   UNL     1      43.385 -17.998   6.252  1.00  0.00    -0.384 N 
HETATM   41  H   UNL     1      43.022 -17.237   6.817  1.00  0.00     0.157 HD
HETATM   42  H   UNL     1      43.455 -18.884   6.736  1.00  0.00     0.157 HD
ENDBRANCH   6  40
TORSDOF 10
ENDMDL
MODEL 4
REMARK VINA RESULT:      -7.3     18.845     20.395
REMARK  10 active torsions:
REMARK  status: ('A' for Active; 'I' for Inactive)
REMARK    1  A    between atoms: C_3  and  N_4 
REMARK    2  A    between atoms: C_5  and  S_6 
REMARK    3  A    between atoms: S_6  and  C_7 
REMARK    4  A    between atoms: C_7  and  C_8 
REMARK       I    between atoms: C_8  and  N_9 
REMARK    5  A    between atoms: N_9  and  C_10 
REMARK    6  A    between atoms: C_10  and  C_11 
REMARK    7  A    between atoms: C_11  and  C_12 
REMARK    8  A    between atoms: C_15  and  S_16 
REMARK    9  A    between atoms: S_16  and  N_17 
REMARK   10  A    between atoms: C_26  and  N_27 
ROOT
HETATM    1  N   UNL     1      41.189 -12.973   3.327  1.00  0.00    -0.275 N 
HETATM    2  C   UNL     1      42.098 -11.960   3.409  1.00  0.00     0.177 A 
HETATM    3  N   UNL     1      41.940 -10.731   2.869  1.00  0.00    -0.204 NA
HETATM    4  C   UNL     1      40.726 -10.571   2.344  1.00  0.00     0.162 A 
HETATM    5  C   UNL     1      39.724 -11.517   2.268  1.00  0.00     0.081 A 
HETATM    6  C   UNL     1      39.964 -12.814   2.751  1.00  0.00     0.124 A 
HETATM    7  N   UNL     1      40.234  -9.427   1.784  1.00  0.00    -0.260 N 
HETATM    8  H   UNL     1      40.704  -8.534   1.674  1.00  0.00     0.191 HD
HETATM    9  N   UNL     1      38.972  -9.552   1.352  1.00  0.00    -0.177 NA
HETATM   10  C   UNL     1      38.645 -10.816   1.649  1.00  0.00     0.068 A 
HETATM   11  C   UNL     1      37.280 -11.306   1.321  1.00  0.00     0.073 C 
ENDROOT
BRANCH   2  12
HETATM   12  S   UNL     1      43.671 -12.188   4.262  1.00  0.00    -0.082 SA
BRANCH  12  13
HETATM   13  C   UNL     1      43.286 -11.416   5.866  1.00  0.00     0.185 C 
BRANCH  13  14
HETATM   14  C   UNL     1      43.925 -12.142   7.047  1.00  0.00     0.227 C 
HETATM   15  N   UNL     1      44.736 -11.398   7.870  1.00  0.00    -0.360 N 
HETATM   16  H   UNL     1      45.088 -11.907   8.677  1.00  0.00     0.162 HD
HETATM   17  O   UNL     1      43.737 -13.335   7.290  1.00  0.00    -0.273 OA
BRANCH  15  18
HETATM   18  C   UNL     1      44.831  -9.947   7.858  1.00  0.00     0.127 C 
BRANCH  18  19
HETATM   19  C   UNL     1      45.115  -9.332   9.229  1.00  0.00     0.058 C 
BRANCH  19  20
HETATM   20  C   UNL     1      43.863  -9.380  10.074  1.00  0.00    -0.057 A 
HETATM   21  C   UNL     1      43.814 -10.183  11.223  1.00  0.00     0.009 A 
HETATM   22  C   UNL     1      42.623 -10.320  11.940  1.00  0.00     0.025 A 
HETATM   23  C   UNL     1      41.478  -9.646  11.511  1.00  0.00     0.074 A 
HETATM   24  C   UNL     1      41.514  -8.834  10.375  1.00  0.00     0.025 A 
HETATM   25  C   UNL     1      42.707  -8.699   9.663  1.00  0.00     0.009 A 
BRANCH  23  26
HETATM   26  S   UNL     1      39.941  -9.914  12.350  1.00  0.00     0.239 S 
HETATM   27  O   UNL     1      40.175 -10.763  13.495  1.00  0.00    -0.206 OA
HETATM   28  O   UNL     1      39.242  -8.654  12.451  1.00  0.00    -0.206 OA
BRANCH  26  29
HETATM   29  N   UNL     1      39.089 -10.841  11.242  1.00  0.00    -0.225 NA
HETATM   30  H   UNL     1      39.245 -11.833  11.425  1.00  0.00     0.136 HD
HETATM   31  H   UNL     1      38.103 -10.576  11.251  1.00  0.00     0.136 HD
ENDBRANCH  26  29
ENDBRANCH  23  26
ENDBRANCH  19  20
ENDBRANCH  18  19
ENDBRANCH  15  18
ENDBRANCH  13  14
ENDBRANCH  12  13
ENDBRANCH   2  12
BRANCH   1  32
HETATM   32  C   UNL     1      41.514 -14.261   3.880  1.00  0.00     0.051 A 
HETATM   33  C   UNL     1      41.151 -14.570   5.204  1.00  0.00    -0.035 A 
HETATM   34  C   UNL     1      40.345 -13.657   6.083  1.00  0.00     0.050 C 
HETATM   35  C   UNL     1      41.523 -15.828   5.698  1.00  0.00     0.011 A 
HETATM   36  C   UNL     1      42.267 -16.713   4.911  1.00  0.00     0.024 A 
HETATM   37  C   UNL     1      42.637 -16.361   3.613  1.00  0.00     0.036 A 
HETATM   38  C   UNL     1      42.262 -15.131   3.081  1.00  0.00     0.054 A 
HETATM   39 CL   UNL     1      43.573 -17.444   2.667  1.00  0.00    -0.084 Cl
ENDBRANCH   1  32
BRANCH   6  40
HETATM   40  N   UNL     1      39.035 -13.841   2.642  1.00  0.00    -0.384 N 
HETATM   41  H   UNL     1      38.242 -13.722   2.022  1.00  0.00     0.157 HD
HETATM   42  H   UNL     1      39.264 -14.805   2.852  1.00  0.00     0.157 HD
ENDBRANCH   6  40
TORSDOF 10
ENDMDL
MODEL 5
REMARK VINA RESULT:      -7.2     19.449     20.878
REMARK  10 active torsions:
REMARK  status: ('A' for Active; 'I' for Inactive)
REMARK    1  A    between atoms: C_3  and  N_4 
REMARK    2  A    between atoms: C_5  and  S_6 
REMARK    3  A    between atoms: S_6  and  C_7 
REMARK    4  A    between atoms: C_7  and  C_8 
REMARK       I    between atoms: C_8  and  N_9 
REMARK    5  A    between atoms: N_9  and  C_10 
REMARK    6  A    between atoms: C_10  and  C_11 
REMARK    7  A    between atoms: C_11  and  C_12 
REMARK    8  A    between atoms: C_15  and  S_16 
REMARK    9  A    between atoms: S_16  and  N_17 
REMARK   10  A    between atoms: C_26  and  N_27 
ROOT
HETATM    1  N   UNL     1      41.505 -12.553   4.845  1.00  0.00    -0.275 N 
HETATM    2  C   UNL     1      42.401 -12.011   5.718  1.00  0.00     0.177 A 
HETATM    3  N   UNL     1      42.407 -10.720   6.121  1.00  0.00    -0.204 NA
HETATM    4  C   UNL     1      41.350 -10.051   5.661  1.00  0.00     0.162 A 
HETATM    5  C   UNL     1      40.365 -10.531   4.824  1.00  0.00     0.081 A 
HETATM    6  C   UNL     1      40.449 -11.850   4.347  1.00  0.00     0.124 A 
HETATM    7  N   UNL     1      41.035  -8.753   5.942  1.00  0.00    -0.260 N 
HETATM    8  H   UNL     1      41.544  -8.099   6.528  1.00  0.00     0.191 HD
HETATM    9  N   UNL     1      39.901  -8.347   5.353  1.00  0.00    -0.177 NA
HETATM   10  C   UNL     1      39.477  -9.422   4.677  1.00  0.00     0.068 A 
HETATM   11  C   UNL     1      38.209  -9.338   3.906  1.00  0.00     0.073 C 
ENDROOT
BRANCH   2  12
HETATM   12  S   UNL     1      43.730 -13.004   6.425  1.00  0.00    -0.082 SA
BRANCH  12  13
HETATM   13  C   UNL     1      44.476 -11.788   7.559  1.00  0.00     0.185 C 
BRANCH  13  14
HETATM   14  C   UNL     1      45.657 -11.044   6.943  1.00  0.00     0.227 C 
HETATM   15  N   UNL     1      46.079  -9.905   7.585  1.00  0.00    -0.360 N 
HETATM   16  H   UNL     1      46.906  -9.478   7.176  1.00  0.00     0.162 HD
HETATM   17  O   UNL     1      46.239 -11.422   5.925  1.00  0.00    -0.273 OA
BRANCH  15  18
HETATM   18  C   UNL     1      45.665  -9.497   8.919  1.00  0.00     0.127 C 
BRANCH  18  19
HETATM   19  C   UNL     1      44.512  -8.494   8.931  1.00  0.00     0.058 C 
BRANCH  19  20
HETATM   20  C   UNL     1      43.500  -8.898   9.979  1.00  0.00    -0.057 A 
HETATM   21  C   UNL     1      42.145  -9.033   9.642  1.00  0.00     0.009 A 
HETATM   22  C   UNL     1      41.193  -9.291  10.630  1.00  0.00     0.025 A 
HETATM   23  C   UNL     1      41.597  -9.422  11.961  1.00  0.00     0.074 A 
HETATM   24  C   UNL     1      42.944  -9.301  12.310  1.00  0.00     0.025 A 
HETATM   25  C   UNL     1      43.892  -9.044  11.319  1.00  0.00     0.009 A 
BRANCH  23  26
HETATM   26  S   UNL     1      40.377  -9.630  13.228  1.00  0.00     0.239 S 
HETATM   27  O   UNL     1      40.038 -11.031  13.326  1.00  0.00    -0.206 OA
HETATM   28  O   UNL     1      40.764  -8.846  14.377  1.00  0.00    -0.206 OA
BRANCH  26  29
HETATM   29  N   UNL     1      39.040  -8.868  12.562  1.00  0.00    -0.225 NA
HETATM   30  H   UNL     1      38.224  -9.011  13.159  1.00  0.00     0.136 HD
HETATM   31  H   UNL     1      39.250  -7.884  12.390  1.00  0.00     0.136 HD
ENDBRANCH  26  29
ENDBRANCH  23  26
ENDBRANCH  19  20
ENDBRANCH  18  19
ENDBRANCH  15  18
ENDBRANCH  13  14
ENDBRANCH  12  13
ENDBRANCH   2  12
BRANCH   1  32
HETATM   32  C   UNL     1      41.656 -13.925   4.438  1.00  0.00     0.051 A 
HETATM   33  C   UNL     1      41.119 -14.956   5.230  1.00  0.00    -0.035 A 
HETATM   34  C   UNL     1      40.296 -14.720   6.464  1.00  0.00     0.050 C 
HETATM   35  C   UNL     1      41.326 -16.274   4.799  1.00  0.00     0.011 A 
HETATM   36  C   UNL     1      42.080 -16.540   3.652  1.00  0.00     0.024 A 
HETATM   37  C   UNL     1      42.624 -15.494   2.908  1.00  0.00     0.036 A 
HETATM   38  C   UNL     1      42.417 -14.173   3.292  1.00  0.00     0.054 A 
HETATM   39 CL   UNL     1      43.570 -15.834   1.517  1.00  0.00    -0.084 Cl
ENDBRANCH   1  32
BRANCH   6  40
HETATM   40  N   UNL     1      39.539 -12.383   3.442  1.00  0.00    -0.384 N 
HETATM   41  H   UNL     1      39.794 -13.216   2.923  1.00  0.00     0.157 HD
HETATM   42  H   UNL     1      38.543 -12.220   3.514  1.00  0.00     0.157 HD
ENDBRANCH   6  40
TORSDOF 10
ENDMDL
MODEL 6
REMARK VINA RESULT:      -7.1     19.537     21.096
REMARK  10 active torsions:
REMARK  status: ('A' for Active; 'I' for Inactive)
REMARK    1  A    between atoms: C_3  and  N_4 
REMARK    2  A    between atoms: C_5  and  S_6 
REMARK    3  A    between atoms: S_6  and  C_7 
REMARK    4  A    between atoms: C_7  and  C_8 
REMARK       I    between atoms: C_8  and  N_9 
REMARK    5  A    between atoms: N_9  and  C_10 
REMARK    6  A    between atoms: C_10  and  C_11 
REMARK    7  A    between atoms: C_11  and  C_12 
REMARK    8  A    between atoms: C_15  and  S_16 
REMARK    9  A    between atoms: S_16  and  N_17 
REMARK   10  A    between atoms: C_26  and  N_27 
ROOT
HETATM    1  N   UNL     1      42.169 -13.461   3.949  1.00  0.00    -0.275 N 
HETATM    2  C   UNL     1      42.849 -12.364   4.389  1.00  0.00     0.177 A 
HETATM    3  N   UNL     1      42.953 -11.195   3.718  1.00  0.00    -0.204 NA
HETATM    4  C   UNL     1      42.203 -11.186   2.617  1.00  0.00     0.162 A 
HETATM    5  C   UNL     1      41.438 -12.224   2.126  1.00  0.00     0.081 A 
HETATM    6  C   UNL     1      41.437 -13.457   2.799  1.00  0.00     0.124 A 
HETATM    7  N   UNL     1      42.039 -10.134   1.762  1.00  0.00    -0.260 N 
HETATM    8  H   UNL     1      42.457  -9.211   1.821  1.00  0.00     0.191 HD
HETATM    9  N   UNL     1      41.211 -10.406   0.745  1.00  0.00    -0.177 NA
HETATM   10  C   UNL     1      40.829 -11.671   0.958  1.00  0.00     0.068 A 
HETATM   11  C   UNL     1      39.873 -12.307   0.014  1.00  0.00     0.073 C 
ENDROOT
BRANCH   2  12
HETATM   12  S   UNL     1      43.730 -12.385   5.963  1.00  0.00    -0.082 SA
BRANCH  12  13
HETATM   13  C   UNL     1      43.529 -10.646   6.470  1.00  0.00     0.185 C 
BRANCH  13  14
HETATM   14  C   UNL     1      42.218 -10.388   7.208  1.00  0.00     0.227 C 
HETATM   15  N   UNL     1      42.304 -10.109   8.551  1.00  0.00    -0.360 N 
HETATM   16  H   UNL     1      41.414  -9.881   8.986  1.00  0.00     0.162 HD
HETATM   17  O   UNL     1      41.116 -10.406   6.657  1.00  0.00    -0.273 OA
BRANCH  15  18
HETATM   18  C   UNL     1      43.533  -9.795   9.261  1.00  0.00     0.127 C 
BRANCH  18  19
HETATM   19  C   UNL     1      43.665 -10.497  10.614  1.00  0.00     0.058 C 
BRANCH  19  20
HETATM   20  C   UNL     1      43.037  -9.642  11.691  1.00  0.00    -0.057 A 
HETATM   21  C   UNL     1      43.643  -8.438  12.083  1.00  0.00     0.009 A 
HETATM   22  C   UNL     1      43.131  -7.706  13.156  1.00  0.00     0.025 A 
HETATM   23  C   UNL     1      42.004  -8.174  13.836  1.00  0.00     0.074 A 
HETATM   24  C   UNL     1      41.384  -9.364  13.450  1.00  0.00     0.025 A 
HETATM   25  C   UNL     1      41.898 -10.093  12.376  1.00  0.00     0.009 A 
BRANCH  23  26
HETATM   26  S   UNL     1      41.427  -7.308  15.269  1.00  0.00     0.239 S 
HETATM   27  O   UNL     1      40.569  -6.225  14.848  1.00  0.00    -0.206 OA
HETATM   28  O   UNL     1      41.022  -8.275  16.262  1.00  0.00    -0.206 OA
BRANCH  26  29
HETATM   29  N   UNL     1      42.833  -6.599  15.845  1.00  0.00    -0.225 NA
HETATM   30  H   UNL     1      43.448  -7.313  16.238  1.00  0.00     0.136 HD
HETATM   31  H   UNL     1      43.272  -6.045  15.108  1.00  0.00     0.136 HD
ENDBRANCH  26  29
ENDBRANCH  23  26
ENDBRANCH  19  20
ENDBRANCH  18  19
ENDBRANCH  15  18
ENDBRANCH  13  14
ENDBRANCH  12  13
ENDBRANCH   2  12
BRANCH   1  32
HETATM   32  C   UNL     1      42.202 -14.672   4.725  1.00  0.00     0.051 A 
HETATM   33  C   UNL     1      41.313 -14.840   5.804  1.00  0.00    -0.035 A 
HETATM   34  C   UNL     1      40.239 -13.853   6.162  1.00  0.00     0.050 C 
HETATM   35  C   UNL     1      41.414 -16.026   6.543  1.00  0.00     0.011 A 
HETATM   36  C   UNL     1      42.395 -16.976   6.240  1.00  0.00     0.024 A 
HETATM   37  C   UNL     1      43.279 -16.762   5.183  1.00  0.00     0.036 A 
HETATM   38  C   UNL     1      43.192 -15.607   4.412  1.00  0.00     0.054 A 
HETATM   39 CL   UNL     1      44.496 -17.922   4.838  1.00  0.00    -0.084 Cl
ENDBRANCH   1  32
BRANCH   6  40
HETATM   40  N   UNL     1      40.755 -14.571   2.328  1.00  0.00    -0.384 N 
HETATM   41  H   UNL     1      41.216 -15.184   1.664  1.00  0.00     0.157 HD
HETATM   42  H   UNL     1      39.998 -15.002   2.842  1.00  0.00     0.157 HD
ENDBRANCH   6  40
TORSDOF 10
ENDMDL
MODEL 7
REMARK VINA RESULT:      -7.1     18.641     20.293
REMARK  10 active torsions:
REMARK  status: ('A' for Active; 'I' for Inactive)
REMARK    1  A    between atoms: C_3  and  N_4 
REMARK    2  A    between atoms: C_5  and  S_6 
REMARK    3  A    between atoms: S_6  and  C_7 
REMARK    4  A    between atoms: C_7  and  C_8 
REMARK       I    between atoms: C_8  and  N_9 
REMARK    5  A    between atoms: N_9  and  C_10 
REMARK    6  A    between atoms: C_10  and  C_11 
REMARK    7  A    between atoms: C_11  and  C_12 
REMARK    8  A    between atoms: C_15  and  S_16 
REMARK    9  A    between atoms: S_16  and  N_17 
REMARK   10  A    between atoms: C_26  and  N_27 
ROOT
HETATM    1  N   UNL     1      41.414 -13.610   2.125  1.00  0.00    -0.275 N 
HETATM    2  C   UNL     1      42.074 -12.429   2.295  1.00  0.00     0.177 A 
HETATM    3  N   UNL     1      41.972 -11.359   1.475  1.00  0.00    -0.204 NA
HETATM    4  C   UNL     1      41.046 -11.540   0.534  1.00  0.00     0.162 A 
HETATM    5  C   UNL     1      40.290 -12.674   0.323  1.00  0.00     0.081 A 
HETATM    6  C   UNL     1      40.497 -13.802   1.134  1.00  0.00     0.124 A 
HETATM    7  N   UNL     1      40.659 -10.625  -0.402  1.00  0.00    -0.260 N 
HETATM    8  H   UNL     1      41.010  -9.682  -0.536  1.00  0.00     0.191 HD
HETATM    9  N   UNL     1      39.692 -11.077  -1.212  1.00  0.00    -0.177 NA
HETATM   10  C   UNL     1      39.450 -12.320  -0.777  1.00  0.00     0.068 A 
HETATM   11  C   UNL     1      38.397 -13.128  -1.446  1.00  0.00     0.073 C 
ENDROOT
BRANCH   2  12
HETATM   12  S   UNL     1      43.210 -12.188   3.675  1.00  0.00    -0.082 SA
BRANCH  12  13
HETATM   13  C   UNL     1      42.055 -11.576   4.943  1.00  0.00     0.185 C 
BRANCH  13  14
HETATM   14  C   UNL     1      42.100 -10.059   5.109  1.00  0.00     0.227 C 
HETATM   15  N   UNL     1      42.665  -9.575   6.265  1.00  0.00    -0.360 N 
HETATM   16  H   UNL     1      42.730  -8.562   6.303  1.00  0.00     0.162 HD
HETATM   17  O   UNL     1      41.672  -9.273   4.263  1.00  0.00    -0.273 OA
BRANCH  15  18
HETATM   18  C   UNL     1      43.438 -10.366   7.210  1.00  0.00     0.127 C 
BRANCH  18  19
HETATM   19  C   UNL     1      43.970  -9.565   8.399  1.00  0.00     0.058 C 
BRANCH  19  20
HETATM   20  C   UNL     1      43.007  -9.679   9.558  1.00  0.00    -0.057 A 
HETATM   21  C   UNL     1      41.673  -9.270   9.414  1.00  0.00     0.009 A 
HETATM   22  C   UNL     1      40.812  -9.264  10.513  1.00  0.00     0.025 A 
HETATM   23  C   UNL     1      41.284  -9.676  11.762  1.00  0.00     0.074 A 
HETATM   24  C   UNL     1      42.606 -10.096  11.919  1.00  0.00     0.025 A 
HETATM   25  C   UNL     1      43.463 -10.102  10.817  1.00  0.00     0.009 A 
BRANCH  23  26
HETATM   26  S   UNL     1      40.227  -9.555  13.178  1.00  0.00     0.239 S 
HETATM   27  O   UNL     1      41.037  -9.301  14.346  1.00  0.00    -0.206 OA
HETATM   28  O   UNL     1      39.086  -8.739  12.836  1.00  0.00    -0.206 OA
BRANCH  26  29
HETATM   29  N   UNL     1      39.657 -11.125  13.331  1.00  0.00    -0.225 NA
HETATM   30  H   UNL     1      39.528 -11.353  14.318  1.00  0.00     0.136 HD
HETATM   31  H   UNL     1      38.812 -11.245  12.772  1.00  0.00     0.136 HD
ENDBRANCH  26  29
ENDBRANCH  23  26
ENDBRANCH  19  20
ENDBRANCH  18  19
ENDBRANCH  15  18
ENDBRANCH  13  14
ENDBRANCH  12  13
ENDBRANCH   2  12
BRANCH   1  32
HETATM   32  C   UNL     1      41.671 -14.700   3.028  1.00  0.00     0.051 A 
HETATM   33  C   UNL     1      42.651 -15.659   2.712  1.00  0.00    -0.035 A 
HETATM   34  C   UNL     1      43.538 -15.578   1.502  1.00  0.00     0.050 C 
HETATM   35  C   UNL     1      42.835 -16.715   3.614  1.00  0.00     0.011 A 
HETATM   36  C   UNL     1      42.037 -16.825   4.757  1.00  0.00     0.024 A 
HETATM   37  C   UNL     1      41.054 -15.872   5.024  1.00  0.00     0.036 A 
HETATM   38  C   UNL     1      40.861 -14.797   4.163  1.00  0.00     0.054 A 
HETATM   39 CL   UNL     1      40.062 -16.033   6.416  1.00  0.00    -0.084 Cl
ENDBRANCH   1  32
BRANCH   6  40
HETATM   40  N   UNL     1      39.831 -15.005   0.937  1.00  0.00    -0.384 N 
HETATM   41  H   UNL     1      38.889 -15.109   1.298  1.00  0.00     0.157 HD
HETATM   42  H   UNL     1      40.065 -15.637   0.182  1.00  0.00     0.157 HD
ENDBRANCH   6  40
TORSDOF 10
ENDMDL
MODEL 8
REMARK VINA RESULT:      -7.1     17.959     19.842
REMARK  10 active torsions:
REMARK  status: ('A' for Active; 'I' for Inactive)
REMARK    1  A    between atoms: C_3  and  N_4 
REMARK    2  A    between atoms: C_5  and  S_6 
REMARK    3  A    between atoms: S_6  and  C_7 
REMARK    4  A    between atoms: C_7  and  C_8 
REMARK       I    between atoms: C_8  and  N_9 
REMARK    5  A    between atoms: N_9  and  C_10 
REMARK    6  A    between atoms: C_10  and  C_11 
REMARK    7  A    between atoms: C_11  and  C_12 
REMARK    8  A    between atoms: C_15  and  S_16 
REMARK    9  A    between atoms: S_16  and  N_17 
REMARK   10  A    between atoms: C_26  and  N_27 
ROOT
HETATM    1  N   UNL     1      40.980 -10.346   5.773  1.00  0.00    -0.275 N 
HETATM    2  C   UNL     1      40.519 -10.075   4.519  1.00  0.00     0.177 A 
HETATM    3  N   UNL     1      39.526  -9.205   4.229  1.00  0.00    -0.204 NA
HETATM    4  C   UNL     1      39.121  -8.536   5.309  1.00  0.00     0.162 A 
HETATM    5  C   UNL     1      39.569  -8.700   6.602  1.00  0.00     0.081 A 
HETATM    6  C   UNL     1      40.532  -9.686   6.878  1.00  0.00     0.124 A 
HETATM    7  N   UNL     1      38.183  -7.544   5.336  1.00  0.00    -0.260 N 
HETATM    8  H   UNL     1      37.649  -7.167   4.560  1.00  0.00     0.191 HD
HETATM    9  N   UNL     1      37.989  -7.037   6.562  1.00  0.00    -0.177 NA
HETATM   10  C   UNL     1      38.833  -7.724   7.341  1.00  0.00     0.068 A 
HETATM   11  C   UNL     1      38.901  -7.405   8.792  1.00  0.00     0.073 C 
ENDROOT
BRANCH   2  12
HETATM   12  S   UNL     1      41.207 -10.907   3.074  1.00  0.00    -0.082 SA
BRANCH  12  13
HETATM   13  C   UNL     1      39.955 -12.206   2.821  1.00  0.00     0.185 C 
BRANCH  13  14
HETATM   14  C   UNL     1      39.342 -12.181   1.424  1.00  0.00     0.227 C 
HETATM   15  N   UNL     1      39.942 -12.963   0.466  1.00  0.00    -0.360 N 
HETATM   16  H   UNL     1      39.463 -12.964  -0.430  1.00  0.00     0.162 HD
HETATM   17  O   UNL     1      38.349 -11.513   1.132  1.00  0.00    -0.273 OA
BRANCH  15  18
HETATM   18  C   UNL     1      40.939 -13.989   0.731  1.00  0.00     0.127 C 
BRANCH  18  19
HETATM   19  C   UNL     1      40.346 -15.354   1.080  1.00  0.00     0.058 C 
BRANCH  19  20
HETATM   20  C   UNL     1      41.104 -15.953   2.243  1.00  0.00    -0.057 A 
HETATM   21  C   UNL     1      40.534 -15.974   3.525  1.00  0.00     0.009 A 
HETATM   22  C   UNL     1      41.276 -16.418   4.621  1.00  0.00     0.025 A 
HETATM   23  C   UNL     1      42.592 -16.851   4.436  1.00  0.00     0.074 A 
HETATM   24  C   UNL     1      43.168 -16.846   3.164  1.00  0.00     0.025 A 
HETATM   25  C   UNL     1      42.423 -16.402   2.071  1.00  0.00     0.009 A 
BRANCH  23  26
HETATM   26  S   UNL     1      43.569 -17.301   5.842  1.00  0.00     0.239 S 
HETATM   27  O   UNL     1      44.886 -16.723   5.701  1.00  0.00    -0.206 OA
HETATM   28  O   UNL     1      42.773 -17.129   7.034  1.00  0.00    -0.206 OA
BRANCH  26  29
HETATM   29  N   UNL     1      43.755 -18.954   5.631  1.00  0.00    -0.225 NA
HETATM   30  H   UNL     1      44.710 -19.163   5.338  1.00  0.00     0.136 HD
HETATM   31  H   UNL     1      43.474 -19.447   6.480  1.00  0.00     0.136 HD
ENDBRANCH  26  29
ENDBRANCH  23  26
ENDBRANCH  19  20
ENDBRANCH  18  19
ENDBRANCH  15  18
ENDBRANCH  13  14
ENDBRANCH  12  13
ENDBRANCH   2  12
BRANCH   1  32
HETATM   32  C   UNL     1      41.992 -11.353   5.951  1.00  0.00     0.051 A 
HETATM   33  C   UNL     1      41.619 -12.694   6.163  1.00  0.00    -0.035 A 
HETATM   34  C   UNL     1      40.198 -13.181   6.130  1.00  0.00     0.050 C 
HETATM   35  C   UNL     1      42.647 -13.625   6.362  1.00  0.00     0.011 A 
HETATM   36  C   UNL     1      43.985 -13.216   6.394  1.00  0.00     0.024 A 
HETATM   37  C   UNL     1      44.315 -11.874   6.210  1.00  0.00     0.036 A 
HETATM   38  C   UNL     1      43.322 -10.927   5.985  1.00  0.00     0.054 A 
HETATM   39 CL   UNL     1      45.958 -11.381   6.278  1.00  0.00    -0.084 Cl
ENDBRANCH   1  32
BRANCH   6  40
HETATM   40  N   UNL     1      40.978  -9.964   8.164  1.00  0.00    -0.384 N 
HETATM   41  H   UNL     1      41.921  -9.697   8.425  1.00  0.00     0.157 HD
HETATM   42  H   UNL     1      40.344 -10.087   8.943  1.00  0.00     0.157 HD
ENDBRANCH   6  40
TORSDOF 10
ENDMDL
MODEL 9
REMARK VINA RESULT:      -7.1     15.876     18.756
REMARK  10 active torsions:
REMARK  status: ('A' for Active; 'I' for Inactive)
REMARK    1  A    between atoms: C_3  and  N_4 
REMARK    2  A    between atoms: C_5  and  S_6 
REMARK    3  A    between atoms: S_6  and  C_7 
REMARK    4  A    between atoms: C_7  and  C_8 
REMARK       I    between atoms: C_8  and  N_9 
REMARK    5  A    between atoms: N_9  and  C_10 
REMARK    6  A    between atoms: C_10  and  C_11 
REMARK    7  A    between atoms: C_11  and  C_12 
REMARK    8  A    between atoms: C_15  and  S_16 
REMARK    9  A    between atoms: S_16  and  N_17 
REMARK   10  A    between atoms: C_26  and  N_27 
ROOT
HETATM    1  N   UNL     1      43.043 -16.698   4.273  1.00  0.00    -0.275 N 
HETATM    2  C   UNL     1      43.005 -16.594   2.914  1.00  0.00     0.177 A 
HETATM    3  N   UNL     1      43.349 -17.578   2.052  1.00  0.00    -0.204 NA
HETATM    4  C   UNL     1      43.614 -18.721   2.683  1.00  0.00     0.162 A 
HETATM    5  C   UNL     1      43.619 -18.934   4.045  1.00  0.00     0.081 A 
HETATM    6  C   UNL     1      43.355 -17.860   4.912  1.00  0.00     0.124 A 
HETATM    7  N   UNL     1      43.925 -19.913   2.094  1.00  0.00    -0.260 N 
HETATM    8  H   UNL     1      44.009 -20.117   1.103  1.00  0.00     0.191 HD
HETATM    9  N   UNL     1      44.126 -20.901   2.977  1.00  0.00    -0.177 NA
HETATM   10  C   UNL     1      43.933 -20.322   4.169  1.00  0.00     0.068 A 
HETATM   11  C   UNL     1      44.058 -21.145   5.401  1.00  0.00     0.073 C 
ENDROOT
BRANCH   2  12
HETATM   12  S   UNL     1      42.497 -15.062   2.109  1.00  0.00    -0.082 SA
BRANCH  12  13
HETATM   13  C   UNL     1      40.821 -15.523   1.563  1.00  0.00     0.185 C 
BRANCH  13  14
HETATM   14  C   UNL     1      39.865 -14.335   1.507  1.00  0.00     0.227 C 
HETATM   15  N   UNL     1      39.473 -13.909   0.260  1.00  0.00    -0.360 N 
HETATM   16  H   UNL     1      38.788 -13.158   0.274  1.00  0.00     0.162 HD
HETATM   17  O   UNL     1      39.431 -13.767   2.510  1.00  0.00    -0.273 OA
BRANCH  15  18
HETATM   18  C   UNL     1      39.690 -14.641  -0.978  1.00  0.00     0.127 C 
BRANCH  18  19
HETATM   19  C   UNL     1      38.761 -14.221  -2.118  1.00  0.00     0.058 C 
BRANCH  19  20
HETATM   20  C   UNL     1      39.147 -12.843  -2.604  1.00  0.00    -0.057 A 
HETATM   21  C   UNL     1      40.481 -12.554  -2.928  1.00  0.00     0.009 A 
HETATM   22  C   UNL     1      40.860 -11.253  -3.265  1.00  0.00     0.025 A 
HETATM   23  C   UNL     1      39.902 -10.237  -3.285  1.00  0.00     0.074 A 
HETATM   24  C   UNL     1      38.568 -10.512  -2.975  1.00  0.00     0.025 A 
HETATM   25  C   UNL     1      38.193 -11.814  -2.640  1.00  0.00     0.009 A 
BRANCH  23  26
HETATM   26  S   UNL     1      40.405  -8.568  -3.595  1.00  0.00     0.239 S 
HETATM   27  O   UNL     1      40.880  -8.467  -4.955  1.00  0.00    -0.206 OA
HETATM   28  O   UNL     1      39.405  -7.675  -3.057  1.00  0.00    -0.206 OA
BRANCH  26  29
HETATM   29  N   UNL     1      41.754  -8.415  -2.611  1.00  0.00    -0.225 NA
HETATM   30  H   UNL     1      42.000  -7.429  -2.508  1.00  0.00     0.136 HD
HETATM   31  H   UNL     1      41.592  -8.888  -1.721  1.00  0.00     0.136 HD
ENDBRANCH  26  29
ENDBRANCH  23  26
ENDBRANCH  19  20
ENDBRANCH  18  19
ENDBRANCH  15  18
ENDBRANCH  13  14
ENDBRANCH  12  13
ENDBRANCH   2  12
BRANCH   1  32
HETATM   32  C   UNL     1      42.726 -15.548   5.077  1.00  0.00     0.051 A 
HETATM   33  C   UNL     1      41.394 -15.306   5.465  1.00  0.00    -0.035 A 
HETATM   34  C   UNL     1      40.255 -16.238   5.164  1.00  0.00     0.050 C 
HETATM   35  C   UNL     1      41.142 -14.154   6.221  1.00  0.00     0.011 A 
HETATM   36  C   UNL     1      42.174 -13.262   6.531  1.00  0.00     0.024 A 
HETATM   37  C   UNL     1      43.477 -13.518   6.104  1.00  0.00     0.036 A 
HETATM   38  C   UNL     1      43.768 -14.665   5.373  1.00  0.00     0.054 A 
HETATM   39 CL   UNL     1      44.730 -12.403   6.467  1.00  0.00    -0.084 Cl
ENDBRANCH   1  32
BRANCH   6  40
HETATM   40  N   UNL     1      43.416 -17.975   6.295  1.00  0.00    -0.384 N 
HETATM   41  H   UNL     1      42.769 -17.438   6.861  1.00  0.00     0.157 HD
HETATM   42  H   UNL     1      43.801 -18.790   6.755  1.00  0.00     0.157 HD
ENDBRANCH   6  40
TORSDOF 10
ENDMDL
MODEL 10
REMARK VINA RESULT:      -7.0     18.958     20.614
REMARK  10 active torsions:
REMARK  status: ('A' for Active; 'I' for Inactive)
REMARK    1  A    between atoms: C_3  and  N_4 
REMARK    2  A    between atoms: C_5  and  S_6 
REMARK    3  A    between atoms: S_6  and  C_7 
REMARK    4  A    between atoms: C_7  and  C_8 
REMARK       I    between atoms: C_8  and  N_9 
REMARK    5  A    between atoms: N_9  and  C_10 
REMARK    6  A    between atoms: C_10  and  C_11 
REMARK    7  A    between atoms: C_11  and  C_12 
REMARK    8  A    between atoms: C_15  and  S_16 
REMARK    9  A    between atoms: S_16  and  N_17 
REMARK   10  A    between atoms: C_26  and  N_27 
ROOT
HETATM    1  N   UNL     1      41.562 -13.402   2.280  1.00  0.00    -0.275 N 
HETATM    2  C   UNL     1      42.302 -12.268   2.435  1.00  0.00     0.177 A 
HETATM    3  N   UNL     1      42.218 -11.173   1.646  1.00  0.00    -0.204 NA
HETATM    4  C   UNL     1      41.228 -11.275   0.759  1.00  0.00     0.162 A 
HETATM    5  C   UNL     1      40.393 -12.356   0.569  1.00  0.00     0.081 A 
HETATM    6  C   UNL     1      40.579 -13.514   1.343  1.00  0.00     0.124 A 
HETATM    7  N   UNL     1      40.844 -10.315  -0.132  1.00  0.00    -0.260 N 
HETATM    8  H   UNL     1      41.243  -9.391  -0.266  1.00  0.00     0.191 HD
HETATM    9  N   UNL     1      39.805 -10.687  -0.892  1.00  0.00    -0.177 NA
HETATM   10  C   UNL     1      39.513 -11.924  -0.469  1.00  0.00     0.068 A 
HETATM   11  C   UNL     1      38.375 -12.651  -1.092  1.00  0.00     0.073 C 
ENDROOT
BRANCH   2  12
HETATM   12  S   UNL     1      43.530 -12.130   3.749  1.00  0.00    -0.082 SA
BRANCH  12  13
HETATM   13  C   UNL     1      42.765 -10.833   4.774  1.00  0.00     0.185 C 
BRANCH  13  14
HETATM   14  C   UNL     1      42.320 -11.340   6.143  1.00  0.00     0.227 C 
HETATM   15  N   UNL     1      43.274 -11.385   7.131  1.00  0.00    -0.360 N 
HETATM   16  H   UNL     1      42.919 -11.668   8.040  1.00  0.00     0.162 HD
HETATM   17  O   UNL     1      41.165 -11.689   6.393  1.00  0.00    -0.273 OA
BRANCH  15  18
HETATM   18  C   UNL     1      44.587 -10.763   7.052  1.00  0.00     0.127 C 
BRANCH  18  19
HETATM   19  C   UNL     1      45.317 -10.682   8.393  1.00  0.00     0.058 C 
BRANCH  19  20
HETATM   20  C   UNL     1      44.642  -9.658   9.276  1.00  0.00    -0.057 A 
HETATM   21  C   UNL     1      44.330  -9.967  10.609  1.00  0.00     0.009 A 
HETATM   22  C   UNL     1      43.603  -9.067  11.391  1.00  0.00     0.025 A 
HETATM   23  C   UNL     1      43.191  -7.851  10.842  1.00  0.00     0.074 A 
HETATM   24  C   UNL     1      43.503  -7.525   9.521  1.00  0.00     0.025 A 
HETATM   25  C   UNL     1      44.231  -8.426   8.742  1.00  0.00     0.009 A 
BRANCH  23  26
HETATM   26  S   UNL     1      42.168  -6.764  11.796  1.00  0.00     0.239 S 
HETATM   27  O   UNL     1      40.782  -7.086  11.546  1.00  0.00    -0.206 OA
HETATM   28  O   UNL     1      42.711  -6.671  13.131  1.00  0.00    -0.206 OA
BRANCH  26  29
HETATM   29  N   UNL     1      42.447  -5.281  11.067  1.00  0.00    -0.225 NA
HETATM   30  H   UNL     1      42.158  -5.315  10.088  1.00  0.00     0.136 HD
HETATM   31  H   UNL     1      41.991  -4.539  11.599  1.00  0.00     0.136 HD
ENDBRANCH  26  29
ENDBRANCH  23  26
ENDBRANCH  19  20
ENDBRANCH  18  19
ENDBRANCH  15  18
ENDBRANCH  13  14
ENDBRANCH  12  13
ENDBRANCH   2  12
BRANCH   1  32
HETATM   32  C   UNL     1      41.805 -14.528   3.142  1.00  0.00     0.051 A 
HETATM   33  C   UNL     1      42.730 -15.518   2.762  1.00  0.00    -0.035 A 
HETATM   34  C   UNL     1      43.574 -15.440   1.521  1.00  0.00     0.050 C 
HETATM   35  C   UNL     1      42.901 -16.607   3.627  1.00  0.00     0.011 A 
HETATM   36  C   UNL     1      42.141 -16.716   4.797  1.00  0.00     0.024 A 
HETATM   37  C   UNL     1      41.211 -15.731   5.127  1.00  0.00     0.036 A 
HETATM   38  C   UNL     1      41.034 -14.624   4.304  1.00  0.00     0.054 A 
HETATM   39 CL   UNL     1      40.266 -15.890   6.551  1.00  0.00    -0.084 Cl
ENDBRANCH   1  32
BRANCH   6  40
HETATM   40  N   UNL     1      39.830 -14.669   1.160  1.00  0.00    -0.384 N 
HETATM   41  H   UNL     1      39.840 -15.123   0.252  1.00  0.00     0.157 HD
HETATM   42  H   UNL     1      39.566 -15.273   1.928  1.00  0.00     0.157 HD
ENDBRANCH   6  40
TORSDOF 10
ENDMDL
