MODEL 1
REMARK VINA RESULT:      -7.4      0.000      0.000
REMARK  5 active torsions:
REMARK  status: ('A' for Active; 'I' for Inactive)
REMARK    1  A    between atoms: C_3  and  N_4 
REMARK       I    between atoms: N_4  and  C_5 
REMARK       I    between atoms: C_5  and  N_6 
REMARK    2  A    between atoms: N_6  and  C_7 
REMARK    3  A    between atoms: C_7  and  C_8 
REMARK    4  A    between atoms: C_8  and  O_9 
REMARK    5  A    between atoms: O_9  and  C_10 
ROOT
HETATM    1  N   UNL     1      44.277 -17.253   5.038  1.00  0.00    -0.307 N 
HETATM    2  C   UNL     1      43.326 -16.511   5.701  1.00  0.00     0.320 C 
HETATM    3  N   UNL     1      43.914 -15.453   6.363  1.00  0.00    -0.340 N 
HETATM    4  O   UNL     1      42.116 -16.688   5.686  1.00  0.00    -0.247 OA
HETATM    5  H   UNL     1      45.067 -16.691   4.752  1.00  0.00     0.170 HD
HETATM    6  H   UNL     1      44.876 -15.567   6.652  1.00  0.00     0.164 HD
ENDROOT
BRANCH   3   7
HETATM    7  C   UNL     1      43.120 -14.501   7.126  1.00  0.00     0.156 C 
BRANCH   7   8
HETATM    8  C   UNL     1      43.088 -13.090   6.510  1.00  0.00     0.142 C 
HETATM    9  C   UNL     1      44.292 -12.246   6.925  1.00  0.00     0.042 C 
BRANCH   8  10
HETATM   10  O   UNL     1      43.112 -13.177   5.076  1.00  0.00    -0.345 OA
BRANCH  10  11
HETATM   11  C   UNL     1      41.930 -13.254   4.392  1.00  0.00     0.070 A 
HETATM   12  C   UNL     1      41.628 -14.134   3.352  1.00  0.00     0.060 A 
HETATM   13  C   UNL     1      40.373 -14.082   2.741  1.00  0.00     0.036 A 
HETATM   14 CL   UNL     1      40.009 -15.168   1.454  1.00  0.00    -0.084 Cl
HETATM   15  C   UNL     1      39.414 -13.160   3.153  1.00  0.00     0.024 A 
HETATM   16  C   UNL     1      39.712 -12.278   4.188  1.00  0.00     0.004 A 
HETATM   17  C   UNL     1      40.966 -12.327   4.801  1.00  0.00     0.037 A 
ENDBRANCH  10  11
ENDBRANCH   8  10
ENDBRANCH   7   8
ENDBRANCH   3   7
BRANCH   1  18
HETATM   18  C   UNL     1      44.040 -18.417   4.268  1.00  0.00     0.059 A 
HETATM   19  C   UNL     1      43.605 -18.455   2.934  1.00  0.00    -0.032 A 
HETATM   20  C   UNL     1      43.231 -17.249   2.121  1.00  0.00     0.050 C 
HETATM   21  C   UNL     1      43.480 -19.710   2.312  1.00  0.00     0.028 A 
HETATM   22  C   UNL     1      43.722 -20.864   3.040  1.00  0.00     0.117 A 
HETATM   23  N   UNL     1      44.070 -20.864   4.338  1.00  0.00    -0.271 NA
HETATM   24  C   UNL     1      44.218 -19.647   4.913  1.00  0.00     0.146 A 
ENDBRANCH   1  18
TORSDOF 5
ENDMDL
MODEL 2
REMARK VINA RESULT:      -7.3      2.378      3.828
REMARK  5 active torsions:
REMARK  status: ('A' for Active; 'I' for Inactive)
REMARK    1  A    between atoms: C_3  and  N_4 
REMARK       I    between atoms: N_4  and  C_5 
REMARK       I    between atoms: C_5  and  N_6 
REMARK    2  A    between atoms: N_6  and  C_7 
REMARK    3  A    between atoms: C_7  and  C_8 
REMARK    4  A    between atoms: C_8  and  O_9 
REMARK    5  A    between atoms: O_9  and  C_10 
ROOT
HETATM    1  N   UNL     1      43.529 -17.331   2.204  1.00  0.00    -0.307 N 
HETATM    2  C   UNL     1      42.448 -16.482   2.278  1.00  0.00     0.320 C 
HETATM    3  N   UNL     1      42.607 -15.420   1.413  1.00  0.00    -0.340 N 
HETATM    4  O   UNL     1      41.441 -16.636   2.955  1.00  0.00    -0.247 OA
HETATM    5  H   UNL     1      43.956 -17.322   1.288  1.00  0.00     0.170 HD
HETATM    6  H   UNL     1      43.553 -15.146   1.188  1.00  0.00     0.164 HD
ENDROOT
BRANCH   3   7
HETATM    7  C   UNL     1      41.590 -14.387   1.287  1.00  0.00     0.156 C 
BRANCH   7   8
HETATM    8  C   UNL     1      41.876 -13.132   2.134  1.00  0.00     0.142 C 
HETATM    9  C   UNL     1      41.294 -11.864   1.511  1.00  0.00     0.042 C 
BRANCH   8  10
HETATM   10  O   UNL     1      41.283 -13.270   3.436  1.00  0.00    -0.345 OA
BRANCH  10  11
HETATM   11  C   UNL     1      42.092 -13.341   4.535  1.00  0.00     0.070 A 
HETATM   12  C   UNL     1      42.050 -14.310   5.537  1.00  0.00     0.060 A 
HETATM   13  C   UNL     1      42.941 -14.239   6.611  1.00  0.00     0.036 A 
HETATM   14 CL   UNL     1      42.879 -15.437   7.847  1.00  0.00    -0.084 Cl
HETATM   15  C   UNL     1      43.875 -13.210   6.698  1.00  0.00     0.024 A 
HETATM   16  C   UNL     1      43.919 -12.238   5.702  1.00  0.00     0.004 A 
HETATM   17  C   UNL     1      43.029 -12.306   4.628  1.00  0.00     0.037 A 
ENDBRANCH  10  11
ENDBRANCH   8  10
ENDBRANCH   7   8
ENDBRANCH   3   7
BRANCH   1  18
HETATM   18  C   UNL     1      43.715 -18.515   2.958  1.00  0.00     0.059 A 
HETATM   19  C   UNL     1      44.067 -18.586   4.315  1.00  0.00    -0.032 A 
HETATM   20  C   UNL     1      44.396 -17.401   5.178  1.00  0.00     0.050 C 
HETATM   21  C   UNL     1      44.150 -19.855   4.913  1.00  0.00     0.028 A 
HETATM   22  C   UNL     1      43.948 -20.991   4.145  1.00  0.00     0.117 A 
HETATM   23  N   UNL     1      43.680 -20.959   2.828  1.00  0.00    -0.271 NA
HETATM   24  C   UNL     1      43.572 -19.728   2.275  1.00  0.00     0.146 A 
ENDBRANCH   1  18
TORSDOF 5
ENDMDL
MODEL 3
REMARK VINA RESULT:      -6.9      4.500      7.387
REMARK  5 active torsions:
REMARK  status: ('A' for Active; 'I' for Inactive)
REMARK    1  A    between atoms: C_3  and  N_4 
REMARK       I    between atoms: N_4  and  C_5 
REMARK       I    between atoms: C_5  and  N_6 
REMARK    2  A    between atoms: N_6  and  C_7 
REMARK    3  A    between atoms: C_7  and  C_8 
REMARK    4  A    between atoms: C_8  and  O_9 
REMARK    5  A    between atoms: O_9  and  C_10 
ROOT
HETATM    1  N   UNL     1      40.810 -13.705  -0.453  1.00  0.00    -0.307 N 
HETATM    2  C   UNL     1      41.228 -13.273   0.785  1.00  0.00     0.320 C 
HETATM    3  N   UNL     1      42.316 -14.006   1.211  1.00  0.00    -0.340 N 
HETATM    4  O   UNL     1      40.771 -12.338   1.427  1.00  0.00    -0.247 OA
HETATM    5  H   UNL     1      41.571 -14.081  -1.001  1.00  0.00     0.170 HD
HETATM    6  H   UNL     1      42.402 -14.950   0.859  1.00  0.00     0.164 HD
ENDROOT
BRANCH   3   7
HETATM    7  C   UNL     1      42.962 -13.732   2.486  1.00  0.00     0.156 C 
BRANCH   7   8
HETATM    8  C   UNL     1      42.488 -14.650   3.628  1.00  0.00     0.142 C 
HETATM    9  C   UNL     1      41.351 -14.030   4.439  1.00  0.00     0.042 C 
BRANCH   8  10
HETATM   10  O   UNL     1      41.994 -15.889   3.093  1.00  0.00    -0.345 OA
BRANCH  10  11
HETATM   11  C   UNL     1      42.723 -17.032   3.273  1.00  0.00     0.070 A 
HETATM   12  C   UNL     1      42.838 -18.094   2.375  1.00  0.00     0.060 A 
HETATM   13  C   UNL     1      43.614 -19.206   2.711  1.00  0.00     0.036 A 
HETATM   14 CL   UNL     1      43.747 -20.516   1.599  1.00  0.00    -0.084 Cl
HETATM   15  C   UNL     1      44.278 -19.273   3.933  1.00  0.00     0.024 A 
HETATM   16  C   UNL     1      44.163 -18.217   4.833  1.00  0.00     0.004 A 
HETATM   17  C   UNL     1      43.387 -17.104   4.502  1.00  0.00     0.037 A 
ENDBRANCH  10  11
ENDBRANCH   8  10
ENDBRANCH   7   8
ENDBRANCH   3   7
BRANCH   1  18
HETATM   18  C   UNL     1      39.714 -13.194  -1.190  1.00  0.00     0.059 A 
HETATM   19  C   UNL     1      38.805 -13.944  -1.952  1.00  0.00    -0.032 A 
HETATM   20  C   UNL     1      38.900 -15.425  -2.185  1.00  0.00     0.050 C 
HETATM   21  C   UNL     1      37.740 -13.266  -2.570  1.00  0.00     0.028 A 
HETATM   22  C   UNL     1      37.651 -11.887  -2.468  1.00  0.00     0.117 A 
HETATM   23  N   UNL     1      38.546 -11.133  -1.806  1.00  0.00    -0.271 NA
HETATM   24  C   UNL     1      39.547 -11.804  -1.189  1.00  0.00     0.146 A 
ENDBRANCH   1  18
TORSDOF 5
ENDMDL
MODEL 4
REMARK VINA RESULT:      -6.8      1.567      2.215
REMARK  5 active torsions:
REMARK  status: ('A' for Active; 'I' for Inactive)
REMARK    1  A    between atoms: C_3  and  N_4 
REMARK       I    between atoms: N_4  and  C_5 
REMARK       I    between atoms: C_5  and  N_6 
REMARK    2  A    between atoms: N_6  and  C_7 
REMARK    3  A    between atoms: C_7  and  C_8 
REMARK    4  A    between atoms: C_8  and  O_9 
REMARK    5  A    between atoms: O_9  and  C_10 
ROOT
HETATM    1  N   UNL     1      43.703 -16.903   4.842  1.00  0.00    -0.307 N 
HETATM    2  C   UNL     1      42.584 -16.225   5.271  1.00  0.00     0.320 C 
HETATM    3  N   UNL     1      42.902 -14.922   5.594  1.00  0.00    -0.340 N 
HETATM    4  O   UNL     1      41.440 -16.655   5.319  1.00  0.00    -0.247 OA
HETATM    5  H   UNL     1      44.372 -16.289   4.400  1.00  0.00     0.170 HD
HETATM    6  H   UNL     1      43.850 -14.740   5.894  1.00  0.00     0.164 HD
ENDROOT
BRANCH   3   7
HETATM    7  C   UNL     1      41.888 -13.987   6.057  1.00  0.00     0.156 C 
BRANCH   7   8
HETATM    8  C   UNL     1      41.127 -13.286   4.915  1.00  0.00     0.142 C 
HETATM    9  C   UNL     1      40.769 -11.841   5.255  1.00  0.00     0.042 C 
BRANCH   8  10
HETATM   10  O   UNL     1      41.940 -13.249   3.730  1.00  0.00    -0.345 OA
BRANCH  10  11
HETATM   11  C   UNL     1      41.384 -13.588   2.528  1.00  0.00     0.070 A 
HETATM   12  C   UNL     1      41.399 -12.823   1.361  1.00  0.00     0.060 A 
HETATM   13  C   UNL     1      40.772 -13.302   0.208  1.00  0.00     0.036 A 
HETATM   14 CL   UNL     1      40.789 -12.349  -1.227  1.00  0.00    -0.084 Cl
HETATM   15  C   UNL     1      40.128 -14.537   0.205  1.00  0.00     0.024 A 
HETATM   16  C   UNL     1      40.109 -15.302   1.367  1.00  0.00     0.004 A 
HETATM   17  C   UNL     1      40.734 -14.826   2.522  1.00  0.00     0.037 A 
ENDBRANCH  10  11
ENDBRANCH   8  10
ENDBRANCH   7   8
ENDBRANCH   3   7
BRANCH   1  18
HETATM   18  C   UNL     1      43.754 -18.261   4.444  1.00  0.00     0.059 A 
HETATM   19  C   UNL     1      43.539 -18.753   3.148  1.00  0.00    -0.032 A 
HETATM   20  C   UNL     1      43.125 -17.916   1.971  1.00  0.00     0.050 C 
HETATM   21  C   UNL     1      43.690 -20.134   2.929  1.00  0.00     0.028 A 
HETATM   22  C   UNL     1      43.981 -20.970   3.995  1.00  0.00     0.117 A 
HETATM   23  N   UNL     1      44.122 -20.539   5.260  1.00  0.00    -0.271 NA
HETATM   24  C   UNL     1      44.006 -19.203   5.448  1.00  0.00     0.146 A 
ENDBRANCH   1  18
TORSDOF 5
ENDMDL
MODEL 5
REMARK VINA RESULT:      -6.8      5.188      7.242
REMARK  5 active torsions:
REMARK  status: ('A' for Active; 'I' for Inactive)
REMARK    1  A    between atoms: C_3  and  N_4 
REMARK       I    between atoms: N_4  and  C_5 
REMARK       I    between atoms: C_5  and  N_6 
REMARK    2  A    between atoms: N_6  and  C_7 
REMARK    3  A    between atoms: C_7  and  C_8 
REMARK    4  A    between atoms: C_8  and  O_9 
REMARK    5  A    between atoms: O_9  and  C_10 
ROOT
HETATM    1  N   UNL     1      42.574 -13.013   6.520  1.00  0.00    -0.307 N 
HETATM    2  C   UNL     1      43.539 -12.118   6.924  1.00  0.00     0.320 C 
HETATM    3  N   UNL     1      42.960 -11.025   7.534  1.00  0.00    -0.340 N 
HETATM    4  O   UNL     1      44.751 -12.255   6.831  1.00  0.00    -0.247 OA
HETATM    5  H   UNL     1      41.756 -12.980   7.111  1.00  0.00     0.170 HD
HETATM    6  H   UNL     1      42.019 -10.785   7.254  1.00  0.00     0.164 HD
ENDROOT
BRANCH   3   7
HETATM    7  C   UNL     1      43.768  -9.940   8.070  1.00  0.00     0.156 C 
BRANCH   7   8
HETATM    8  C   UNL     1      43.971 -10.016   9.595  1.00  0.00     0.142 C 
HETATM    9  C   UNL     1      45.447 -10.076   9.984  1.00  0.00     0.042 C 
BRANCH   8  10
HETATM   10  O   UNL     1      43.418  -8.848  10.225  1.00  0.00    -0.345 OA
BRANCH  10  11
HETATM   11  C   UNL     1      42.753  -8.981  11.412  1.00  0.00     0.070 A 
HETATM   12  C   UNL     1      41.626  -9.769  11.648  1.00  0.00     0.060 A 
HETATM   13  C   UNL     1      41.048  -9.790  12.920  1.00  0.00     0.036 A 
HETATM   14 CL   UNL     1      39.653 -10.762  13.203  1.00  0.00    -0.084 Cl
HETATM   15  C   UNL     1      41.580  -9.033  13.961  1.00  0.00     0.024 A 
HETATM   16  C   UNL     1      42.703  -8.244  13.729  1.00  0.00     0.004 A 
HETATM   17  C   UNL     1      43.282  -8.219  12.458  1.00  0.00     0.037 A 
ENDBRANCH  10  11
ENDBRANCH   8  10
ENDBRANCH   7   8
ENDBRANCH   3   7
BRANCH   1  18
HETATM   18  C   UNL     1      42.801 -14.238   5.847  1.00  0.00     0.059 A 
HETATM   19  C   UNL     1      42.984 -15.492   6.449  1.00  0.00    -0.032 A 
HETATM   20  C   UNL     1      43.058 -15.729   7.930  1.00  0.00     0.050 C 
HETATM   21  C   UNL     1      43.139 -16.612   5.614  1.00  0.00     0.028 A 
HETATM   22  C   UNL     1      43.172 -16.444   4.238  1.00  0.00     0.117 A 
HETATM   23  N   UNL     1      43.071 -15.248   3.634  1.00  0.00    -0.271 NA
HETATM   24  C   UNL     1      42.890 -14.184   4.451  1.00  0.00     0.146 A 
ENDBRANCH   1  18
TORSDOF 5
ENDMDL
MODEL 6
REMARK VINA RESULT:      -6.8      3.131      4.282
REMARK  5 active torsions:
REMARK  status: ('A' for Active; 'I' for Inactive)
REMARK    1  A    between atoms: C_3  and  N_4 
REMARK       I    between atoms: N_4  and  C_5 
REMARK       I    between atoms: C_5  and  N_6 
REMARK    2  A    between atoms: N_6  and  C_7 
REMARK    3  A    between atoms: C_7  and  C_8 
REMARK    4  A    between atoms: C_8  and  O_9 
REMARK    5  A    between atoms: O_9  and  C_10 
ROOT
HETATM    1  N   UNL     1      42.907 -16.500   2.989  1.00  0.00    -0.307 N 
HETATM    2  C   UNL     1      41.757 -15.887   3.433  1.00  0.00     0.320 C 
HETATM    3  N   UNL     1      41.718 -14.573   3.017  1.00  0.00    -0.340 N 
HETATM    4  O   UNL     1      40.844 -16.408   4.058  1.00  0.00    -0.247 OA
HETATM    5  H   UNL     1      43.237 -16.104   2.121  1.00  0.00     0.170 HD
HETATM    6  H   UNL     1      42.603 -14.113   2.858  1.00  0.00     0.164 HD
ENDROOT
BRANCH   3   7
HETATM    7  C   UNL     1      40.592 -13.709   3.339  1.00  0.00     0.156 C 
BRANCH   7   8
HETATM    8  C   UNL     1      39.796 -13.245   2.104  1.00  0.00     0.142 C 
HETATM    9  C   UNL     1      38.778 -12.158   2.443  1.00  0.00     0.042 C 
BRANCH   8  10
HETATM   10  O   UNL     1      40.689 -12.692   1.122  1.00  0.00    -0.345 OA
BRANCH  10  11
HETATM   11  C   UNL     1      40.464 -12.946  -0.202  1.00  0.00     0.070 A 
HETATM   12  C   UNL     1      39.719 -14.000  -0.731  1.00  0.00     0.060 A 
HETATM   13  C   UNL     1      39.590 -14.134  -2.116  1.00  0.00     0.036 A 
HETATM   14 CL   UNL     1      38.673 -15.442  -2.761  1.00  0.00    -0.084 Cl
HETATM   15  C   UNL     1      40.198 -13.229  -2.982  1.00  0.00     0.024 A 
HETATM   16  C   UNL     1      40.945 -12.177  -2.458  1.00  0.00     0.004 A 
HETATM   17  C   UNL     1      41.077 -12.041  -1.074  1.00  0.00     0.037 A 
ENDBRANCH  10  11
ENDBRANCH   8  10
ENDBRANCH   7   8
ENDBRANCH   3   7
BRANCH   1  18
HETATM   18  C   UNL     1      43.289 -17.840   3.239  1.00  0.00     0.059 A 
HETATM   19  C   UNL     1      43.906 -18.323   4.403  1.00  0.00    -0.032 A 
HETATM   20  C   UNL     1      44.348 -17.468   5.556  1.00  0.00     0.050 C 
HETATM   21  C   UNL     1      44.159 -19.703   4.497  1.00  0.00     0.028 A 
HETATM   22  C   UNL     1      43.858 -20.531   3.426  1.00  0.00     0.117 A 
HETATM   23  N   UNL     1      43.334 -20.088   2.271  1.00  0.00    -0.271 NA
HETATM   24  C   UNL     1      43.066 -18.762   2.210  1.00  0.00     0.146 A 
ENDBRANCH   1  18
TORSDOF 5
ENDMDL
MODEL 7
REMARK VINA RESULT:      -6.7      4.517      7.342
REMARK  5 active torsions:
REMARK  status: ('A' for Active; 'I' for Inactive)
REMARK    1  A    between atoms: C_3  and  N_4 
REMARK       I    between atoms: N_4  and  C_5 
REMARK       I    between atoms: C_5  and  N_6 
REMARK    2  A    between atoms: N_6  and  C_7 
REMARK    3  A    between atoms: C_7  and  C_8 
REMARK    4  A    between atoms: C_8  and  O_9 
REMARK    5  A    between atoms: O_9  and  C_10 
ROOT
HETATM    1  N   UNL     1      39.386 -13.750   0.608  1.00  0.00    -0.307 N 
HETATM    2  C   UNL     1      40.203 -14.686   1.201  1.00  0.00     0.320 C 
HETATM    3  N   UNL     1      39.647 -15.134   2.381  1.00  0.00    -0.340 N 
HETATM    4  O   UNL     1      41.251 -15.132   0.755  1.00  0.00    -0.247 OA
HETATM    5  H   UNL     1      38.412 -13.902   0.829  1.00  0.00     0.170 HD
HETATM    6  H   UNL     1      39.030 -14.501   2.870  1.00  0.00     0.164 HD
ENDROOT
BRANCH   3   7
HETATM    7  C   UNL     1      40.307 -16.146   3.193  1.00  0.00     0.156 C 
BRANCH   7   8
HETATM    8  C   UNL     1      41.217 -15.561   4.290  1.00  0.00     0.142 C 
HETATM    9  C   UNL     1      40.944 -16.174   5.662  1.00  0.00     0.042 C 
BRANCH   8  10
HETATM   10  O   UNL     1      42.595 -15.825   3.979  1.00  0.00    -0.345 OA
BRANCH  10  11
HETATM   11  C   UNL     1      42.995 -17.114   3.758  1.00  0.00     0.070 A 
HETATM   12  C   UNL     1      43.429 -18.026   4.721  1.00  0.00     0.060 A 
HETATM   13  C   UNL     1      43.819 -19.311   4.334  1.00  0.00     0.036 A 
HETATM   14 CL   UNL     1      44.358 -20.429   5.529  1.00  0.00    -0.084 Cl
HETATM   15  C   UNL     1      43.783 -19.698   2.997  1.00  0.00     0.024 A 
HETATM   16  C   UNL     1      43.354 -18.790   2.033  1.00  0.00     0.004 A 
HETATM   17  C   UNL     1      42.964 -17.504   2.416  1.00  0.00     0.037 A 
ENDBRANCH  10  11
ENDBRANCH   8  10
ENDBRANCH   7   8
ENDBRANCH   3   7
BRANCH   1  18
HETATM   18  C   UNL     1      39.644 -13.065  -0.604  1.00  0.00     0.059 A 
HETATM   19  C   UNL     1      39.408 -13.554  -1.898  1.00  0.00    -0.032 A 
HETATM   20  C   UNL     1      38.919 -14.938  -2.215  1.00  0.00     0.050 C 
HETATM   21  C   UNL     1      39.673 -12.704  -2.987  1.00  0.00     0.028 A 
HETATM   22  C   UNL     1      40.214 -11.448  -2.762  1.00  0.00     0.117 A 
HETATM   23  N   UNL     1      40.517 -10.979  -1.539  1.00  0.00    -0.271 NA
HETATM   24  C   UNL     1      40.226 -11.796  -0.501  1.00  0.00     0.146 A 
ENDBRANCH   1  18
TORSDOF 5
ENDMDL
MODEL 8
REMARK VINA RESULT:      -6.7      3.748      5.150
REMARK  5 active torsions:
REMARK  status: ('A' for Active; 'I' for Inactive)
REMARK    1  A    between atoms: C_3  and  N_4 
REMARK       I    between atoms: N_4  and  C_5 
REMARK       I    between atoms: C_5  and  N_6 
REMARK    2  A    between atoms: N_6  and  C_7 
REMARK    3  A    between atoms: C_7  and  C_8 
REMARK    4  A    between atoms: C_8  and  O_9 
REMARK    5  A    between atoms: O_9  and  C_10 
ROOT
HETATM    1  N   UNL     1      40.835 -15.785   3.832  1.00  0.00    -0.307 N 
HETATM    2  C   UNL     1      40.699 -14.419   3.727  1.00  0.00     0.320 C 
HETATM    3  N   UNL     1      39.539 -14.099   3.053  1.00  0.00    -0.340 N 
HETATM    4  O   UNL     1      41.443 -13.570   4.199  1.00  0.00    -0.247 OA
HETATM    5  H   UNL     1      39.941 -16.254   3.858  1.00  0.00     0.170 HD
HETATM    6  H   UNL     1      39.190 -14.775   2.389  1.00  0.00     0.164 HD
ENDROOT
BRANCH   3   7
HETATM    7  C   UNL     1      39.152 -12.714   2.826  1.00  0.00     0.156 C 
BRANCH   7   8
HETATM    8  C   UNL     1      39.577 -12.173   1.448  1.00  0.00     0.142 C 
HETATM    9  C   UNL     1      40.818 -11.286   1.529  1.00  0.00     0.042 C 
BRANCH   8  10
HETATM   10  O   UNL     1      39.896 -13.262   0.567  1.00  0.00    -0.345 OA
BRANCH  10  11
HETATM   11  C   UNL     1      39.212 -13.391  -0.610  1.00  0.00     0.070 A 
HETATM   12  C   UNL     1      38.269 -12.501  -1.125  1.00  0.00     0.060 A 
HETATM   13  C   UNL     1      37.643 -12.780  -2.342  1.00  0.00     0.036 A 
HETATM   14 CL   UNL     1      36.475 -11.678  -2.969  1.00  0.00    -0.084 Cl
HETATM   15  C   UNL     1      37.945 -13.938  -3.054  1.00  0.00     0.024 A 
HETATM   16  C   UNL     1      38.883 -14.830  -2.543  1.00  0.00     0.004 A 
HETATM   17  C   UNL     1      39.510 -14.555  -1.325  1.00  0.00     0.037 A 
ENDBRANCH  10  11
ENDBRANCH   8  10
ENDBRANCH   7   8
ENDBRANCH   3   7
BRANCH   1  18
HETATM   18  C   UNL     1      41.910 -16.472   4.446  1.00  0.00     0.059 A 
HETATM   19  C   UNL     1      42.986 -17.086   3.787  1.00  0.00    -0.032 A 
HETATM   20  C   UNL     1      43.129 -17.192   2.296  1.00  0.00     0.050 C 
HETATM   21  C   UNL     1      43.995 -17.674   4.570  1.00  0.00     0.028 A 
HETATM   22  C   UNL     1      43.872 -17.689   5.951  1.00  0.00     0.117 A 
HETATM   23  N   UNL     1      42.820 -17.173   6.608  1.00  0.00    -0.271 NA
HETATM   24  C   UNL     1      41.873 -16.582   5.841  1.00  0.00     0.146 A 
ENDBRANCH   1  18
TORSDOF 5
ENDMDL
MODEL 9
REMARK VINA RESULT:      -6.6      2.997      7.317
REMARK  5 active torsions:
REMARK  status: ('A' for Active; 'I' for Inactive)
REMARK    1  A    between atoms: C_3  and  N_4 
REMARK       I    between atoms: N_4  and  C_5 
REMARK       I    between atoms: C_5  and  N_6 
REMARK    2  A    between atoms: N_6  and  C_7 
REMARK    3  A    between atoms: C_7  and  C_8 
REMARK    4  A    between atoms: C_8  and  O_9 
REMARK    5  A    between atoms: O_9  and  C_10 
ROOT
HETATM    1  N   UNL     1      42.479 -11.823   5.013  1.00  0.00    -0.307 N 
HETATM    2  C   UNL     1      41.410 -12.690   5.056  1.00  0.00     0.320 C 
HETATM    3  N   UNL     1      41.323 -13.408   3.882  1.00  0.00    -0.340 N 
HETATM    4  O   UNL     1      40.655 -12.877   6.000  1.00  0.00    -0.247 OA
HETATM    5  H   UNL     1      43.226 -12.171   4.429  1.00  0.00     0.170 HD
HETATM    6  H   UNL     1      41.693 -12.974   3.047  1.00  0.00     0.164 HD
ENDROOT
BRANCH   3   7
HETATM    7  C   UNL     1      40.287 -14.410   3.681  1.00  0.00     0.156 C 
BRANCH   7   8
HETATM    8  C   UNL     1      40.752 -15.621   2.850  1.00  0.00     0.142 C 
HETATM    9  C   UNL     1      40.208 -15.590   1.422  1.00  0.00     0.042 C 
BRANCH   8  10
HETATM   10  O   UNL     1      42.186 -15.631   2.753  1.00  0.00    -0.345 OA
BRANCH  10  11
HETATM   11  C   UNL     1      42.871 -16.762   3.101  1.00  0.00     0.070 A 
HETATM   12  C   UNL     1      42.978 -17.932   2.349  1.00  0.00     0.060 A 
HETATM   13  C   UNL     1      43.707 -19.014   2.848  1.00  0.00     0.036 A 
HETATM   14 CL   UNL     1      43.831 -20.458   1.916  1.00  0.00    -0.084 Cl
HETATM   15  C   UNL     1      44.331 -18.944   4.091  1.00  0.00     0.024 A 
HETATM   16  C   UNL     1      44.224 -17.779   4.846  1.00  0.00     0.004 A 
HETATM   17  C   UNL     1      43.494 -16.696   4.350  1.00  0.00     0.037 A 
ENDBRANCH  10  11
ENDBRANCH   8  10
ENDBRANCH   7   8
ENDBRANCH   3   7
BRANCH   1  18
HETATM   18  C   UNL     1      42.863 -10.921   6.035  1.00  0.00     0.059 A 
HETATM   19  C   UNL     1      43.987 -11.041   6.866  1.00  0.00    -0.032 A 
HETATM   20  C   UNL     1      44.931 -12.209   6.867  1.00  0.00     0.050 C 
HETATM   21  C   UNL     1      44.242 -10.011   7.790  1.00  0.00     0.028 A 
HETATM   22  C   UNL     1      43.355  -8.952   7.900  1.00  0.00     0.117 A 
HETATM   23  N   UNL     1      42.232  -8.846   7.168  1.00  0.00    -0.271 NA
HETATM   24  C   UNL     1      42.019  -9.828   6.261  1.00  0.00     0.146 A 
ENDBRANCH   1  18
TORSDOF 5
ENDMDL
MODEL 10
REMARK VINA RESULT:      -6.5      3.079      7.149
REMARK  5 active torsions:
REMARK  status: ('A' for Active; 'I' for Inactive)
REMARK    1  A    between atoms: C_3  and  N_4 
REMARK       I    between atoms: N_4  and  C_5 
REMARK       I    between atoms: C_5  and  N_6 
REMARK    2  A    between atoms: N_6  and  C_7 
REMARK    3  A    between atoms: C_7  and  C_8 
REMARK    4  A    between atoms: C_8  and  O_9 
REMARK    5  A    between atoms: O_9  and  C_10 
ROOT
HETATM    1  N   UNL     1      42.607 -11.931   5.188  1.00  0.00    -0.307 N 
HETATM    2  C   UNL     1      41.451 -12.660   5.028  1.00  0.00     0.320 C 
HETATM    3  N   UNL     1      41.335 -13.105   3.728  1.00  0.00    -0.340 N 
HETATM    4  O   UNL     1      40.641 -12.950   5.898  1.00  0.00    -0.247 OA
HETATM    5  H   UNL     1      43.337 -12.233   4.558  1.00  0.00     0.170 HD
HETATM    6  H   UNL     1      41.784 -12.552   3.010  1.00  0.00     0.164 HD
ENDROOT
BRANCH   3   7
HETATM    7  C   UNL     1      40.206 -13.918   3.302  1.00  0.00     0.156 C 
BRANCH   7   8
HETATM    8  C   UNL     1      40.610 -15.310   2.781  1.00  0.00     0.142 C 
HETATM    9  C   UNL     1      40.088 -15.578   1.371  1.00  0.00     0.042 C 
BRANCH   8  10
HETATM   10  O   UNL     1      42.042 -15.420   2.725  1.00  0.00    -0.345 OA
BRANCH  10  11
HETATM   11  C   UNL     1      42.659 -16.454   3.372  1.00  0.00     0.070 A 
HETATM   12  C   UNL     1      42.720 -16.652   4.752  1.00  0.00     0.060 A 
HETATM   13  C   UNL     1      43.403 -17.757   5.266  1.00  0.00     0.036 A 
HETATM   14 CL   UNL     1      43.478 -17.992   6.971  1.00  0.00    -0.084 Cl
HETATM   15  C   UNL     1      44.029 -18.668   4.419  1.00  0.00     0.024 A 
HETATM   16  C   UNL     1      43.974 -18.473   3.042  1.00  0.00     0.004 A 
HETATM   17  C   UNL     1      43.292 -17.368   2.525  1.00  0.00     0.037 A 
ENDBRANCH  10  11
ENDBRANCH   8  10
ENDBRANCH   7   8
ENDBRANCH   3   7
BRANCH   1  18
HETATM   18  C   UNL     1      43.044 -11.309   6.383  1.00  0.00     0.059 A 
HETATM   19  C   UNL     1      42.593 -10.082   6.891  1.00  0.00    -0.032 A 
HETATM   20  C   UNL     1      41.623  -9.170   6.195  1.00  0.00     0.050 C 
HETATM   21  C   UNL     1      43.101  -9.649   8.129  1.00  0.00     0.028 A 
HETATM   22  C   UNL     1      44.069 -10.402   8.775  1.00  0.00     0.117 A 
HETATM   23  N   UNL     1      44.573 -11.545   8.280  1.00  0.00    -0.271 NA
HETATM   24  C   UNL     1      44.049 -11.964   7.104  1.00  0.00     0.146 A 
ENDBRANCH   1  18
TORSDOF 5
ENDMDL
