MODEL 1
REMARK VINA RESULT:      -7.3      0.000      0.000
REMARK  4 active torsions:
REMARK  status: ('A' for Active; 'I' for Inactive)
REMARK    1  A    between atoms: O_2  and  C_3 
REMARK    2  A    between atoms: C_4  and  C_5 
REMARK    3  A    between atoms: C_9  and  N_10 
REMARK    4  A    between atoms: C_13  and  C_14 
ROOT
HETATM    1  C   UNL     1      41.700 -12.664   5.420  1.00  0.00     0.167 C 
HETATM    2  N   UNL     1      42.947 -12.253   6.061  1.00  0.00    -0.074 N 
HETATM    3  C   UNL     1      43.617 -12.992   7.001  1.00  0.00     0.736 A 
HETATM    4  N   UNL     1      44.700 -12.348   7.353  1.00  0.00     0.131 NA
HETATM    5  C   UNL     1      44.615 -11.189   6.640  1.00  0.00     0.753 A 
HETATM    6  N   UNL     1      43.564 -11.080   5.829  1.00  0.00     0.037 NA
HETATM    7  N   UNL     1      43.150 -14.178   7.434  1.00  0.00    -0.214 N 
HETATM    8  C   UNL     1      41.995 -14.810   6.809  1.00  0.00     0.135 C 
HETATM    9  C   UNL     1      41.016 -13.719   6.321  1.00  0.00     0.063 C 
HETATM   10  H   UNL     1      43.740 -14.754   8.026  1.00  0.00     0.178 HD
ENDROOT
BRANCH   1  11
HETATM   11  C   UNL     1      41.866 -13.103   3.961  1.00  0.00     0.001 A 
HETATM   12  C   UNL     1      40.749 -13.088   3.095  1.00  0.00     0.076 A 
HETATM   13  C   UNL     1      40.882 -13.503   1.763  1.00  0.00     0.037 A 
HETATM   14  C   UNL     1      42.114 -13.942   1.278  1.00  0.00     0.003 A 
HETATM   15  C   UNL     1      43.222 -13.955   2.114  1.00  0.00     0.001 A 
HETATM   16  C   UNL     1      43.101 -13.535   3.439  1.00  0.00     0.012 A 
BRANCH  12  17
HETATM   17  O   UNL     1      39.573 -12.627   3.634  1.00  0.00    -0.355 OA
HETATM   18  C   UNL     1      39.047 -11.418   3.099  1.00  0.00     0.210 C 
ENDBRANCH  12  17
ENDBRANCH   1  11
BRANCH   8  19
HETATM   19  C   UNL     1      42.374 -15.839   5.750  1.00  0.00    -0.035 A 
HETATM   20  C   UNL     1      43.652 -16.415   5.665  1.00  0.00     0.010 A 
HETATM   21  C   UNL     1      43.966 -17.331   4.657  1.00  0.00     0.019 A 
HETATM   22  C   UNL     1      42.999 -17.692   3.723  1.00  0.00     0.011 A 
HETATM   23 BR   UNL     1      43.430 -18.910   2.345  1.00  0.00    -0.051 Br
HETATM   24  C   UNL     1      41.717 -17.158   3.800  1.00  0.00     0.019 A 
HETATM   25  C   UNL     1      41.406 -16.246   4.811  1.00  0.00     0.010 A 
ENDBRANCH   8  19
BRANCH   5  26
HETATM   26  N   UNL     1      45.582 -10.287   6.775  1.00  0.00    -0.229 N 
HETATM   27  H   UNL     1      45.517  -9.459   6.197  1.00  0.00     0.174 HD
HETATM   28  H   UNL     1      45.936 -10.134   7.709  1.00  0.00     0.174 HD
ENDBRANCH   5  26
TORSDOF 4
ENDMDL
MODEL 2
REMARK VINA RESULT:      -7.1      2.793      4.851
REMARK  4 active torsions:
REMARK  status: ('A' for Active; 'I' for Inactive)
REMARK    1  A    between atoms: O_2  and  C_3 
REMARK    2  A    between atoms: C_4  and  C_5 
REMARK    3  A    between atoms: C_9  and  N_10 
REMARK    4  A    between atoms: C_13  and  C_14 
ROOT
HETATM    1  C   UNL     1      42.186 -13.190   3.883  1.00  0.00     0.167 C 
HETATM    2  N   UNL     1      41.044 -13.147   2.972  1.00  0.00    -0.074 N 
HETATM    3  C   UNL     1      41.044 -13.663   1.702  1.00  0.00     0.736 A 
HETATM    4  N   UNL     1      39.864 -13.474   1.170  1.00  0.00     0.131 NA
HETATM    5  C   UNL     1      39.195 -12.783   2.136  1.00  0.00     0.753 A 
HETATM    6  N   UNL     1      39.869 -12.560   3.263  1.00  0.00     0.037 NA
HETATM    7  N   UNL     1      42.136 -14.246   1.175  1.00  0.00    -0.214 N 
HETATM    8  C   UNL     1      43.322 -14.502   1.983  1.00  0.00     0.135 C 
HETATM    9  C   UNL     1      43.470 -13.387   3.043  1.00  0.00     0.063 C 
HETATM   10  H   UNL     1      42.056 -14.733   0.289  1.00  0.00     0.178 HD
ENDROOT
BRANCH   1  11
HETATM   11  C   UNL     1      42.030 -14.196   5.029  1.00  0.00     0.001 A 
HETATM   12  C   UNL     1      42.906 -14.134   6.137  1.00  0.00     0.076 A 
HETATM   13  C   UNL     1      42.786 -15.059   7.184  1.00  0.00     0.037 A 
HETATM   14  C   UNL     1      41.808 -16.052   7.142  1.00  0.00     0.003 A 
HETATM   15  C   UNL     1      40.936 -16.121   6.064  1.00  0.00     0.001 A 
HETATM   16  C   UNL     1      41.042 -15.199   5.022  1.00  0.00     0.012 A 
BRANCH  12  17
HETATM   17  O   UNL     1      43.831 -13.120   6.121  1.00  0.00    -0.355 OA
HETATM   18  C   UNL     1      43.842 -12.237   7.236  1.00  0.00     0.210 C 
ENDBRANCH  12  17
ENDBRANCH   1  11
BRANCH   8  19
HETATM   19  C   UNL     1      43.373 -15.918   2.544  1.00  0.00    -0.035 A 
HETATM   20  C   UNL     1      43.969 -16.232   3.777  1.00  0.00     0.010 A 
HETATM   21  C   UNL     1      44.023 -17.551   4.238  1.00  0.00     0.019 A 
HETATM   22  C   UNL     1      43.471 -18.575   3.474  1.00  0.00     0.011 A 
HETATM   23 BR   UNL     1      43.567 -20.360   4.085  1.00  0.00    -0.051 Br
HETATM   24  C   UNL     1      42.851 -18.290   2.262  1.00  0.00     0.019 A 
HETATM   25  C   UNL     1      42.796 -16.970   1.806  1.00  0.00     0.010 A 
ENDBRANCH   8  19
BRANCH   5  26
HETATM   26  N   UNL     1      37.938 -12.423   1.904  1.00  0.00    -0.229 N 
HETATM   27  H   UNL     1      37.473 -11.897   2.633  1.00  0.00     0.174 HD
HETATM   28  H   UNL     1      37.709 -12.144   0.960  1.00  0.00     0.174 HD
ENDBRANCH   5  26
TORSDOF 4
ENDMDL
MODEL 3
REMARK VINA RESULT:      -7.0     16.118     18.087
REMARK  4 active torsions:
REMARK  status: ('A' for Active; 'I' for Inactive)
REMARK    1  A    between atoms: O_2  and  C_3 
REMARK    2  A    between atoms: C_4  and  C_5 
REMARK    3  A    between atoms: C_9  and  N_10 
REMARK    4  A    between atoms: C_13  and  C_14 
ROOT
HETATM    1  C   UNL     1      47.472 -29.844  -2.495  1.00  0.00     0.167 C 
HETATM    2  N   UNL     1      48.657 -30.096  -1.678  1.00  0.00    -0.074 N 
HETATM    3  C   UNL     1      49.016 -29.356  -0.582  1.00  0.00     0.736 A 
HETATM    4  N   UNL     1      50.112 -29.858  -0.073  1.00  0.00     0.131 NA
HETATM    5  C   UNL     1      50.416 -30.870  -0.934  1.00  0.00     0.753 A 
HETATM    6  N   UNL     1      49.556 -31.064  -1.932  1.00  0.00     0.037 NA
HETATM    7  N   UNL     1      48.293 -28.296  -0.176  1.00  0.00    -0.214 N 
HETATM    8  C   UNL     1      47.008 -27.978  -0.785  1.00  0.00     0.135 C 
HETATM    9  C   UNL     1      47.036 -28.376  -2.278  1.00  0.00     0.063 C 
HETATM   10  H   UNL     1      48.514 -27.859   0.713  1.00  0.00     0.178 HD
ENDROOT
BRANCH   1  11
HETATM   11  C   UNL     1      46.348 -30.866  -2.292  1.00  0.00     0.001 A 
HETATM   12  C   UNL     1      45.316 -30.970  -3.253  1.00  0.00     0.076 A 
HETATM   13  C   UNL     1      44.272 -31.887  -3.070  1.00  0.00     0.037 A 
HETATM   14  C   UNL     1      44.235 -32.702  -1.939  1.00  0.00     0.003 A 
HETATM   15  C   UNL     1      45.245 -32.617  -0.991  1.00  0.00     0.001 A 
HETATM   16  C   UNL     1      46.293 -31.713  -1.168  1.00  0.00     0.012 A 
BRANCH  12  17
HETATM   17  O   UNL     1      45.426 -30.151  -4.349  1.00  0.00    -0.355 OA
HETATM   18  C   UNL     1      44.314 -30.104  -5.235  1.00  0.00     0.210 C 
ENDBRANCH  12  17
ENDBRANCH   1  11
BRANCH   8  19
HETATM   19  C   UNL     1      45.821 -28.533  -0.006  1.00  0.00    -0.035 A 
HETATM   20  C   UNL     1      45.931 -29.034   1.303  1.00  0.00     0.010 A 
HETATM   21  C   UNL     1      44.822 -29.564   1.969  1.00  0.00     0.019 A 
HETATM   22  C   UNL     1      43.582 -29.591   1.337  1.00  0.00     0.011 A 
HETATM   23 BR   UNL     1      42.089 -30.331   2.227  1.00  0.00    -0.051 Br
HETATM   24  C   UNL     1      43.438 -29.077   0.052  1.00  0.00     0.019 A 
HETATM   25  C   UNL     1      44.548 -28.545  -0.609  1.00  0.00     0.010 A 
ENDBRANCH   8  19
BRANCH   5  26
HETATM   26  N   UNL     1      51.504 -31.598  -0.699  1.00  0.00    -0.229 N 
HETATM   27  H   UNL     1      51.808 -32.213  -1.442  1.00  0.00     0.174 HD
HETATM   28  H   UNL     1      52.246 -31.154  -0.176  1.00  0.00     0.174 HD
ENDBRANCH   5  26
TORSDOF 4
ENDMDL
MODEL 4
REMARK VINA RESULT:      -6.9      8.336     10.824
REMARK  4 active torsions:
REMARK  status: ('A' for Active; 'I' for Inactive)
REMARK    1  A    between atoms: O_2  and  C_3 
REMARK    2  A    between atoms: C_4  and  C_5 
REMARK    3  A    between atoms: C_9  and  N_10 
REMARK    4  A    between atoms: C_13  and  C_14 
ROOT
HETATM    1  C   UNL     1      42.061  -8.929  10.315  1.00  0.00     0.167 C 
HETATM    2  N   UNL     1      43.314  -8.689   9.600  1.00  0.00    -0.074 N 
HETATM    3  C   UNL     1      43.553  -7.607   8.795  1.00  0.00     0.736 A 
HETATM    4  N   UNL     1      44.772  -7.690   8.327  1.00  0.00     0.131 NA
HETATM    5  C   UNL     1      45.216  -8.876   8.830  1.00  0.00     0.753 A 
HETATM    6  N   UNL     1      44.366  -9.527   9.620  1.00  0.00     0.037 NA
HETATM    7  N   UNL     1      42.616  -6.665   8.578  1.00  0.00    -0.214 N 
HETATM    8  C   UNL     1      41.359  -6.665   9.314  1.00  0.00     0.135 C 
HETATM    9  C   UNL     1      40.942  -8.122   9.616  1.00  0.00     0.063 C 
HETATM   10  H   UNL     1      42.876  -5.815   8.088  1.00  0.00     0.178 HD
ENDROOT
BRANCH   1  11
HETATM   11  C   UNL     1      42.152  -8.690  11.826  1.00  0.00     0.001 A 
HETATM   12  C   UNL     1      41.190  -9.269  12.685  1.00  0.00     0.076 A 
HETATM   13  C   UNL     1      41.252  -9.044  14.067  1.00  0.00     0.037 A 
HETATM   14  C   UNL     1      42.255  -8.242  14.610  1.00  0.00     0.003 A 
HETATM   15  C   UNL     1      43.212  -7.673  13.781  1.00  0.00     0.001 A 
HETATM   16  C   UNL     1      43.165  -7.899  12.405  1.00  0.00     0.012 A 
BRANCH  12  17
HETATM   17  O   UNL     1      40.243 -10.060  12.084  1.00  0.00    -0.355 OA
HETATM   18  C   UNL     1      39.397 -10.819  12.940  1.00  0.00     0.210 C 
ENDBRANCH  12  17
ENDBRANCH   1  11
BRANCH   8  19
HETATM   19  C   UNL     1      41.374  -5.746  10.530  1.00  0.00    -0.035 A 
HETATM   20  C   UNL     1      42.423  -4.850  10.799  1.00  0.00     0.010 A 
HETATM   21  C   UNL     1      42.413  -4.050  11.945  1.00  0.00     0.019 A 
HETATM   22  C   UNL     1      41.345  -4.128  12.835  1.00  0.00     0.011 A 
HETATM   23 BR   UNL     1      41.343  -3.065  14.397  1.00  0.00    -0.051 Br
HETATM   24  C   UNL     1      40.281  -4.986  12.580  1.00  0.00     0.019 A 
HETATM   25  C   UNL     1      40.293  -5.782  11.432  1.00  0.00     0.010 A 
ENDBRANCH   8  19
BRANCH   5  26
HETATM   26  N   UNL     1      46.450  -9.270   8.532  1.00  0.00    -0.229 N 
HETATM   27  H   UNL     1      47.112  -8.547   8.284  1.00  0.00     0.174 HD
HETATM   28  H   UNL     1      46.829 -10.033   9.076  1.00  0.00     0.174 HD
ENDBRANCH   5  26
TORSDOF 4
ENDMDL
MODEL 5
REMARK VINA RESULT:      -6.8     16.008     18.012
REMARK  4 active torsions:
REMARK  status: ('A' for Active; 'I' for Inactive)
REMARK    1  A    between atoms: O_2  and  C_3 
REMARK    2  A    between atoms: C_4  and  C_5 
REMARK    3  A    between atoms: C_9  and  N_10 
REMARK    4  A    between atoms: C_13  and  C_14 
ROOT
HETATM    1  C   UNL     1      44.412 -29.237  -1.216  1.00  0.00     0.167 C 
HETATM    2  N   UNL     1      44.544 -29.435  -2.658  1.00  0.00    -0.074 N 
HETATM    3  C   UNL     1      45.507 -28.849  -3.438  1.00  0.00     0.736 A 
HETATM    4  N   UNL     1      45.353 -29.250  -4.673  1.00  0.00     0.131 NA
HETATM    5  C   UNL     1      44.242 -30.038  -4.606  1.00  0.00     0.753 A 
HETATM    6  N   UNL     1      43.709 -30.190  -3.396  1.00  0.00     0.037 NA
HETATM    7  N   UNL     1      46.417 -28.003  -2.922  1.00  0.00    -0.214 N 
HETATM    8  C   UNL     1      46.525 -27.793  -1.484  1.00  0.00     0.135 C 
HETATM    9  C   UNL     1      45.125 -27.917  -0.841  1.00  0.00     0.063 C 
HETATM   10  H   UNL     1      47.191 -27.697  -3.502  1.00  0.00     0.178 HD
ENDROOT
BRANCH   1  11
HETATM   11  C   UNL     1      44.852 -30.444  -0.380  1.00  0.00     0.001 A 
HETATM   12  C   UNL     1      44.425 -30.557   0.963  1.00  0.00     0.076 A 
HETATM   13  C   UNL     1      44.834 -31.646   1.744  1.00  0.00     0.037 A 
HETATM   14  C   UNL     1      45.672 -32.625   1.211  1.00  0.00     0.003 A 
HETATM   15  C   UNL     1      46.093 -32.532  -0.108  1.00  0.00     0.001 A 
HETATM   16  C   UNL     1      45.684 -31.457  -0.897  1.00  0.00     0.012 A 
BRANCH  12  17
HETATM   17  O   UNL     1      43.588 -29.568   1.415  1.00  0.00    -0.355 OA
HETATM   18  C   UNL     1      42.247 -29.941   1.713  1.00  0.00     0.210 C 
ENDBRANCH  12  17
ENDBRANCH   1  11
BRANCH   8  19
HETATM   19  C   UNL     1      47.599 -28.655  -0.830  1.00  0.00    -0.035 A 
HETATM   20  C   UNL     1      48.568 -29.359  -1.565  1.00  0.00     0.010 A 
HETATM   21  C   UNL     1      49.514 -30.166  -0.926  1.00  0.00     0.019 A 
HETATM   22  C   UNL     1      49.511 -30.271   0.462  1.00  0.00     0.011 A 
HETATM   23 BR   UNL     1      50.774 -31.380   1.324  1.00  0.00    -0.051 Br
HETATM   24  C   UNL     1      48.581 -29.563   1.216  1.00  0.00     0.019 A 
HETATM   25  C   UNL     1      47.639 -28.755   0.574  1.00  0.00     0.010 A 
ENDBRANCH   8  19
BRANCH   5  26
HETATM   26  N   UNL     1      43.802 -30.612  -5.721  1.00  0.00    -0.229 N 
HETATM   27  H   UNL     1      43.176 -30.067  -6.298  1.00  0.00     0.174 HD
HETATM   28  H   UNL     1      44.459 -31.191  -6.226  1.00  0.00     0.174 HD
ENDBRANCH   5  26
TORSDOF 4
ENDMDL
MODEL 6
REMARK VINA RESULT:      -6.6      5.749      8.283
REMARK  4 active torsions:
REMARK  status: ('A' for Active; 'I' for Inactive)
REMARK    1  A    between atoms: O_2  and  C_3 
REMARK    2  A    between atoms: C_4  and  C_5 
REMARK    3  A    between atoms: C_9  and  N_10 
REMARK    4  A    between atoms: C_13  and  C_14 
ROOT
HETATM    1  C   UNL     1      43.353  -8.790   7.751  1.00  0.00     0.167 C 
HETATM    2  N   UNL     1      43.456 -10.213   7.433  1.00  0.00    -0.074 N 
HETATM    3  C   UNL     1      44.245 -11.105   8.111  1.00  0.00     0.736 A 
HETATM    4  N   UNL     1      44.090 -12.292   7.584  1.00  0.00     0.131 NA
HETATM    5  C   UNL     1      43.238 -12.061   6.546  1.00  0.00     0.753 A 
HETATM    6  N   UNL     1      42.814 -10.806   6.410  1.00  0.00     0.037 NA
HETATM    7  N   UNL     1      45.027 -10.721   9.137  1.00  0.00    -0.214 N 
HETATM    8  C   UNL     1      44.951  -9.372   9.682  1.00  0.00     0.135 C 
HETATM    9  C   UNL     1      44.614  -8.379   8.547  1.00  0.00     0.063 C 
HETATM   10  H   UNL     1      45.490 -11.430   9.696  1.00  0.00     0.178 HD
ENDROOT
BRANCH   1  11
HETATM   11  C   UNL     1      42.033  -8.397   8.424  1.00  0.00     0.001 A 
HETATM   12  C   UNL     1      41.578  -7.061   8.343  1.00  0.00     0.076 A 
HETATM   13  C   UNL     1      40.382  -6.684   8.969  1.00  0.00     0.037 A 
HETATM   14  C   UNL     1      39.632  -7.617   9.684  1.00  0.00     0.003 A 
HETATM   15  C   UNL     1      40.062  -8.935   9.765  1.00  0.00     0.001 A 
HETATM   16  C   UNL     1      41.247  -9.322   9.138  1.00  0.00     0.012 A 
BRANCH  12  17
HETATM   17  O   UNL     1      42.357  -6.202   7.608  1.00  0.00    -0.355 OA
HETATM   18  C   UNL     1      41.769  -5.631   6.445  1.00  0.00     0.210 C 
ENDBRANCH  12  17
ENDBRANCH   1  11
BRANCH   8  19
HETATM   19  C   UNL     1      44.044  -9.267  10.904  1.00  0.00    -0.035 A 
HETATM   20  C   UNL     1      43.529 -10.390  11.573  1.00  0.00     0.010 A 
HETATM   21  C   UNL     1      42.673 -10.248  12.669  1.00  0.00     0.019 A 
HETATM   22  C   UNL     1      42.329  -8.977  13.119  1.00  0.00     0.011 A 
HETATM   23 BR   UNL     1      41.153  -8.784  14.584  1.00  0.00    -0.051 Br
HETATM   24  C   UNL     1      42.846  -7.847  12.492  1.00  0.00     0.019 A 
HETATM   25  C   UNL     1      43.704  -7.993  11.399  1.00  0.00     0.010 A 
ENDBRANCH   8  19
BRANCH   5  26
HETATM   26  N   UNL     1      42.871 -13.086   5.784  1.00  0.00    -0.229 N 
HETATM   27  H   UNL     1      43.613 -13.635   5.371  1.00  0.00     0.174 HD
HETATM   28  H   UNL     1      42.063 -13.613   6.086  1.00  0.00     0.174 HD
ENDBRANCH   5  26
TORSDOF 4
ENDMDL
MODEL 7
REMARK VINA RESULT:      -6.5      3.947      5.973
REMARK  4 active torsions:
REMARK  status: ('A' for Active; 'I' for Inactive)
REMARK    1  A    between atoms: O_2  and  C_3 
REMARK    2  A    between atoms: C_4  and  C_5 
REMARK    3  A    between atoms: C_9  and  N_10 
REMARK    4  A    between atoms: C_13  and  C_14 
ROOT
HETATM    1  C   UNL     1      39.914 -14.751   2.164  1.00  0.00     0.167 C 
HETATM    2  N   UNL     1      40.048 -14.116   0.855  1.00  0.00    -0.074 N 
HETATM    3  C   UNL     1      40.035 -12.762   0.643  1.00  0.00     0.736 A 
HETATM    4  N   UNL     1      40.195 -12.533  -0.635  1.00  0.00     0.131 NA
HETATM    5  C   UNL     1      40.242 -13.785  -1.171  1.00  0.00     0.753 A 
HETATM    6  N   UNL     1      40.161 -14.792  -0.303  1.00  0.00     0.037 NA
HETATM    7  N   UNL     1      39.872 -11.889   1.654  1.00  0.00    -0.214 N 
HETATM    8  C   UNL     1      39.860 -12.333   3.042  1.00  0.00     0.135 C 
HETATM    9  C   UNL     1      39.237 -13.744   3.124  1.00  0.00     0.063 C 
HETATM   10  H   UNL     1      40.003 -10.899   1.477  1.00  0.00     0.178 HD
ENDROOT
BRANCH   1  11
HETATM   11  C   UNL     1      41.219 -15.347   2.703  1.00  0.00     0.001 A 
HETATM   12  C   UNL     1      41.224 -16.003   3.955  1.00  0.00     0.076 A 
HETATM   13  C   UNL     1      42.414 -16.536   4.468  1.00  0.00     0.037 A 
HETATM   14  C   UNL     1      43.607 -16.421   3.755  1.00  0.00     0.003 A 
HETATM   15  C   UNL     1      43.617 -15.786   2.520  1.00  0.00     0.001 A 
HETATM   16  C   UNL     1      42.435 -15.259   1.997  1.00  0.00     0.012 A 
BRANCH  12  17
HETATM   17  O   UNL     1      40.011 -16.096   4.592  1.00  0.00    -0.355 OA
HETATM   18  C   UNL     1      40.028 -16.106   6.015  1.00  0.00     0.210 C 
ENDBRANCH  12  17
ENDBRANCH   1  11
BRANCH   8  19
HETATM   19  C   UNL     1      41.216 -12.200   3.726  1.00  0.00    -0.035 A 
HETATM   20  C   UNL     1      41.433 -12.550   5.070  1.00  0.00     0.010 A 
HETATM   21  C   UNL     1      42.685 -12.380   5.667  1.00  0.00     0.019 A 
HETATM   22  C   UNL     1      43.744 -11.866   4.924  1.00  0.00     0.011 A 
HETATM   23 BR   UNL     1      45.430 -11.613   5.737  1.00  0.00    -0.051 Br
HETATM   24  C   UNL     1      43.565 -11.537   3.584  1.00  0.00     0.019 A 
HETATM   25  C   UNL     1      42.312 -11.711   2.989  1.00  0.00     0.010 A 
ENDBRANCH   8  19
BRANCH   5  26
HETATM   26  N   UNL     1      40.397 -13.909  -2.485  1.00  0.00    -0.229 N 
HETATM   27  H   UNL     1      39.591 -13.700  -3.060  1.00  0.00     0.174 HD
HETATM   28  H   UNL     1      41.286 -13.621  -2.868  1.00  0.00     0.174 HD
ENDBRANCH   5  26
TORSDOF 4
ENDMDL
MODEL 8
REMARK VINA RESULT:      -6.4      3.549      5.546
REMARK  4 active torsions:
REMARK  status: ('A' for Active; 'I' for Inactive)
REMARK    1  A    between atoms: O_2  and  C_3 
REMARK    2  A    between atoms: C_4  and  C_5 
REMARK    3  A    between atoms: C_9  and  N_10 
REMARK    4  A    between atoms: C_13  and  C_14 
ROOT
HETATM    1  C   UNL     1      41.453 -15.161   4.399  1.00  0.00     0.167 C 
HETATM    2  N   UNL     1      42.139 -16.242   3.694  1.00  0.00    -0.074 N 
HETATM    3  C   UNL     1      41.687 -16.824   2.537  1.00  0.00     0.736 A 
HETATM    4  N   UNL     1      42.542 -17.740   2.163  1.00  0.00     0.131 NA
HETATM    5  C   UNL     1      43.472 -17.721   3.160  1.00  0.00     0.753 A 
HETATM    6  N   UNL     1      43.277 -16.819   4.120  1.00  0.00     0.037 NA
HETATM    7  N   UNL     1      40.531 -16.446   1.960  1.00  0.00    -0.214 N 
HETATM    8  C   UNL     1      39.785 -15.292   2.445  1.00  0.00     0.135 C 
HETATM    9  C   UNL     1      39.966 -15.171   3.975  1.00  0.00     0.063 C 
HETATM   10  H   UNL     1      40.300 -16.804   1.039  1.00  0.00     0.178 HD
ENDROOT
BRANCH   1  11
HETATM   11  C   UNL     1      42.134 -13.795   4.256  1.00  0.00     0.001 A 
HETATM   12  C   UNL     1      41.786 -12.745   5.136  1.00  0.00     0.076 A 
HETATM   13  C   UNL     1      42.388 -11.486   5.005  1.00  0.00     0.037 A 
HETATM   14  C   UNL     1      43.330 -11.252   4.004  1.00  0.00     0.003 A 
HETATM   15  C   UNL     1      43.688 -12.276   3.137  1.00  0.00     0.001 A 
HETATM   16  C   UNL     1      43.102 -13.535   3.265  1.00  0.00     0.012 A 
BRANCH  12  17
HETATM   17  O   UNL     1      40.866 -13.051   6.108  1.00  0.00    -0.355 OA
HETATM   18  C   UNL     1      39.717 -12.217   6.196  1.00  0.00     0.210 C 
ENDBRANCH  12  17
ENDBRANCH   1  11
BRANCH   8  19
HETATM   19  C   UNL     1      40.083 -14.014   1.670  1.00  0.00    -0.035 A 
HETATM   20  C   UNL     1      40.801 -14.002   0.462  1.00  0.00     0.010 A 
HETATM   21  C   UNL     1      41.081 -12.802  -0.200  1.00  0.00     0.019 A 
HETATM   22  C   UNL     1      40.636 -11.597   0.335  1.00  0.00     0.011 A 
HETATM   23 BR   UNL     1      41.036  -9.973  -0.545  1.00  0.00    -0.051 Br
HETATM   24  C   UNL     1      39.899 -11.582   1.515  1.00  0.00     0.019 A 
HETATM   25  C   UNL     1      39.618 -12.783   2.171  1.00  0.00     0.010 A 
ENDBRANCH   8  19
BRANCH   5  26
HETATM   26  N   UNL     1      44.501 -18.558   3.085  1.00  0.00    -0.229 N 
HETATM   27  H   UNL     1      44.576 -19.113   2.242  1.00  0.00     0.174 HD
HETATM   28  H   UNL     1      45.379 -18.238   3.470  1.00  0.00     0.174 HD
ENDBRANCH   5  26
TORSDOF 4
ENDMDL
MODEL 9
REMARK VINA RESULT:      -6.3     16.366     18.439
REMARK  4 active torsions:
REMARK  status: ('A' for Active; 'I' for Inactive)
REMARK    1  A    between atoms: O_2  and  C_3 
REMARK    2  A    between atoms: C_4  and  C_5 
REMARK    3  A    between atoms: C_9  and  N_10 
REMARK    4  A    between atoms: C_13  and  C_14 
ROOT
HETATM    1  C   UNL     1      45.774 -29.488  -0.046  1.00  0.00     0.167 C 
HETATM    2  N   UNL     1      45.403 -29.285  -1.445  1.00  0.00    -0.074 N 
HETATM    3  C   UNL     1      46.142 -28.566  -2.348  1.00  0.00     0.736 A 
HETATM    4  N   UNL     1      45.539 -28.598  -3.508  1.00  0.00     0.131 NA
HETATM    5  C   UNL     1      44.401 -29.302  -3.246  1.00  0.00     0.753 A 
HETATM    6  N   UNL     1      44.269 -29.751  -1.999  1.00  0.00     0.037 NA
HETATM    7  N   UNL     1      47.289 -27.955  -1.997  1.00  0.00    -0.214 N 
HETATM    8  C   UNL     1      47.885 -28.161  -0.683  1.00  0.00     0.135 C 
HETATM    9  C   UNL     1      46.764 -28.371   0.360  1.00  0.00     0.063 C 
HETATM   10  H   UNL     1      47.872 -27.549  -2.721  1.00  0.00     0.178 HD
ENDROOT
BRANCH   1  11
HETATM   11  C   UNL     1      46.268 -30.904   0.268  1.00  0.00     0.001 A 
HETATM   12  C   UNL     1      46.303 -31.352   1.608  1.00  0.00     0.076 A 
HETATM   13  C   UNL     1      46.769 -32.639   1.910  1.00  0.00     0.037 A 
HETATM   14  C   UNL     1      47.210 -33.488   0.896  1.00  0.00     0.003 A 
HETATM   15  C   UNL     1      47.175 -33.066  -0.425  1.00  0.00     0.001 A 
HETATM   16  C   UNL     1      46.704 -31.790  -0.737  1.00  0.00     0.012 A 
BRANCH  12  17
HETATM   17  O   UNL     1      45.836 -30.471   2.551  1.00  0.00    -0.355 OA
HETATM   18  C   UNL     1      46.664 -30.240   3.685  1.00  0.00     0.210 C 
ENDBRANCH  12  17
ENDBRANCH   1  11
BRANCH   8  19
HETATM   19  C   UNL     1      48.965 -29.236  -0.676  1.00  0.00    -0.035 A 
HETATM   20  C   UNL     1      49.491 -29.801  -1.850  1.00  0.00     0.010 A 
HETATM   21  C   UNL     1      50.458 -30.809  -1.796  1.00  0.00     0.019 A 
HETATM   22  C   UNL     1      50.921 -31.260  -0.563  1.00  0.00     0.011 A 
HETATM   23 BR   UNL     1      52.209 -32.640  -0.489  1.00  0.00    -0.051 Br
HETATM   24  C   UNL     1      50.438 -30.699   0.615  1.00  0.00     0.019 A 
HETATM   25  C   UNL     1      49.474 -29.689   0.557  1.00  0.00     0.010 A 
ENDBRANCH   8  19
BRANCH   5  26
HETATM   26  N   UNL     1      43.543 -29.515  -4.238  1.00  0.00    -0.229 N 
HETATM   27  H   UNL     1      42.873 -28.782  -4.427  1.00  0.00     0.174 HD
HETATM   28  H   UNL     1      43.899 -29.994  -5.055  1.00  0.00     0.174 HD
ENDBRANCH   5  26
TORSDOF 4
ENDMDL
MODEL 10
REMARK VINA RESULT:      -6.3      8.778     10.652
REMARK  4 active torsions:
REMARK  status: ('A' for Active; 'I' for Inactive)
REMARK    1  A    between atoms: O_2  and  C_3 
REMARK    2  A    between atoms: C_4  and  C_5 
REMARK    3  A    between atoms: C_9  and  N_10 
REMARK    4  A    between atoms: C_13  and  C_14 
ROOT
HETATM    1  C   UNL     1      39.940  -6.777  13.374  1.00  0.00     0.167 C 
HETATM    2  N   UNL     1      40.733  -6.659  14.597  1.00  0.00    -0.074 N 
HETATM    3  C   UNL     1      41.442  -7.686  15.164  1.00  0.00     0.736 A 
HETATM    4  N   UNL     1      42.050  -7.239  16.232  1.00  0.00     0.131 NA
HETATM    5  C   UNL     1      41.632  -5.944  16.308  1.00  0.00     0.753 A 
HETATM    6  N   UNL     1      40.827  -5.535  15.329  1.00  0.00     0.037 NA
HETATM    7  N   UNL     1      41.444  -8.923  14.633  1.00  0.00    -0.214 N 
HETATM    8  C   UNL     1      40.823  -9.194  13.343  1.00  0.00     0.135 C 
HETATM    9  C   UNL     1      39.598  -8.270  13.160  1.00  0.00     0.063 C 
HETATM   10  H   UNL     1      42.085  -9.617  15.003  1.00  0.00     0.178 HD
ENDROOT
BRANCH   1  11
HETATM   11  C   UNL     1      40.574  -6.100  12.154  1.00  0.00     0.001 A 
HETATM   12  C   UNL     1      39.760  -5.724  11.062  1.00  0.00     0.076 A 
HETATM   13  C   UNL     1      40.329  -5.121   9.932  1.00  0.00     0.037 A 
HETATM   14  C   UNL     1      41.703  -4.892   9.868  1.00  0.00     0.003 A 
HETATM   15  C   UNL     1      42.515  -5.249  10.936  1.00  0.00     0.001 A 
HETATM   16  C   UNL     1      41.956  -5.841  12.069  1.00  0.00     0.012 A 
BRANCH  12  17
HETATM   17  O   UNL     1      38.415  -5.962  11.201  1.00  0.00    -0.355 OA
HETATM   18  C   UNL     1      37.574  -4.830  11.391  1.00  0.00     0.210 C 
ENDBRANCH  12  17
ENDBRANCH   1  11
BRANCH   8  19
HETATM   19  C   UNL     1      41.812  -9.169  12.183  1.00  0.00    -0.035 A 
HETATM   20  C   UNL     1      43.199  -9.035  12.363  1.00  0.00     0.010 A 
HETATM   21  C   UNL     1      44.067  -8.983  11.269  1.00  0.00     0.019 A 
HETATM   22  C   UNL     1      43.559  -9.075   9.976  1.00  0.00     0.011 A 
HETATM   23 BR   UNL     1      44.730  -8.980   8.497  1.00  0.00    -0.051 Br
HETATM   24  C   UNL     1      42.193  -9.236   9.770  1.00  0.00     0.019 A 
HETATM   25  C   UNL     1      41.329  -9.291  10.866  1.00  0.00     0.010 A 
ENDBRANCH   8  19
BRANCH   5  26
HETATM   26  N   UNL     1      42.074  -5.191  17.310  1.00  0.00    -0.229 N 
HETATM   27  H   UNL     1      42.996  -4.789  17.204  1.00  0.00     0.174 HD
HETATM   28  H   UNL     1      41.396  -4.599  17.770  1.00  0.00     0.174 HD
ENDBRANCH   5  26
TORSDOF 4
ENDMDL
