MODEL 1
REMARK VINA RESULT:      -9.3      0.000      0.000
REMARK  3 active torsions:
REMARK  status: ('A' for Active; 'I' for Inactive)
REMARK    1  A    between atoms: C_4  and  N_5 
REMARK       I    between atoms: N_5  and  C_6 
REMARK    2  A    between atoms: C_6  and  C_7 
REMARK    3  A    between atoms: C_7  and  N_8 
ROOT
HETATM    1  N   UNL     1      42.699 -13.301   4.055  1.00  0.00    -0.224 N 
HETATM    2  N   UNL     1      43.004 -13.836   5.322  1.00  0.00    -0.180 NA
HETATM    3  C   UNL     1      43.265 -15.109   5.430  1.00  0.00     0.153 A 
HETATM    4  C   UNL     1      43.228 -15.973   4.285  1.00  0.00     0.028 A 
HETATM    5  C   UNL     1      42.908 -15.437   3.063  1.00  0.00     0.116 A 
HETATM    6  N   UNL     1      42.937 -16.433   2.132  1.00  0.00    -0.350 N 
HETATM    7  H   UNL     1      42.748 -16.308   1.146  1.00  0.00     0.166 HD
HETATM    8  C   UNL     1      43.275 -17.624   2.742  1.00  0.00     0.044 A 
HETATM    9  C   UNL     1      43.468 -17.359   4.103  1.00  0.00     0.005 A 
HETATM   10  C   UNL     1      43.425 -18.902   2.195  1.00  0.00     0.031 A 
HETATM   11  C   UNL     1      43.789 -19.940   3.060  1.00  0.00     0.009 A 
HETATM   12  C   UNL     1      44.008 -19.714   4.423  1.00  0.00    -0.061 A 
HETATM   13  C   UNL     1      44.382 -20.847   5.333  1.00  0.00     0.048 C 
HETATM   14  C   UNL     1      43.836 -18.423   4.953  1.00  0.00     0.021 A 
HETATM   15  C   UNL     1      42.620 -14.048   2.866  1.00  0.00     0.291 A 
HETATM   16  O   UNL     1      42.326 -13.577   1.771  1.00  0.00    -0.264 OA
ENDROOT
BRANCH   1  17
HETATM   17  C   UNL     1      42.535 -11.858   3.975  1.00  0.00     0.258 C 
BRANCH  17  18
HETATM   18  C   UNL     1      43.235 -11.150   5.150  1.00  0.00     0.244 C 
HETATM   19  N   UNL     1      42.392 -10.639   6.165  1.00  0.00    -0.321 N 
HETATM   20  C   UNL     1      40.981 -11.023   6.255  1.00  0.00     0.159 C 
HETATM   21  O   UNL     1      44.467 -11.083   5.182  1.00  0.00    -0.271 OA
BRANCH  19  22
HETATM   22  C   UNL     1      42.911  -9.810   7.234  1.00  0.00     0.037 A 
HETATM   23  C   UNL     1      43.793 -10.314   8.205  1.00  0.00     0.036 A 
HETATM   24  C   UNL     1      44.304  -9.511   9.239  1.00  0.00    -0.060 A 
HETATM   25  C   UNL     1      45.240 -10.084  10.264  1.00  0.00     0.048 C 
HETATM   26  C   UNL     1      43.946  -8.163   9.298  1.00  0.00     0.007 A 
HETATM   27  C   UNL     1      43.091  -7.632   8.340  1.00  0.00     0.003 A 
HETATM   28  C   UNL     1      42.582  -8.445   7.320  1.00  0.00     0.030 A 
ENDBRANCH  19  22
ENDBRANCH  17  18
ENDBRANCH   1  17
TORSDOF 3
ENDMDL
MODEL 2
REMARK VINA RESULT:      -9.2      3.964      6.843
REMARK  3 active torsions:
REMARK  status: ('A' for Active; 'I' for Inactive)
REMARK    1  A    between atoms: C_4  and  N_5 
REMARK       I    between atoms: N_5  and  C_6 
REMARK    2  A    between atoms: C_6  and  C_7 
REMARK    3  A    between atoms: C_7  and  N_8 
ROOT
HETATM    1  N   UNL     1      42.069 -13.059   2.568  1.00  0.00    -0.224 N 
HETATM    2  N   UNL     1      41.979 -13.836   1.396  1.00  0.00    -0.180 NA
HETATM    3  C   UNL     1      42.312 -15.096   1.440  1.00  0.00     0.153 A 
HETATM    4  C   UNL     1      42.785 -15.696   2.655  1.00  0.00     0.028 A 
HETATM    5  C   UNL     1      42.885 -14.917   3.780  1.00  0.00     0.116 A 
HETATM    6  N   UNL     1      43.349 -15.692   4.802  1.00  0.00    -0.350 N 
HETATM    7  H   UNL     1      43.506 -15.367   5.747  1.00  0.00     0.166 HD
HETATM    8  C   UNL     1      43.554 -16.979   4.349  1.00  0.00     0.044 A 
HETATM    9  C   UNL     1      43.200 -17.009   2.995  1.00  0.00     0.005 A 
HETATM   10  C   UNL     1      44.018 -18.108   5.031  1.00  0.00     0.031 A 
HETATM   11  C   UNL     1      44.119 -19.305   4.312  1.00  0.00     0.009 A 
HETATM   12  C   UNL     1      43.760 -19.380   2.963  1.00  0.00    -0.061 A 
HETATM   13  C   UNL     1      43.893 -20.672   2.210  1.00  0.00     0.048 C 
HETATM   14  C   UNL     1      43.310 -18.228   2.294  1.00  0.00     0.021 A 
HETATM   15  C   UNL     1      42.528 -13.531   3.811  1.00  0.00     0.291 A 
HETATM   16  O   UNL     1      42.630 -12.838   4.819  1.00  0.00    -0.264 OA
ENDROOT
BRANCH   1  17
HETATM   17  C   UNL     1      41.572 -11.694   2.489  1.00  0.00     0.258 C 
BRANCH  17  18
HETATM   18  C   UNL     1      40.817 -11.450   1.170  1.00  0.00     0.244 C 
HETATM   19  N   UNL     1      39.474 -11.894   1.125  1.00  0.00    -0.321 N 
HETATM   20  C   UNL     1      38.753 -12.277   2.342  1.00  0.00     0.159 C 
HETATM   21  O   UNL     1      41.377 -10.865   0.238  1.00  0.00    -0.271 OA
BRANCH  19  22
HETATM   22  C   UNL     1      38.710 -11.876  -0.106  1.00  0.00     0.037 A 
HETATM   23  C   UNL     1      38.773 -12.929  -1.035  1.00  0.00     0.036 A 
HETATM   24  C   UNL     1      38.027 -12.918  -2.227  1.00  0.00    -0.060 A 
HETATM   25  C   UNL     1      38.122 -14.057  -3.200  1.00  0.00     0.048 C 
HETATM   26  C   UNL     1      37.180 -11.841  -2.493  1.00  0.00     0.007 A 
HETATM   27  C   UNL     1      37.084 -10.795  -1.584  1.00  0.00     0.003 A 
HETATM   28  C   UNL     1      37.838 -10.814  -0.404  1.00  0.00     0.030 A 
ENDBRANCH  19  22
ENDBRANCH  17  18
ENDBRANCH   1  17
TORSDOF 3
ENDMDL
MODEL 3
REMARK VINA RESULT:      -9.1      3.104      4.249
REMARK  3 active torsions:
REMARK  status: ('A' for Active; 'I' for Inactive)
REMARK    1  A    between atoms: C_4  and  N_5 
REMARK       I    between atoms: N_5  and  C_6 
REMARK    2  A    between atoms: C_6  and  C_7 
REMARK    3  A    between atoms: C_7  and  N_8 
ROOT
HETATM    1  N   UNL     1      44.233 -12.012   5.625  1.00  0.00    -0.224 N 
HETATM    2  N   UNL     1      44.176 -11.354   4.382  1.00  0.00    -0.180 NA
HETATM    3  C   UNL     1      43.430 -11.845   3.433  1.00  0.00     0.153 A 
HETATM    4  C   UNL     1      42.681 -13.055   3.631  1.00  0.00     0.028 A 
HETATM    5  C   UNL     1      42.766 -13.693   4.843  1.00  0.00     0.116 A 
HETATM    6  N   UNL     1      41.978 -14.806   4.801  1.00  0.00    -0.350 N 
HETATM    7  H   UNL     1      41.852 -15.452   5.569  1.00  0.00     0.166 HD
HETATM    8  C   UNL     1      41.376 -14.899   3.563  1.00  0.00     0.044 A 
HETATM    9  C   UNL     1      41.802 -13.801   2.806  1.00  0.00     0.005 A 
HETATM   10  C   UNL     1      40.495 -15.862   3.063  1.00  0.00     0.031 A 
HETATM   11  C   UNL     1      40.027 -15.698   1.755  1.00  0.00     0.009 A 
HETATM   12  C   UNL     1      40.414 -14.606   0.971  1.00  0.00    -0.061 A 
HETATM   13  C   UNL     1      39.911 -14.461  -0.435  1.00  0.00     0.048 C 
HETATM   14  C   UNL     1      41.314 -13.658   1.490  1.00  0.00     0.021 A 
HETATM   15  C   UNL     1      43.556 -13.206   5.933  1.00  0.00     0.291 A 
HETATM   16  O   UNL     1      43.634 -13.788   7.012  1.00  0.00    -0.264 OA
ENDROOT
BRANCH   1  17
HETATM   17  C   UNL     1      44.985 -11.354   6.683  1.00  0.00     0.258 C 
BRANCH  17  18
HETATM   18  C   UNL     1      44.099 -10.372   7.471  1.00  0.00     0.244 C 
HETATM   19  N   UNL     1      44.775  -9.427   8.278  1.00  0.00    -0.321 N 
HETATM   20  C   UNL     1      46.215  -9.192   8.139  1.00  0.00     0.159 C 
HETATM   21  O   UNL     1      42.871 -10.418   7.351  1.00  0.00    -0.271 OA
BRANCH  19  22
HETATM   22  C   UNL     1      44.059  -8.562   9.193  1.00  0.00     0.037 A 
HETATM   23  C   UNL     1      43.884  -8.895  10.547  1.00  0.00     0.036 A 
HETATM   24  C   UNL     1      43.197  -8.054  11.440  1.00  0.00    -0.060 A 
HETATM   25  C   UNL     1      43.023  -8.445  12.879  1.00  0.00     0.048 C 
HETATM   26  C   UNL     1      42.688  -6.840  10.980  1.00  0.00     0.007 A 
HETATM   27  C   UNL     1      42.863  -6.475   9.651  1.00  0.00     0.003 A 
HETATM   28  C   UNL     1      43.542  -7.325   8.770  1.00  0.00     0.030 A 
ENDBRANCH  19  22
ENDBRANCH  17  18
ENDBRANCH   1  17
TORSDOF 3
ENDMDL
MODEL 4
REMARK VINA RESULT:      -9.0      2.912      4.273
REMARK  3 active torsions:
REMARK  status: ('A' for Active; 'I' for Inactive)
REMARK    1  A    between atoms: C_4  and  N_5 
REMARK       I    between atoms: N_5  and  C_6 
REMARK    2  A    between atoms: C_6  and  C_7 
REMARK    3  A    between atoms: C_7  and  N_8 
ROOT
HETATM    1  N   UNL     1      43.426 -11.209   7.087  1.00  0.00    -0.224 N 
HETATM    2  N   UNL     1      44.460 -12.164   7.107  1.00  0.00    -0.180 NA
HETATM    3  C   UNL     1      44.331 -13.259   6.412  1.00  0.00     0.153 A 
HETATM    4  C   UNL     1      43.144 -13.514   5.644  1.00  0.00     0.028 A 
HETATM    5  C   UNL     1      42.138 -12.580   5.655  1.00  0.00     0.116 A 
HETATM    6  N   UNL     1      41.123 -13.030   4.862  1.00  0.00    -0.350 N 
HETATM    7  H   UNL     1      40.262 -12.529   4.688  1.00  0.00     0.166 HD
HETATM    8  C   UNL     1      41.462 -14.258   4.331  1.00  0.00     0.044 A 
HETATM    9  C   UNL     1      42.737 -14.584   4.808  1.00  0.00     0.005 A 
HETATM   10  C   UNL     1      40.742 -15.094   3.473  1.00  0.00     0.031 A 
HETATM   11  C   UNL     1      41.343 -16.296   3.081  1.00  0.00     0.009 A 
HETATM   12  C   UNL     1      42.622 -16.651   3.521  1.00  0.00    -0.061 A 
HETATM   13  C   UNL     1      43.239 -17.953   3.101  1.00  0.00     0.048 C 
HETATM   14  C   UNL     1      43.320 -15.801   4.398  1.00  0.00     0.021 A 
HETATM   15  C   UNL     1      42.215 -11.351   6.385  1.00  0.00     0.291 A 
HETATM   16  O   UNL     1      41.307 -10.525   6.397  1.00  0.00    -0.264 OA
ENDROOT
BRANCH   1  17
HETATM   17  C   UNL     1      43.676  -9.956   7.783  1.00  0.00     0.258 C 
BRANCH  17  18
HETATM   18  C   UNL     1      43.387 -10.086   9.289  1.00  0.00     0.244 C 
HETATM   19  N   UNL     1      42.434  -9.189   9.824  1.00  0.00    -0.321 N 
HETATM   20  C   UNL     1      41.554  -8.399   8.958  1.00  0.00     0.159 C 
HETATM   21  O   UNL     1      43.953 -10.961   9.951  1.00  0.00    -0.271 OA
BRANCH  19  22
HETATM   22  C   UNL     1      42.197  -9.096  11.251  1.00  0.00     0.037 A 
HETATM   23  C   UNL     1      42.879  -8.170  12.059  1.00  0.00     0.036 A 
HETATM   24  C   UNL     1      42.646  -8.072  13.442  1.00  0.00    -0.060 A 
HETATM   25  C   UNL     1      43.397  -7.076  14.276  1.00  0.00     0.048 C 
HETATM   26  C   UNL     1      41.694  -8.903  14.035  1.00  0.00     0.007 A 
HETATM   27  C   UNL     1      40.991  -9.815  13.258  1.00  0.00     0.003 A 
HETATM   28  C   UNL     1      41.238  -9.908  11.882  1.00  0.00     0.030 A 
ENDBRANCH  19  22
ENDBRANCH  17  18
ENDBRANCH   1  17
TORSDOF 3
ENDMDL
MODEL 5
REMARK VINA RESULT:      -8.9      1.646      8.425
REMARK  3 active torsions:
REMARK  status: ('A' for Active; 'I' for Inactive)
REMARK    1  A    between atoms: C_4  and  N_5 
REMARK       I    between atoms: N_5  and  C_6 
REMARK    2  A    between atoms: C_6  and  C_7 
REMARK    3  A    between atoms: C_7  and  N_8 
ROOT
HETATM    1  N   UNL     1      42.160 -12.543   3.116  1.00  0.00    -0.224 N 
HETATM    2  N   UNL     1      43.485 -12.299   3.526  1.00  0.00    -0.180 NA
HETATM    3  C   UNL     1      43.701 -11.616   4.615  1.00  0.00     0.153 A 
HETATM    4  C   UNL     1      42.611 -11.095   5.390  1.00  0.00     0.028 A 
HETATM    5  C   UNL     1      41.327 -11.325   4.963  1.00  0.00     0.116 A 
HETATM    6  N   UNL     1      40.467 -10.744   5.848  1.00  0.00    -0.350 N 
HETATM    7  H   UNL     1      39.458 -10.772   5.775  1.00  0.00     0.166 HD
HETATM    8  C   UNL     1      41.184 -10.132   6.855  1.00  0.00     0.044 A 
HETATM    9  C   UNL     1      42.543 -10.343   6.591  1.00  0.00     0.005 A 
HETATM   10  C   UNL     1      40.736  -9.417   7.970  1.00  0.00     0.031 A 
HETATM   11  C   UNL     1      41.702  -8.908   8.846  1.00  0.00     0.009 A 
HETATM   12  C   UNL     1      43.068  -9.110   8.627  1.00  0.00    -0.061 A 
HETATM   13  C   UNL     1      44.085  -8.540   9.572  1.00  0.00     0.048 C 
HETATM   14  C   UNL     1      43.495  -9.819   7.490  1.00  0.00     0.021 A 
HETATM   15  C   UNL     1      41.014 -12.075   3.785  1.00  0.00     0.291 A 
HETATM   16  O   UNL     1      39.863 -12.269   3.404  1.00  0.00    -0.264 OA
ENDROOT
BRANCH   1  17
HETATM   17  C   UNL     1      41.979 -13.411   1.963  1.00  0.00     0.258 C 
BRANCH  17  18
HETATM   18  C   UNL     1      42.766 -14.724   2.123  1.00  0.00     0.244 C 
HETATM   19  N   UNL     1      42.124 -15.755   2.849  1.00  0.00    -0.321 N 
HETATM   20  C   UNL     1      40.694 -15.696   3.161  1.00  0.00     0.159 C 
HETATM   21  O   UNL     1      43.879 -14.842   1.602  1.00  0.00    -0.271 OA
BRANCH  19  22
HETATM   22  C   UNL     1      42.821 -16.973   3.212  1.00  0.00     0.037 A 
HETATM   23  C   UNL     1      42.883 -18.079   2.348  1.00  0.00     0.036 A 
HETATM   24  C   UNL     1      43.565 -19.259   2.693  1.00  0.00    -0.060 A 
HETATM   25  C   UNL     1      43.606 -20.425   1.748  1.00  0.00     0.048 C 
HETATM   26  C   UNL     1      44.219 -19.334   3.923  1.00  0.00     0.007 A 
HETATM   27  C   UNL     1      44.190 -18.249   4.791  1.00  0.00     0.003 A 
HETATM   28  C   UNL     1      43.501 -17.083   4.438  1.00  0.00     0.030 A 
ENDBRANCH  19  22
ENDBRANCH  17  18
ENDBRANCH   1  17
TORSDOF 3
ENDMDL
MODEL 6
REMARK VINA RESULT:      -8.8      2.806      5.032
REMARK  3 active torsions:
REMARK  status: ('A' for Active; 'I' for Inactive)
REMARK    1  A    between atoms: C_4  and  N_5 
REMARK       I    between atoms: N_5  and  C_6 
REMARK    2  A    between atoms: C_6  and  C_7 
REMARK    3  A    between atoms: C_7  and  N_8 
ROOT
HETATM    1  N   UNL     1      42.772 -13.678   5.144  1.00  0.00    -0.224 N 
HETATM    2  N   UNL     1      42.673 -13.877   3.753  1.00  0.00    -0.180 NA
HETATM    3  C   UNL     1      42.863 -15.070   3.264  1.00  0.00     0.153 A 
HETATM    4  C   UNL     1      43.190 -16.177   4.118  1.00  0.00     0.028 A 
HETATM    5  C   UNL     1      43.304 -15.959   5.468  1.00  0.00     0.116 A 
HETATM    6  N   UNL     1      43.615 -17.142   6.072  1.00  0.00    -0.350 N 
HETATM    7  H   UNL     1      43.746 -17.264   7.067  1.00  0.00     0.166 HD
HETATM    8  C   UNL     1      43.706 -18.136   5.120  1.00  0.00     0.044 A 
HETATM    9  C   UNL     1      43.437 -17.552   3.876  1.00  0.00     0.005 A 
HETATM   10  C   UNL     1      44.001 -19.495   5.266  1.00  0.00     0.031 A 
HETATM   11  C   UNL     1      44.016 -20.284   4.110  1.00  0.00     0.009 A 
HETATM   12  C   UNL     1      43.736 -19.743   2.851  1.00  0.00    -0.061 A 
HETATM   13  C   UNL     1      43.775 -20.608   1.625  1.00  0.00     0.048 C 
HETATM   14  C   UNL     1      43.458 -18.370   2.727  1.00  0.00     0.021 A 
HETATM   15  C   UNL     1      43.098 -14.679   6.076  1.00  0.00     0.291 A 
HETATM   16  O   UNL     1      43.211 -14.490   7.284  1.00  0.00    -0.264 OA
ENDROOT
BRANCH   1  17
HETATM   17  C   UNL     1      42.433 -12.355   5.644  1.00  0.00     0.258 C 
BRANCH  17  18
HETATM   18  C   UNL     1      41.673 -11.535   4.584  1.00  0.00     0.244 C 
HETATM   19  N   UNL     1      40.285 -11.784   4.478  1.00  0.00    -0.321 N 
HETATM   20  C   UNL     1      39.559 -12.536   5.505  1.00  0.00     0.159 C 
HETATM   21  O   UNL     1      42.274 -10.695   3.909  1.00  0.00    -0.271 OA
BRANCH  19  22
HETATM   22  C   UNL     1      39.491 -11.205   3.412  1.00  0.00     0.037 A 
HETATM   23  C   UNL     1      39.342 -11.839   2.167  1.00  0.00     0.036 A 
HETATM   24  C   UNL     1      38.566 -11.284   1.135  1.00  0.00    -0.060 A 
HETATM   25  C   UNL     1      38.433 -11.987  -0.185  1.00  0.00     0.048 C 
HETATM   26  C   UNL     1      37.903 -10.076   1.352  1.00  0.00     0.007 A 
HETATM   27  C   UNL     1      38.018  -9.435   2.579  1.00  0.00     0.003 A 
HETATM   28  C   UNL     1      38.800  -9.994   3.597  1.00  0.00     0.030 A 
ENDBRANCH  19  22
ENDBRANCH  17  18
ENDBRANCH   1  17
TORSDOF 3
ENDMDL
MODEL 7
REMARK VINA RESULT:      -8.7      4.173      6.654
REMARK  3 active torsions:
REMARK  status: ('A' for Active; 'I' for Inactive)
REMARK    1  A    between atoms: C_4  and  N_5 
REMARK       I    between atoms: N_5  and  C_6 
REMARK    2  A    between atoms: C_6  and  C_7 
REMARK    3  A    between atoms: C_7  and  N_8 
ROOT
HETATM    1  N   UNL     1      41.410 -13.121   2.643  1.00  0.00    -0.224 N 
HETATM    2  N   UNL     1      41.207 -13.918   1.500  1.00  0.00    -0.180 NA
HETATM    3  C   UNL     1      41.650 -15.144   1.491  1.00  0.00     0.153 A 
HETATM    4  C   UNL     1      42.356 -15.685   2.618  1.00  0.00     0.028 A 
HETATM    5  C   UNL     1      42.561 -14.886   3.714  1.00  0.00     0.116 A 
HETATM    6  N   UNL     1      43.243 -15.605   4.652  1.00  0.00    -0.350 N 
HETATM    7  H   UNL     1      43.516 -15.255   5.561  1.00  0.00     0.166 HD
HETATM    8  C   UNL     1      43.485 -16.875   4.173  1.00  0.00     0.044 A 
HETATM    9  C   UNL     1      42.930 -16.953   2.890  1.00  0.00     0.005 A 
HETATM   10  C   UNL     1      44.146 -17.951   4.774  1.00  0.00     0.031 A 
HETATM   11  C   UNL     1      44.237 -19.144   4.048  1.00  0.00     0.009 A 
HETATM   12  C   UNL     1      43.682 -19.268   2.771  1.00  0.00    -0.061 A 
HETATM   13  C   UNL     1      43.807 -20.554   2.007  1.00  0.00     0.048 C 
HETATM   14  C   UNL     1      43.036 -18.167   2.180  1.00  0.00     0.021 A 
HETATM   15  C   UNL     1      42.095 -13.535   3.800  1.00  0.00     0.291 A 
HETATM   16  O   UNL     1      42.291 -12.822   4.780  1.00  0.00    -0.264 OA
ENDROOT
BRANCH   1  17
HETATM   17  C   UNL     1      40.790 -11.804   2.643  1.00  0.00     0.258 C 
BRANCH  17  18
HETATM   18  C   UNL     1      41.065 -11.058   1.325  1.00  0.00     0.244 C 
HETATM   19  N   UNL     1      40.013 -11.046   0.380  1.00  0.00    -0.321 N 
HETATM   20  C   UNL     1      38.650 -11.445   0.745  1.00  0.00     0.159 C 
HETATM   21  O   UNL     1      42.146 -10.486   1.155  1.00  0.00    -0.271 OA
BRANCH  19  22
HETATM   22  C   UNL     1      40.202 -10.525  -0.959  1.00  0.00     0.037 A 
HETATM   23  C   UNL     1      39.994  -9.170  -1.265  1.00  0.00     0.036 A 
HETATM   24  C   UNL     1      40.184  -8.659  -2.562  1.00  0.00    -0.060 A 
HETATM   25  C   UNL     1      39.947  -7.207  -2.855  1.00  0.00     0.048 C 
HETATM   26  C   UNL     1      40.613  -9.516  -3.576  1.00  0.00     0.007 A 
HETATM   27  C   UNL     1      40.844 -10.857  -3.299  1.00  0.00     0.003 A 
HETATM   28  C   UNL     1      40.643 -11.355  -2.005  1.00  0.00     0.030 A 
ENDBRANCH  19  22
ENDBRANCH  17  18
ENDBRANCH   1  17
TORSDOF 3
ENDMDL
MODEL 8
REMARK VINA RESULT:      -8.6      2.661      9.511
REMARK  3 active torsions:
REMARK  status: ('A' for Active; 'I' for Inactive)
REMARK    1  A    between atoms: C_4  and  N_5 
REMARK       I    between atoms: N_5  and  C_6 
REMARK    2  A    between atoms: C_6  and  C_7 
REMARK    3  A    between atoms: C_7  and  N_8 
ROOT
HETATM    1  N   UNL     1      43.816 -10.588   7.371  1.00  0.00    -0.224 N 
HETATM    2  N   UNL     1      42.521 -10.063   7.196  1.00  0.00    -0.180 NA
HETATM    3  C   UNL     1      41.960  -9.410   8.174  1.00  0.00     0.153 A 
HETATM    4  C   UNL     1      42.632  -9.235   9.431  1.00  0.00     0.028 A 
HETATM    5  C   UNL     1      43.885  -9.772   9.589  1.00  0.00     0.116 A 
HETATM    6  N   UNL     1      44.323  -9.482  10.848  1.00  0.00    -0.350 N 
HETATM    7  H   UNL     1      45.223  -9.753  11.222  1.00  0.00     0.166 HD
HETATM    8  C   UNL     1      43.360  -8.754  11.516  1.00  0.00     0.044 A 
HETATM    9  C   UNL     1      42.282  -8.581  10.639  1.00  0.00     0.005 A 
HETATM   10  C   UNL     1      43.363  -8.240  12.816  1.00  0.00     0.031 A 
HETATM   11  C   UNL     1      42.237  -7.522  13.233  1.00  0.00     0.009 A 
HETATM   12  C   UNL     1      41.147  -7.312  12.383  1.00  0.00    -0.061 A 
HETATM   13  C   UNL     1      39.943  -6.552  12.860  1.00  0.00     0.048 C 
HETATM   14  C   UNL     1      41.160  -7.853  11.085  1.00  0.00     0.021 A 
HETATM   15  C   UNL     1      44.567 -10.492   8.557  1.00  0.00     0.291 A 
HETATM   16  O   UNL     1      45.685 -10.978   8.709  1.00  0.00    -0.264 OA
ENDROOT
BRANCH   1  17
HETATM   17  C   UNL     1      44.439 -11.201   6.208  1.00  0.00     0.258 C 
BRANCH  17  18
HETATM   18  C   UNL     1      43.848 -12.596   5.929  1.00  0.00     0.244 C 
HETATM   19  N   UNL     1      43.314 -12.802   4.635  1.00  0.00    -0.321 N 
HETATM   20  C   UNL     1      43.579 -11.866   3.539  1.00  0.00     0.159 C 
HETATM   21  O   UNL     1      43.889 -13.468   6.802  1.00  0.00    -0.271 OA
BRANCH  19  22
HETATM   22  C   UNL     1      42.582 -14.007   4.301  1.00  0.00     0.037 A 
HETATM   23  C   UNL     1      43.145 -15.023   3.510  1.00  0.00     0.036 A 
HETATM   24  C   UNL     1      42.440 -16.197   3.190  1.00  0.00    -0.060 A 
HETATM   25  C   UNL     1      43.070 -17.259   2.337  1.00  0.00     0.048 C 
HETATM   26  C   UNL     1      41.149 -16.375   3.688  1.00  0.00     0.007 A 
HETATM   27  C   UNL     1      40.574 -15.396   4.488  1.00  0.00     0.003 A 
HETATM   28  C   UNL     1      41.283 -14.228   4.793  1.00  0.00     0.030 A 
ENDBRANCH  19  22
ENDBRANCH  17  18
ENDBRANCH   1  17
TORSDOF 3
ENDMDL
MODEL 9
REMARK VINA RESULT:      -8.4      4.267      8.989
REMARK  3 active torsions:
REMARK  status: ('A' for Active; 'I' for Inactive)
REMARK    1  A    between atoms: C_4  and  N_5 
REMARK       I    between atoms: N_5  and  C_6 
REMARK    2  A    between atoms: C_6  and  C_7 
REMARK    3  A    between atoms: C_7  and  N_8 
ROOT
HETATM    1  N   UNL     1      40.942 -12.462   2.351  1.00  0.00    -0.224 N 
HETATM    2  N   UNL     1      40.307 -13.031   1.230  1.00  0.00    -0.180 NA
HETATM    3  C   UNL     1      40.300 -12.377   0.102  1.00  0.00     0.153 A 
HETATM    4  C   UNL     1      40.912 -11.083  -0.009  1.00  0.00     0.028 A 
HETATM    5  C   UNL     1      41.507 -10.538   1.100  1.00  0.00     0.116 A 
HETATM    6  N   UNL     1      42.018  -9.319   0.761  1.00  0.00    -0.350 N 
HETATM    7  H   UNL     1      42.518  -8.707   1.392  1.00  0.00     0.166 HD
HETATM    8  C   UNL     1      41.758  -9.064  -0.569  1.00  0.00     0.044 A 
HETATM    9  C   UNL     1      41.063 -10.167  -1.080  1.00  0.00     0.005 A 
HETATM   10  C   UNL     1      42.084  -7.952  -1.351  1.00  0.00     0.031 A 
HETATM   11  C   UNL     1      41.698  -7.967  -2.696  1.00  0.00     0.009 A 
HETATM   12  C   UNL     1      41.017  -9.056  -3.249  1.00  0.00    -0.061 A 
HETATM   13  C   UNL     1      40.598  -9.041  -4.691  1.00  0.00     0.048 C 
HETATM   14  C   UNL     1      40.685 -10.157  -2.439  1.00  0.00     0.021 A 
HETATM   15  C   UNL     1      41.563 -11.201   2.368  1.00  0.00     0.291 A 
HETATM   16  O   UNL     1      42.090 -10.702   3.359  1.00  0.00    -0.264 OA
ENDROOT
BRANCH   1  17
HETATM   17  C   UNL     1      41.023 -13.287   3.547  1.00  0.00     0.258 C 
BRANCH  17  18
HETATM   18  C   UNL     1      42.091 -14.386   3.396  1.00  0.00     0.244 C 
HETATM   19  N   UNL     1      41.663 -15.712   3.642  1.00  0.00    -0.321 N 
HETATM   20  C   UNL     1      40.241 -16.056   3.729  1.00  0.00     0.159 C 
HETATM   21  O   UNL     1      43.236 -14.087   3.047  1.00  0.00    -0.271 OA
BRANCH  19  22
HETATM   22  C   UNL     1      42.604 -16.813   3.698  1.00  0.00     0.037 A 
HETATM   23  C   UNL     1      42.588 -17.853   2.753  1.00  0.00     0.036 A 
HETATM   24  C   UNL     1      43.504 -18.918   2.799  1.00  0.00    -0.060 A 
HETATM   25  C   UNL     1      43.454 -20.016   1.777  1.00  0.00     0.048 C 
HETATM   26  C   UNL     1      44.475 -18.941   3.800  1.00  0.00     0.007 A 
HETATM   27  C   UNL     1      44.527 -17.916   4.738  1.00  0.00     0.003 A 
HETATM   28  C   UNL     1      43.604 -16.865   4.685  1.00  0.00     0.030 A 
ENDBRANCH  19  22
ENDBRANCH  17  18
ENDBRANCH   1  17
TORSDOF 3
ENDMDL
MODEL 10
REMARK VINA RESULT:      -8.4      3.090      8.522
REMARK  3 active torsions:
REMARK  status: ('A' for Active; 'I' for Inactive)
REMARK    1  A    between atoms: C_4  and  N_5 
REMARK       I    between atoms: N_5  and  C_6 
REMARK    2  A    between atoms: C_6  and  C_7 
REMARK    3  A    between atoms: C_7  and  N_8 
ROOT
HETATM    1  N   UNL     1      41.235 -13.721   5.073  1.00  0.00    -0.224 N 
HETATM    2  N   UNL     1      40.474 -12.599   5.453  1.00  0.00    -0.180 NA
HETATM    3  C   UNL     1      41.054 -11.622   6.093  1.00  0.00     0.153 A 
HETATM    4  C   UNL     1      42.448 -11.682   6.431  1.00  0.00     0.028 A 
HETATM    5  C   UNL     1      43.168 -12.793   6.070  1.00  0.00     0.116 A 
HETATM    6  N   UNL     1      44.456 -12.629   6.488  1.00  0.00    -0.350 N 
HETATM    7  H   UNL     1      45.200 -13.298   6.342  1.00  0.00     0.166 HD
HETATM    8  C   UNL     1      44.582 -11.411   7.123  1.00  0.00     0.044 A 
HETATM    9  C   UNL     1      43.328 -10.790   7.096  1.00  0.00     0.005 A 
HETATM   10  C   UNL     1      45.703 -10.817   7.712  1.00  0.00     0.031 A 
HETATM   11  C   UNL     1      45.542  -9.550   8.283  1.00  0.00     0.009 A 
HETATM   12  C   UNL     1      44.310  -8.889   8.263  1.00  0.00    -0.061 A 
HETATM   13  C   UNL     1      44.158  -7.537   8.897  1.00  0.00     0.048 C 
HETATM   14  C   UNL     1      43.192  -9.513   7.679  1.00  0.00     0.021 A 
HETATM   15  C   UNL     1      42.601 -13.898   5.358  1.00  0.00     0.291 A 
HETATM   16  O   UNL     1      43.249 -14.894   5.047  1.00  0.00    -0.264 OA
ENDROOT
BRANCH   1  17
HETATM   17  C   UNL     1      40.565 -14.723   4.259  1.00  0.00     0.258 C 
BRANCH  17  18
HETATM   18  C   UNL     1      40.112 -14.135   2.910  1.00  0.00     0.244 C 
HETATM   19  N   UNL     1      40.840 -14.549   1.770  1.00  0.00    -0.321 N 
HETATM   20  C   UNL     1      41.758 -15.691   1.820  1.00  0.00     0.159 C 
HETATM   21  O   UNL     1      39.141 -13.374   2.865  1.00  0.00    -0.271 OA
BRANCH  19  22
HETATM   22  C   UNL     1      40.624 -13.943   0.472  1.00  0.00     0.037 A 
HETATM   23  C   UNL     1      39.899 -14.594  -0.541  1.00  0.00     0.036 A 
HETATM   24  C   UNL     1      39.680 -14.006  -1.799  1.00  0.00    -0.060 A 
HETATM   25  C   UNL     1      38.906 -14.733  -2.860  1.00  0.00     0.048 C 
HETATM   26  C   UNL     1      40.179 -12.728  -2.051  1.00  0.00     0.007 A 
HETATM   27  C   UNL     1      40.884 -12.052  -1.063  1.00  0.00     0.003 A 
HETATM   28  C   UNL     1      41.102 -12.652   0.184  1.00  0.00     0.030 A 
ENDBRANCH  19  22
ENDBRANCH  17  18
ENDBRANCH   1  17
TORSDOF 3
ENDMDL
