MODEL 1
REMARK VINA RESULT:      -8.3      0.000      0.000
REMARK  6 active torsions:
REMARK  status: ('A' for Active; 'I' for Inactive)
REMARK    1  A    between atoms: C_2  and  N_3 
REMARK    2  A    between atoms: C_5  and  C_6 
REMARK    3  A    between atoms: C_6  and  N_7 
REMARK       I    between atoms: N_7  and  C_8 
REMARK    4  A    between atoms: C_8  and  C_9 
REMARK    5  A    between atoms: C_9  and  C_10 
REMARK    6  A    between atoms: C_11  and  C_12 
ROOT
HETATM    1  C   UNL     1      42.824 -13.921   3.834  1.00  0.00     0.005 A 
HETATM    2  C   UNL     1      42.993 -15.187   4.400  1.00  0.00     0.069 A 
HETATM    3  N   UNL     1      42.915 -14.970   5.758  1.00  0.00    -0.277 N 
HETATM    4  H   UNL     1      43.002 -15.654   6.500  1.00  0.00     0.189 HD
HETATM    5  N   UNL     1      42.715 -13.696   6.106  1.00  0.00    -0.179 NA
HETATM    6  C   UNL     1      42.569 -13.058   4.946  1.00  0.00     0.059 A 
HETATM    7  C   UNL     1      42.203 -11.618   4.960  1.00  0.00     0.073 C 
ENDROOT
BRANCH   1   8
HETATM    8  C   UNL     1      42.841 -13.503   2.397  1.00  0.00     0.146 C 
BRANCH   8   9
HETATM    9  C   UNL     1      41.462 -13.672   1.769  1.00  0.00     0.222 C 
HETATM   10  N   UNL     1      41.394 -14.444   0.632  1.00  0.00    -0.359 N 
HETATM   11  H   UNL     1      42.263 -14.676   0.164  1.00  0.00     0.162 HD
HETATM   12  O   UNL     1      40.427 -13.230   2.271  1.00  0.00    -0.273 OA
BRANCH  10  13
HETATM   13  C   UNL     1      40.150 -14.656  -0.103  1.00  0.00     0.155 C 
BRANCH  13  14
HETATM   14  C   UNL     1      39.793 -13.592  -1.179  1.00  0.00     0.206 C 
HETATM   15  N   UNL     1      38.325 -13.169  -1.102  1.00  0.00    -0.066 N 
HETATM   16  H   UNL     1      37.856 -13.851  -0.467  1.00  0.00     0.280 HD
HETATM   17  C   UNL     1      37.714 -13.372  -2.466  1.00  0.00     0.235 C 
HETATM   18  C   UNL     1      38.588 -14.428  -3.103  1.00  0.00     0.030 C 
HETATM   19  C   UNL     1      39.978 -14.071  -2.619  1.00  0.00     0.036 C 
BRANCH  15  20
HETATM   20  C   UNL     1      38.093 -11.822  -0.484  1.00  0.00     0.231 C 
HETATM   21  C   UNL     1      39.352 -10.977  -0.556  1.00  0.00     0.034 C 
ENDBRANCH  15  20
ENDBRANCH  13  14
ENDBRANCH  10  13
ENDBRANCH   8   9
ENDBRANCH   1   8
BRANCH   2  22
HETATM   22  C   UNL     1      43.202 -16.539   3.861  1.00  0.00    -0.007 A 
HETATM   23  C   UNL     1      42.571 -16.977   2.691  1.00  0.00     0.015 A 
HETATM   24  C   UNL     1      42.799 -18.259   2.176  1.00  0.00     0.024 A 
HETATM   25  C   UNL     1      43.672 -19.123   2.826  1.00  0.00     0.034 A 
HETATM   26 CL   UNL     1      43.964 -20.689   2.185  1.00  0.00    -0.084 Cl
HETATM   27  C   UNL     1      44.307 -18.718   3.994  1.00  0.00     0.024 A 
HETATM   28  C   UNL     1      44.069 -17.438   4.509  1.00  0.00     0.015 A 
ENDBRANCH   2  22
TORSDOF 6
ENDMDL
MODEL 2
REMARK VINA RESULT:      -7.9      0.833      1.614
REMARK  6 active torsions:
REMARK  status: ('A' for Active; 'I' for Inactive)
REMARK    1  A    between atoms: C_2  and  N_3 
REMARK    2  A    between atoms: C_5  and  C_6 
REMARK    3  A    between atoms: C_6  and  N_7 
REMARK       I    between atoms: N_7  and  C_8 
REMARK    4  A    between atoms: C_8  and  C_9 
REMARK    5  A    between atoms: C_9  and  C_10 
REMARK    6  A    between atoms: C_11  and  C_12 
ROOT
HETATM    1  C   UNL     1      42.838 -14.062   4.025  1.00  0.00     0.005 A 
HETATM    2  C   UNL     1      43.061 -15.341   4.539  1.00  0.00     0.069 A 
HETATM    3  N   UNL     1      43.055 -15.168   5.905  1.00  0.00    -0.277 N 
HETATM    4  H   UNL     1      43.194 -15.874   6.619  1.00  0.00     0.189 HD
HETATM    5  N   UNL     1      42.851 -13.911   6.306  1.00  0.00    -0.179 NA
HETATM    6  C   UNL     1      42.630 -13.240   5.176  1.00  0.00     0.059 A 
HETATM    7  C   UNL     1      42.240 -11.808   5.257  1.00  0.00     0.073 C 
ENDROOT
BRANCH   1   8
HETATM    8  C   UNL     1      42.768 -13.599   2.603  1.00  0.00     0.146 C 
BRANCH   8   9
HETATM    9  C   UNL     1      41.411 -13.930   1.993  1.00  0.00     0.222 C 
HETATM   10  N   UNL     1      41.388 -14.181   0.641  1.00  0.00    -0.359 N 
HETATM   11  H   UNL     1      42.208 -13.931   0.099  1.00  0.00     0.162 HD
HETATM   12  O   UNL     1      40.381 -14.062   2.657  1.00  0.00    -0.273 OA
BRANCH  10  13
HETATM   13  C   UNL     1      40.155 -14.467  -0.087  1.00  0.00     0.155 C 
BRANCH  13  14
HETATM   14  C   UNL     1      39.604 -13.326  -0.989  1.00  0.00     0.206 C 
HETATM   15  N   UNL     1      39.803 -13.624  -2.476  1.00  0.00    -0.066 N 
HETATM   16  H   UNL     1      40.449 -14.441  -2.528  1.00  0.00     0.280 HD
HETATM   17  C   UNL     1      40.543 -12.460  -3.086  1.00  0.00     0.235 C 
HETATM   18  C   UNL     1      41.274 -11.841  -1.916  1.00  0.00     0.030 C 
HETATM   19  C   UNL     1      40.286 -11.974  -0.775  1.00  0.00     0.036 C 
BRANCH  15  20
HETATM   20  C   UNL     1      38.561 -14.050  -3.201  1.00  0.00     0.231 C 
HETATM   21  C   UNL     1      37.346 -13.325  -2.651  1.00  0.00     0.034 C 
ENDBRANCH  15  20
ENDBRANCH  13  14
ENDBRANCH  10  13
ENDBRANCH   8   9
ENDBRANCH   1   8
BRANCH   2  22
HETATM   22  C   UNL     1      43.263 -16.672   3.946  1.00  0.00    -0.007 A 
HETATM   23  C   UNL     1      42.620 -17.064   2.766  1.00  0.00     0.015 A 
HETATM   24  C   UNL     1      42.842 -18.325   2.200  1.00  0.00     0.024 A 
HETATM   25  C   UNL     1      43.721 -19.214   2.807  1.00  0.00     0.034 A 
HETATM   26 CL   UNL     1      44.007 -20.754   2.102  1.00  0.00    -0.084 Cl
HETATM   27  C   UNL     1      44.369 -18.854   3.983  1.00  0.00     0.024 A 
HETATM   28  C   UNL     1      44.137 -17.595   4.550  1.00  0.00     0.015 A 
ENDBRANCH   2  22
TORSDOF 6
ENDMDL
MODEL 3
REMARK VINA RESULT:      -7.7      1.668      2.008
REMARK  6 active torsions:
REMARK  status: ('A' for Active; 'I' for Inactive)
REMARK    1  A    between atoms: C_2  and  N_3 
REMARK    2  A    between atoms: C_5  and  C_6 
REMARK    3  A    between atoms: C_6  and  N_7 
REMARK       I    between atoms: N_7  and  C_8 
REMARK    4  A    between atoms: C_8  and  C_9 
REMARK    5  A    between atoms: C_9  and  C_10 
REMARK    6  A    between atoms: C_11  and  C_12 
ROOT
HETATM    1  C   UNL     1      41.742 -12.448   3.419  1.00  0.00     0.005 A 
HETATM    2  C   UNL     1      42.844 -13.291   3.256  1.00  0.00     0.069 A 
HETATM    3  N   UNL     1      43.930 -12.444   3.261  1.00  0.00    -0.277 N 
HETATM    4  H   UNL     1      44.907 -12.689   3.157  1.00  0.00     0.189 HD
HETATM    5  N   UNL     1      43.626 -11.152   3.408  1.00  0.00    -0.179 NA
HETATM    6  C   UNL     1      42.307 -11.145   3.594  1.00  0.00     0.059 A 
HETATM    7  C   UNL     1      41.634  -9.860   3.918  1.00  0.00     0.073 C 
ENDROOT
BRANCH   1   8
HETATM    8  C   UNL     1      40.283 -12.775   3.461  1.00  0.00     0.146 C 
BRANCH   8   9
HETATM    9  C   UNL     1      39.919 -13.764   2.360  1.00  0.00     0.222 C 
HETATM   10  N   UNL     1      40.127 -13.348   1.064  1.00  0.00    -0.359 N 
HETATM   11  H   UNL     1      40.303 -12.361   0.907  1.00  0.00     0.162 HD
HETATM   12  O   UNL     1      39.539 -14.916   2.578  1.00  0.00    -0.273 OA
BRANCH  10  13
HETATM   13  C   UNL     1      39.783 -14.170  -0.092  1.00  0.00     0.155 C 
BRANCH  13  14
HETATM   14  C   UNL     1      39.447 -13.408  -1.406  1.00  0.00     0.206 C 
HETATM   15  N   UNL     1      37.951 -13.118  -1.534  1.00  0.00    -0.066 N 
HETATM   16  H   UNL     1      37.478 -13.684  -0.796  1.00  0.00     0.280 HD
HETATM   17  C   UNL     1      37.484 -13.673  -2.856  1.00  0.00     0.235 C 
HETATM   18  C   UNL     1      38.490 -14.757  -3.171  1.00  0.00     0.030 C 
HETATM   19  C   UNL     1      39.800 -14.173  -2.682  1.00  0.00     0.036 C 
BRANCH  15  20
HETATM   20  C   UNL     1      37.562 -11.696  -1.257  1.00  0.00     0.231 C 
HETATM   21  C   UNL     1      36.876 -11.085  -2.466  1.00  0.00     0.034 C 
ENDBRANCH  15  20
ENDBRANCH  13  14
ENDBRANCH  10  13
ENDBRANCH   8   9
ENDBRANCH   1   8
BRANCH   2  22
HETATM   22  C   UNL     1      43.020 -14.745   3.113  1.00  0.00    -0.007 A 
HETATM   23  C   UNL     1      43.180 -15.353   1.863  1.00  0.00     0.015 A 
HETATM   24  C   UNL     1      43.371 -16.735   1.744  1.00  0.00     0.024 A 
HETATM   25  C   UNL     1      43.411 -17.530   2.883  1.00  0.00     0.034 A 
HETATM   26 CL   UNL     1      43.664 -19.223   2.738  1.00  0.00    -0.084 Cl
HETATM   27  C   UNL     1      43.248 -16.955   4.137  1.00  0.00     0.024 A 
HETATM   28  C   UNL     1      43.048 -15.573   4.250  1.00  0.00     0.015 A 
ENDBRANCH   2  22
TORSDOF 6
ENDMDL
MODEL 4
REMARK VINA RESULT:      -7.7      2.243      5.056
REMARK  6 active torsions:
REMARK  status: ('A' for Active; 'I' for Inactive)
REMARK    1  A    between atoms: C_2  and  N_3 
REMARK    2  A    between atoms: C_5  and  C_6 
REMARK    3  A    between atoms: C_6  and  N_7 
REMARK       I    between atoms: N_7  and  C_8 
REMARK    4  A    between atoms: C_8  and  C_9 
REMARK    5  A    between atoms: C_9  and  C_10 
REMARK    6  A    between atoms: C_11  and  C_12 
ROOT
HETATM    1  C   UNL     1      42.252 -14.801   1.806  1.00  0.00     0.005 A 
HETATM    2  C   UNL     1      41.930 -16.102   2.202  1.00  0.00     0.069 A 
HETATM    3  N   UNL     1      40.629 -16.276   1.787  1.00  0.00    -0.277 N 
HETATM    4  H   UNL     1      40.045 -17.096   1.906  1.00  0.00     0.189 HD
HETATM    5  N   UNL     1      40.095 -15.218   1.171  1.00  0.00    -0.179 NA
HETATM    6  C   UNL     1      41.097 -14.343   1.096  1.00  0.00     0.059 A 
HETATM    7  C   UNL     1      40.890 -13.076   0.347  1.00  0.00     0.073 C 
ENDROOT
BRANCH   1   8
HETATM    8  C   UNL     1      43.515 -14.024   2.002  1.00  0.00     0.146 C 
BRANCH   8   9
HETATM    9  C   UNL     1      43.319 -12.929   3.045  1.00  0.00     0.222 C 
HETATM   10  N   UNL     1      43.212 -13.338   4.355  1.00  0.00    -0.359 N 
HETATM   11  H   UNL     1      43.059 -14.325   4.531  1.00  0.00     0.162 HD
HETATM   12  O   UNL     1      43.337 -11.726   2.780  1.00  0.00    -0.273 OA
BRANCH  10  13
HETATM   13  C   UNL     1      42.976 -12.407   5.454  1.00  0.00     0.155 C 
BRANCH  13  14
HETATM   14  C   UNL     1      41.489 -12.122   5.812  1.00  0.00     0.206 C 
HETATM   15  N   UNL     1      40.554 -13.209   5.281  1.00  0.00    -0.066 N 
HETATM   16  H   UNL     1      41.119 -13.788   4.623  1.00  0.00     0.280 HD
HETATM   17  C   UNL     1      39.492 -12.538   4.446  1.00  0.00     0.235 C 
HETATM   18  C   UNL     1      40.139 -11.244   4.007  1.00  0.00     0.030 C 
HETATM   19  C   UNL     1      40.941 -10.822   5.222  1.00  0.00     0.036 C 
BRANCH  15  20
HETATM   20  C   UNL     1      40.048 -14.164   6.321  1.00  0.00     0.231 C 
HETATM   21  C   UNL     1      41.023 -15.312   6.512  1.00  0.00     0.034 C 
ENDBRANCH  15  20
ENDBRANCH  13  14
ENDBRANCH  10  13
ENDBRANCH   8   9
ENDBRANCH   1   8
BRANCH   2  22
HETATM   22  C   UNL     1      42.657 -17.182   2.886  1.00  0.00    -0.007 A 
HETATM   23  C   UNL     1      43.099 -17.058   4.208  1.00  0.00     0.015 A 
HETATM   24  C   UNL     1      43.767 -18.104   4.855  1.00  0.00     0.024 A 
HETATM   25  C   UNL     1      43.998 -19.300   4.184  1.00  0.00     0.034 A 
HETATM   26 CL   UNL     1      44.802 -20.590   4.984  1.00  0.00    -0.084 Cl
HETATM   27  C   UNL     1      43.576 -19.449   2.869  1.00  0.00     0.024 A 
HETATM   28  C   UNL     1      42.916 -18.396   2.224  1.00  0.00     0.015 A 
ENDBRANCH   2  22
TORSDOF 6
ENDMDL
MODEL 5
REMARK VINA RESULT:      -7.7      2.319      6.267
REMARK  6 active torsions:
REMARK  status: ('A' for Active; 'I' for Inactive)
REMARK    1  A    between atoms: C_2  and  N_3 
REMARK    2  A    between atoms: C_5  and  C_6 
REMARK    3  A    between atoms: C_6  and  N_7 
REMARK       I    between atoms: N_7  and  C_8 
REMARK    4  A    between atoms: C_8  and  C_9 
REMARK    5  A    between atoms: C_9  and  C_10 
REMARK    6  A    between atoms: C_11  and  C_12 
ROOT
HETATM    1  C   UNL     1      42.293 -14.625   1.945  1.00  0.00     0.005 A 
HETATM    2  C   UNL     1      41.972 -15.946   2.267  1.00  0.00     0.069 A 
HETATM    3  N   UNL     1      40.704 -16.125   1.760  1.00  0.00    -0.277 N 
HETATM    4  H   UNL     1      40.129 -16.958   1.808  1.00  0.00     0.189 HD
HETATM    5  N   UNL     1      40.192 -15.052   1.152  1.00  0.00    -0.179 NA
HETATM    6  C   UNL     1      41.180 -14.159   1.178  1.00  0.00     0.059 A 
HETATM    7  C   UNL     1      40.998 -12.865   0.468  1.00  0.00     0.073 C 
ENDROOT
BRANCH   1   8
HETATM    8  C   UNL     1      43.526 -13.836   2.255  1.00  0.00     0.146 C 
BRANCH   8   9
HETATM    9  C   UNL     1      43.201 -12.670   3.183  1.00  0.00     0.222 C 
HETATM   10  N   UNL     1      42.528 -12.976   4.343  1.00  0.00    -0.359 N 
HETATM   11  H   UNL     1      42.108 -13.896   4.418  1.00  0.00     0.162 HD
HETATM   12  O   UNL     1      43.580 -11.515   2.982  1.00  0.00    -0.273 OA
BRANCH  10  13
HETATM   13  C   UNL     1      42.110 -11.958   5.303  1.00  0.00     0.155 C 
BRANCH  13  14
HETATM   14  C   UNL     1      42.898 -11.907   6.643  1.00  0.00     0.206 C 
HETATM   15  N   UNL     1      43.442 -10.507   6.935  1.00  0.00    -0.066 N 
HETATM   16  H   UNL     1      43.325  -9.957   6.057  1.00  0.00     0.280 HD
HETATM   17  C   UNL     1      44.928 -10.628   7.163  1.00  0.00     0.235 C 
HETATM   18  C   UNL     1      45.308 -11.893   6.428  1.00  0.00     0.030 C 
HETATM   19  C   UNL     1      44.130 -12.812   6.680  1.00  0.00     0.036 C 
BRANCH  15  20
HETATM   20  C   UNL     1      42.687  -9.748   7.986  1.00  0.00     0.231 C 
HETATM   21  C   UNL     1      43.226  -8.335   8.116  1.00  0.00     0.034 C 
ENDBRANCH  15  20
ENDBRANCH  13  14
ENDBRANCH  10  13
ENDBRANCH   8   9
ENDBRANCH   1   8
BRANCH   2  22
HETATM   22  C   UNL     1      42.672 -17.041   2.956  1.00  0.00    -0.007 A 
HETATM   23  C   UNL     1      43.010 -16.969   4.312  1.00  0.00     0.015 A 
HETATM   24  C   UNL     1      43.654 -18.030   4.960  1.00  0.00     0.024 A 
HETATM   25  C   UNL     1      43.965 -19.187   4.256  1.00  0.00     0.034 A 
HETATM   26 CL   UNL     1      44.740 -20.495   5.055  1.00  0.00    -0.084 Cl
HETATM   27  C   UNL     1      43.648 -19.284   2.906  1.00  0.00     0.024 A 
HETATM   28  C   UNL     1      43.012 -18.217   2.261  1.00  0.00     0.015 A 
ENDBRANCH   2  22
TORSDOF 6
ENDMDL
MODEL 6
REMARK VINA RESULT:      -7.7      3.843      6.903
REMARK  6 active torsions:
REMARK  status: ('A' for Active; 'I' for Inactive)
REMARK    1  A    between atoms: C_2  and  N_3 
REMARK    2  A    between atoms: C_5  and  C_6 
REMARK    3  A    between atoms: C_6  and  N_7 
REMARK       I    between atoms: N_7  and  C_8 
REMARK    4  A    between atoms: C_8  and  C_9 
REMARK    5  A    between atoms: C_9  and  C_10 
REMARK    6  A    between atoms: C_11  and  C_12 
ROOT
HETATM    1  C   UNL     1      43.297 -18.035   4.491  1.00  0.00     0.005 A 
HETATM    2  C   UNL     1      43.029 -17.484   3.235  1.00  0.00     0.069 A 
HETATM    3  N   UNL     1      43.621 -18.352   2.345  1.00  0.00    -0.277 N 
HETATM    4  H   UNL     1      43.647 -18.281   1.335  1.00  0.00     0.189 HD
HETATM    5  N   UNL     1      44.236 -19.394   2.911  1.00  0.00    -0.179 NA
HETATM    6  C   UNL     1      43.974 -19.263   4.210  1.00  0.00     0.059 A 
HETATM    7  C   UNL     1      44.409 -20.336   5.143  1.00  0.00     0.073 C 
ENDROOT
BRANCH   1   8
HETATM    8  C   UNL     1      42.941 -17.531   5.855  1.00  0.00     0.146 C 
BRANCH   8   9
HETATM    9  C   UNL     1      43.830 -16.356   6.245  1.00  0.00     0.222 C 
HETATM   10  N   UNL     1      43.190 -15.196   6.617  1.00  0.00    -0.359 N 
HETATM   11  H   UNL     1      42.199 -15.116   6.414  1.00  0.00     0.162 HD
HETATM   12  O   UNL     1      45.058 -16.427   6.321  1.00  0.00    -0.273 OA
BRANCH  10  13
HETATM   13  C   UNL     1      43.911 -13.977   6.973  1.00  0.00     0.155 C 
BRANCH  13  14
HETATM   14  C   UNL     1      43.598 -12.715   6.119  1.00  0.00     0.206 C 
HETATM   15  N   UNL     1      42.806 -11.671   6.908  1.00  0.00    -0.066 N 
HETATM   16  H   UNL     1      42.486 -12.143   7.781  1.00  0.00     0.280 HD
HETATM   17  C   UNL     1      41.561 -11.346   6.122  1.00  0.00     0.235 C 
HETATM   18  C   UNL     1      41.338 -12.573   5.269  1.00  0.00     0.030 C 
HETATM   19  C   UNL     1      42.742 -12.992   4.883  1.00  0.00     0.036 C 
BRANCH  15  20
HETATM   20  C   UNL     1      43.609 -10.489   7.363  1.00  0.00     0.231 C 
HETATM   21  C   UNL     1      45.091 -10.731   7.140  1.00  0.00     0.034 C 
ENDBRANCH  15  20
ENDBRANCH  13  14
ENDBRANCH  10  13
ENDBRANCH   8   9
ENDBRANCH   1   8
BRANCH   2  22
HETATM   22  C   UNL     1      42.304 -16.294   2.763  1.00  0.00    -0.007 A 
HETATM   23  C   UNL     1      42.908 -15.333   1.944  1.00  0.00     0.015 A 
HETATM   24  C   UNL     1      42.198 -14.219   1.481  1.00  0.00     0.024 A 
HETATM   25  C   UNL     1      40.863 -14.054   1.830  1.00  0.00     0.034 A 
HETATM   26 CL   UNL     1      39.987 -12.696   1.248  1.00  0.00    -0.084 Cl
HETATM   27  C   UNL     1      40.239 -14.987   2.649  1.00  0.00     0.024 A 
HETATM   28  C   UNL     1      40.956 -16.095   3.115  1.00  0.00     0.015 A 
ENDBRANCH   2  22
TORSDOF 6
ENDMDL
MODEL 7
REMARK VINA RESULT:      -7.5      2.703      4.430
REMARK  6 active torsions:
REMARK  status: ('A' for Active; 'I' for Inactive)
REMARK    1  A    between atoms: C_2  and  N_3 
REMARK    2  A    between atoms: C_5  and  C_6 
REMARK    3  A    between atoms: C_6  and  N_7 
REMARK       I    between atoms: N_7  and  C_8 
REMARK    4  A    between atoms: C_8  and  C_9 
REMARK    5  A    between atoms: C_9  and  C_10 
REMARK    6  A    between atoms: C_11  and  C_12 
ROOT
HETATM    1  C   UNL     1      43.191 -16.033   3.429  1.00  0.00     0.005 A 
HETATM    2  C   UNL     1      43.203 -15.540   4.736  1.00  0.00     0.069 A 
HETATM    3  N   UNL     1      43.368 -16.657   5.523  1.00  0.00    -0.277 N 
HETATM    4  H   UNL     1      43.415 -16.701   6.535  1.00  0.00     0.189 HD
HETATM    5  N   UNL     1      43.461 -17.805   4.847  1.00  0.00    -0.179 NA
HETATM    6  C   UNL     1      43.443 -17.433   3.568  1.00  0.00     0.059 A 
HETATM    7  C   UNL     1      43.655 -18.464   2.518  1.00  0.00     0.073 C 
ENDROOT
BRANCH   1   8
HETATM    8  C   UNL     1      43.013 -15.307   2.132  1.00  0.00     0.146 C 
BRANCH   8   9
HETATM    9  C   UNL     1      41.550 -15.324   1.701  1.00  0.00     0.222 C 
HETATM   10  N   UNL     1      41.266 -14.792   0.464  1.00  0.00    -0.359 N 
HETATM   11  H   UNL     1      41.986 -14.240   0.010  1.00  0.00     0.162 HD
HETATM   12  O   UNL     1      40.654 -15.856   2.358  1.00  0.00    -0.273 OA
BRANCH  10  13
HETATM   13  C   UNL     1      39.907 -14.699  -0.060  1.00  0.00     0.155 C 
BRANCH  13  14
HETATM   14  C   UNL     1      39.668 -13.646  -1.180  1.00  0.00     0.206 C 
HETATM   15  N   UNL     1      38.210 -13.187  -1.234  1.00  0.00    -0.066 N 
HETATM   16  H   UNL     1      37.672 -13.846  -0.631  1.00  0.00     0.280 HD
HETATM   17  C   UNL     1      37.712 -13.400  -2.642  1.00  0.00     0.235 C 
HETATM   18  C   UNL     1      38.609 -14.487  -3.185  1.00  0.00     0.030 C 
HETATM   19  C   UNL     1      39.963 -14.155  -2.591  1.00  0.00     0.036 C 
BRANCH  15  20
HETATM   20  C   UNL     1      37.961 -11.824  -0.660  1.00  0.00     0.231 C 
HETATM   21  C   UNL     1      39.028 -10.847  -1.119  1.00  0.00     0.034 C 
ENDBRANCH  15  20
ENDBRANCH  13  14
ENDBRANCH  10  13
ENDBRANCH   8   9
ENDBRANCH   1   8
BRANCH   2  22
HETATM   22  C   UNL     1      43.095 -14.201   5.336  1.00  0.00    -0.007 A 
HETATM   23  C   UNL     1      43.864 -13.819   6.441  1.00  0.00     0.015 A 
HETATM   24  C   UNL     1      43.770 -12.532   6.985  1.00  0.00     0.024 A 
HETATM   25  C   UNL     1      42.902 -11.603   6.423  1.00  0.00     0.034 A 
HETATM   26 CL   UNL     1      42.798 -10.020   7.080  1.00  0.00    -0.084 Cl
HETATM   27  C   UNL     1      42.120 -11.957   5.329  1.00  0.00     0.024 A 
HETATM   28  C   UNL     1      42.213 -13.248   4.794  1.00  0.00     0.015 A 
ENDBRANCH   2  22
TORSDOF 6
ENDMDL
MODEL 8
REMARK VINA RESULT:      -7.5      3.031      6.198
REMARK  6 active torsions:
REMARK  status: ('A' for Active; 'I' for Inactive)
REMARK    1  A    between atoms: C_2  and  N_3 
REMARK    2  A    between atoms: C_5  and  C_6 
REMARK    3  A    between atoms: C_6  and  N_7 
REMARK       I    between atoms: N_7  and  C_8 
REMARK    4  A    between atoms: C_8  and  C_9 
REMARK    5  A    between atoms: C_9  and  C_10 
REMARK    6  A    between atoms: C_11  and  C_12 
ROOT
HETATM    1  C   UNL     1      41.696 -14.775   3.235  1.00  0.00     0.005 A 
HETATM    2  C   UNL     1      42.671 -15.671   2.791  1.00  0.00     0.069 A 
HETATM    3  N   UNL     1      43.211 -15.067   1.677  1.00  0.00    -0.277 N 
HETATM    4  H   UNL     1      43.944 -15.421   1.074  1.00  0.00     0.189 HD
HETATM    5  N   UNL     1      42.675 -13.882   1.372  1.00  0.00    -0.179 NA
HETATM    6  C   UNL     1      41.813 -13.649   2.361  1.00  0.00     0.059 A 
HETATM    7  C   UNL     1      41.114 -12.338   2.410  1.00  0.00     0.073 C 
ENDROOT
BRANCH   1   8
HETATM    8  C   UNL     1      40.748 -14.884   4.388  1.00  0.00     0.146 C 
BRANCH   8   9
HETATM    9  C   UNL     1      41.310 -14.181   5.618  1.00  0.00     0.222 C 
HETATM   10  N   UNL     1      42.671 -14.256   5.803  1.00  0.00    -0.359 N 
HETATM   11  H   UNL     1      43.187 -14.932   5.249  1.00  0.00     0.162 HD
HETATM   12  O   UNL     1      40.627 -13.497   6.382  1.00  0.00    -0.273 OA
BRANCH  10  13
HETATM   13  C   UNL     1      43.344 -13.670   6.958  1.00  0.00     0.155 C 
BRANCH  13  14
HETATM   14  C   UNL     1      43.977 -12.264   6.750  1.00  0.00     0.206 C 
HETATM   15  N   UNL     1      43.301 -11.198   7.614  1.00  0.00    -0.066 N 
HETATM   16  H   UNL     1      42.433 -11.634   7.994  1.00  0.00     0.280 HD
HETATM   17  C   UNL     1      42.851 -10.084   6.703  1.00  0.00     0.235 C 
HETATM   18  C   UNL     1      42.706 -10.752   5.355  1.00  0.00     0.030 C 
HETATM   19  C   UNL     1      43.862 -11.731   5.322  1.00  0.00     0.036 C 
BRANCH  15  20
HETATM   20  C   UNL     1      44.092 -10.771   8.815  1.00  0.00     0.231 C 
HETATM   21  C   UNL     1      45.537 -10.505   8.436  1.00  0.00     0.034 C 
ENDBRANCH  15  20
ENDBRANCH  13  14
ENDBRANCH  10  13
ENDBRANCH   8   9
ENDBRANCH   1   8
BRANCH   2  22
HETATM   22  C   UNL     1      43.165 -16.976   3.257  1.00  0.00    -0.007 A 
HETATM   23  C   UNL     1      43.653 -17.163   4.556  1.00  0.00     0.015 A 
HETATM   24  C   UNL     1      44.096 -18.417   4.994  1.00  0.00     0.024 A 
HETATM   25  C   UNL     1      44.049 -19.508   4.134  1.00  0.00     0.034 A 
HETATM   26 CL   UNL     1      44.576 -21.050   4.677  1.00  0.00    -0.084 Cl
HETATM   27  C   UNL     1      43.576 -19.350   2.837  1.00  0.00     0.024 A 
HETATM   28  C   UNL     1      43.143 -18.092   2.402  1.00  0.00     0.015 A 
ENDBRANCH   2  22
TORSDOF 6
ENDMDL
MODEL 9
REMARK VINA RESULT:      -7.4      2.938      4.856
REMARK  6 active torsions:
REMARK  status: ('A' for Active; 'I' for Inactive)
REMARK    1  A    between atoms: C_2  and  N_3 
REMARK    2  A    between atoms: C_5  and  C_6 
REMARK    3  A    between atoms: C_6  and  N_7 
REMARK       I    between atoms: N_7  and  C_8 
REMARK    4  A    between atoms: C_8  and  C_9 
REMARK    5  A    between atoms: C_9  and  C_10 
REMARK    6  A    between atoms: C_11  and  C_12 
ROOT
HETATM    1  C   UNL     1      43.310 -16.480   3.468  1.00  0.00     0.005 A 
HETATM    2  C   UNL     1      43.237 -15.958   4.762  1.00  0.00     0.069 A 
HETATM    3  N   UNL     1      43.331 -17.060   5.583  1.00  0.00    -0.277 N 
HETATM    4  H   UNL     1      43.306 -17.082   6.595  1.00  0.00     0.189 HD
HETATM    5  N   UNL     1      43.454 -18.223   4.939  1.00  0.00    -0.179 NA
HETATM    6  C   UNL     1      43.531 -17.880   3.654  1.00  0.00     0.059 A 
HETATM    7  C   UNL     1      43.801 -18.937   2.644  1.00  0.00     0.073 C 
ENDROOT
BRANCH   1   8
HETATM    8  C   UNL     1      43.233 -15.781   2.147  1.00  0.00     0.146 C 
BRANCH   8   9
HETATM    9  C   UNL     1      41.782 -15.617   1.707  1.00  0.00     0.222 C 
HETATM   10  N   UNL     1      41.564 -14.880   0.566  1.00  0.00    -0.359 N 
HETATM   11  H   UNL     1      42.333 -14.323   0.208  1.00  0.00     0.162 HD
HETATM   12  O   UNL     1      40.835 -16.172   2.266  1.00  0.00    -0.273 OA
BRANCH  10  13
HETATM   13  C   UNL     1      40.226 -14.601   0.051  1.00  0.00     0.155 C 
BRANCH  13  14
HETATM   14  C   UNL     1      39.761 -13.118   0.102  1.00  0.00     0.206 C 
HETATM   15  N   UNL     1      40.779 -12.175  -0.542  1.00  0.00    -0.066 N 
HETATM   16  H   UNL     1      41.647 -12.734  -0.687  1.00  0.00     0.280 HD
HETATM   17  C   UNL     1      41.125 -11.110   0.467  1.00  0.00     0.235 C 
HETATM   18  C   UNL     1      40.820 -11.758   1.799  1.00  0.00     0.030 C 
HETATM   19  C   UNL     1      39.573 -12.569   1.517  1.00  0.00     0.036 C 
BRANCH  15  20
HETATM   20  C   UNL     1      40.394 -11.674  -1.903  1.00  0.00     0.231 C 
HETATM   21  C   UNL     1      41.049 -12.513  -2.986  1.00  0.00     0.034 C 
ENDBRANCH  15  20
ENDBRANCH  13  14
ENDBRANCH  10  13
ENDBRANCH   8   9
ENDBRANCH   1   8
BRANCH   2  22
HETATM   22  C   UNL     1      43.107 -14.605   5.324  1.00  0.00    -0.007 A 
HETATM   23  C   UNL     1      43.868 -14.180   6.419  1.00  0.00     0.015 A 
HETATM   24  C   UNL     1      43.752 -12.881   6.927  1.00  0.00     0.024 A 
HETATM   25  C   UNL     1      42.871 -11.982   6.338  1.00  0.00     0.034 A 
HETATM   26 CL   UNL     1      42.741 -10.382   6.950  1.00  0.00    -0.084 Cl
HETATM   27  C   UNL     1      42.098 -12.378   5.253  1.00  0.00     0.024 A 
HETATM   28  C   UNL     1      42.212 -13.681   4.755  1.00  0.00     0.015 A 
ENDBRANCH   2  22
TORSDOF 6
ENDMDL
MODEL 10
REMARK VINA RESULT:      -7.3      1.292      1.802
REMARK  6 active torsions:
REMARK  status: ('A' for Active; 'I' for Inactive)
REMARK    1  A    between atoms: C_2  and  N_3 
REMARK    2  A    between atoms: C_5  and  C_6 
REMARK    3  A    between atoms: C_6  and  N_7 
REMARK       I    between atoms: N_7  and  C_8 
REMARK    4  A    between atoms: C_8  and  C_9 
REMARK    5  A    between atoms: C_9  and  C_10 
REMARK    6  A    between atoms: C_11  and  C_12 
ROOT
HETATM    1  C   UNL     1      40.979 -14.514   3.815  1.00  0.00     0.005 A 
HETATM    2  C   UNL     1      42.002 -15.367   4.235  1.00  0.00     0.069 A 
HETATM    3  N   UNL     1      42.483 -14.786   5.387  1.00  0.00    -0.277 N 
HETATM    4  H   UNL     1      43.240 -15.113   5.977  1.00  0.00     0.189 HD
HETATM    5  N   UNL     1      41.869 -13.653   5.737  1.00  0.00    -0.179 NA
HETATM    6  C   UNL     1      40.893 -13.520   4.839  1.00  0.00     0.059 A 
HETATM    7  C   UNL     1      39.916 -12.411   5.000  1.00  0.00     0.073 C 
ENDROOT
BRANCH   1   8
HETATM    8  C   UNL     1      40.099 -14.594   2.607  1.00  0.00     0.146 C 
BRANCH   8   9
HETATM    9  C   UNL     1      40.761 -13.917   1.412  1.00  0.00     0.222 C 
HETATM   10  N   UNL     1      40.352 -12.634   1.126  1.00  0.00    -0.359 N 
HETATM   11  H   UNL     1      39.508 -12.296   1.576  1.00  0.00     0.162 HD
HETATM   12  O   UNL     1      41.680 -14.423   0.765  1.00  0.00    -0.273 OA
BRANCH  10  13
HETATM   13  C   UNL     1      40.864 -11.879  -0.013  1.00  0.00     0.155 C 
BRANCH  13  14
HETATM   14  C   UNL     1      40.007 -11.919  -1.310  1.00  0.00     0.206 C 
HETATM   15  N   UNL     1      38.604 -12.472  -1.053  1.00  0.00    -0.066 N 
HETATM   16  H   UNL     1      38.621 -12.884  -0.096  1.00  0.00     0.280 HD
HETATM   17  C   UNL     1      38.380 -13.621  -2.004  1.00  0.00     0.235 C 
HETATM   18  C   UNL     1      39.776 -14.099  -2.333  1.00  0.00     0.030 C 
HETATM   19  C   UNL     1      40.577 -12.815  -2.411  1.00  0.00     0.036 C 
BRANCH  15  20
HETATM   20  C   UNL     1      37.518 -11.437  -1.024  1.00  0.00     0.231 C 
HETATM   21  C   UNL     1      37.188 -11.049   0.405  1.00  0.00     0.034 C 
ENDBRANCH  15  20
ENDBRANCH  13  14
ENDBRANCH  10  13
ENDBRANCH   8   9
ENDBRANCH   1   8
BRANCH   2  22
HETATM   22  C   UNL     1      42.571 -16.626   3.728  1.00  0.00    -0.007 A 
HETATM   23  C   UNL     1      43.581 -17.313   4.413  1.00  0.00     0.015 A 
HETATM   24  C   UNL     1      44.094 -18.523   3.931  1.00  0.00     0.024 A 
HETATM   25  C   UNL     1      43.597 -19.067   2.753  1.00  0.00     0.034 A 
HETATM   26 CL   UNL     1      44.216 -20.560   2.171  1.00  0.00    -0.084 Cl
HETATM   27  C   UNL     1      42.600 -18.403   2.048  1.00  0.00     0.024 A 
HETATM   28  C   UNL     1      42.096 -17.190   2.530  1.00  0.00     0.015 A 
ENDBRANCH   2  22
TORSDOF 6
ENDMDL
