MODEL 1
REMARK VINA RESULT:      -9.0      0.000      0.000
REMARK  3 active torsions:
REMARK  status: ('A' for Active; 'I' for Inactive)
REMARK    1  A    between atoms: N_12  and  C_13 
REMARK    2  A    between atoms: C_13  and  C_14 
REMARK       I    between atoms: C_14  and  N_15 
REMARK    3  A    between atoms: N_15  and  C_16 
ROOT
HETATM    1  C   UNL     1      43.091  -7.135  14.469  1.00  0.00     0.048 C 
HETATM    2  C   UNL     1      42.762  -7.420  13.032  1.00  0.00    -0.061 A 
HETATM    3  C   UNL     1      43.540  -8.320  12.287  1.00  0.00     0.021 A 
HETATM    4  C   UNL     1      43.214  -8.580  10.939  1.00  0.00     0.005 A 
HETATM    5  C   UNL     1      42.112  -7.929  10.375  1.00  0.00     0.044 A 
HETATM    6  N   UNL     1      42.005  -8.355   9.065  1.00  0.00    -0.350 N 
HETATM    7  H   UNL     1      41.295  -8.061   8.406  1.00  0.00     0.166 HD
HETATM    8  C   UNL     1      43.001  -9.248   8.793  1.00  0.00     0.116 A 
HETATM    9  C   UNL     1      43.758  -9.406   9.926  1.00  0.00     0.028 A 
HETATM   10  C   UNL     1      43.261  -9.948   7.568  1.00  0.00     0.291 A 
HETATM   11  O   UNL     1      42.564  -9.820   6.567  1.00  0.00    -0.264 OA
HETATM   12  N   UNL     1      44.399 -10.775   7.644  1.00  0.00    -0.224 N 
HETATM   13  N   UNL     1      45.165 -10.969   8.813  1.00  0.00    -0.180 NA
HETATM   14  C   UNL     1      44.867 -10.315   9.898  1.00  0.00     0.153 A 
HETATM   15  C   UNL     1      41.322  -7.028  11.097  1.00  0.00     0.031 A 
HETATM   16  C   UNL     1      41.668  -6.788  12.432  1.00  0.00     0.009 A 
ENDROOT
BRANCH  12  17
HETATM   17  C   UNL     1      44.700 -11.656   6.527  1.00  0.00     0.258 C 
BRANCH  17  18
HETATM   18  C   UNL     1      43.780 -12.840   6.181  1.00  0.00     0.244 C 
HETATM   19  N   UNL     1      43.142 -12.918   4.942  1.00  0.00    -0.320 N 
HETATM   20  C   UNL     1      43.292 -11.936   3.874  1.00  0.00     0.159 C 
HETATM   21  O   UNL     1      43.739 -13.772   6.999  1.00  0.00    -0.271 OA
BRANCH  19  22
HETATM   22  C   UNL     1      42.497 -14.136   4.555  1.00  0.00     0.043 A 
HETATM   23  C   UNL     1      41.163 -14.409   4.912  1.00  0.00    -0.035 A 
HETATM   24  C   UNL     1      40.378 -13.532   5.846  1.00  0.00     0.050 C 
HETATM   25  C   UNL     1      40.543 -15.556   4.388  1.00  0.00     0.009 A 
HETATM   26  C   UNL     1      41.238 -16.430   3.549  1.00  0.00     0.007 A 
HETATM   27  C   UNL     1      42.573 -16.187   3.226  1.00  0.00    -0.060 A 
HETATM   28  C   UNL     1      43.323 -17.096   2.298  1.00  0.00     0.048 C 
HETATM   29  C   UNL     1      43.193 -15.038   3.733  1.00  0.00     0.037 A 
ENDBRANCH  19  22
ENDBRANCH  17  18
ENDBRANCH  12  17
TORSDOF 3
ENDMDL
MODEL 2
REMARK VINA RESULT:      -9.0      6.866      9.674
REMARK  3 active torsions:
REMARK  status: ('A' for Active; 'I' for Inactive)
REMARK    1  A    between atoms: N_12  and  C_13 
REMARK    2  A    between atoms: C_13  and  C_14 
REMARK       I    between atoms: C_14  and  N_15 
REMARK    3  A    between atoms: N_15  and  C_16 
ROOT
HETATM    1  C   UNL     1      42.146  -6.209  -3.242  1.00  0.00     0.048 C 
HETATM    2  C   UNL     1      41.733  -7.644  -3.093  1.00  0.00    -0.061 A 
HETATM    3  C   UNL     1      41.832  -8.291  -1.850  1.00  0.00     0.021 A 
HETATM    4  C   UNL     1      41.434  -9.638  -1.727  1.00  0.00     0.005 A 
HETATM    5  C   UNL     1      40.945 -10.303  -2.856  1.00  0.00     0.044 A 
HETATM    6  N   UNL     1      40.623 -11.590  -2.473  1.00  0.00    -0.350 N 
HETATM    7  H   UNL     1      40.237 -12.306  -3.077  1.00  0.00     0.166 HD
HETATM    8  C   UNL     1      40.894 -11.752  -1.145  1.00  0.00     0.116 A 
HETATM    9  C   UNL     1      41.392 -10.570  -0.661  1.00  0.00     0.028 A 
HETATM   10  C   UNL     1      40.704 -12.918  -0.332  1.00  0.00     0.291 A 
HETATM   11  O   UNL     1      40.235 -13.965  -0.767  1.00  0.00    -0.264 OA
HETATM   12  N   UNL     1      41.125 -12.729   0.999  1.00  0.00    -0.224 N 
HETATM   13  N   UNL     1      41.607 -11.507   1.515  1.00  0.00    -0.180 NA
HETATM   14  C   UNL     1      41.743 -10.481   0.727  1.00  0.00     0.153 A 
HETATM   15  C   UNL     1      40.836  -9.681  -4.105  1.00  0.00     0.031 A 
HETATM   16  C   UNL     1      41.238  -8.343  -4.200  1.00  0.00     0.009 A 
ENDROOT
BRANCH  12  17
HETATM   17  C   UNL     1      40.858 -13.775   1.974  1.00  0.00     0.258 C 
BRANCH  17  18
HETATM   18  C   UNL     1      41.960 -14.759   2.403  1.00  0.00     0.244 C 
HETATM   19  N   UNL     1      41.683 -15.817   3.271  1.00  0.00    -0.320 N 
HETATM   20  C   UNL     1      40.365 -16.106   3.824  1.00  0.00     0.159 C 
HETATM   21  O   UNL     1      43.061 -14.642   1.843  1.00  0.00    -0.271 OA
BRANCH  19  22
HETATM   22  C   UNL     1      42.655 -16.851   3.456  1.00  0.00     0.043 A 
HETATM   23  C   UNL     1      43.521 -16.859   4.565  1.00  0.00    -0.035 A 
HETATM   24  C   UNL     1      43.601 -15.717   5.539  1.00  0.00     0.050 C 
HETATM   25  C   UNL     1      44.358 -17.970   4.764  1.00  0.00     0.009 A 
HETATM   26  C   UNL     1      44.358 -19.041   3.867  1.00  0.00     0.007 A 
HETATM   27  C   UNL     1      43.532 -19.019   2.743  1.00  0.00    -0.060 A 
HETATM   28  C   UNL     1      43.494 -20.176   1.790  1.00  0.00     0.048 C 
HETATM   29  C   UNL     1      42.685 -17.922   2.546  1.00  0.00     0.037 A 
ENDBRANCH  19  22
ENDBRANCH  17  18
ENDBRANCH  12  17
TORSDOF 3
ENDMDL
MODEL 3
REMARK VINA RESULT:      -8.8      1.292      1.908
REMARK  3 active torsions:
REMARK  status: ('A' for Active; 'I' for Inactive)
REMARK    1  A    between atoms: N_12  and  C_13 
REMARK    2  A    between atoms: C_13  and  C_14 
REMARK       I    between atoms: C_14  and  N_15 
REMARK    3  A    between atoms: N_15  and  C_16 
ROOT
HETATM    1  C   UNL     1      40.227  -6.036  13.208  1.00  0.00     0.048 C 
HETATM    2  C   UNL     1      41.310  -6.936  12.688  1.00  0.00    -0.061 A 
HETATM    3  C   UNL     1      41.222  -7.487  11.399  1.00  0.00     0.021 A 
HETATM    4  C   UNL     1      42.251  -8.327  10.924  1.00  0.00     0.005 A 
HETATM    5  C   UNL     1      43.344  -8.591  11.756  1.00  0.00     0.044 A 
HETATM    6  N   UNL     1      44.201  -9.423  11.063  1.00  0.00    -0.350 N 
HETATM    7  H   UNL     1      45.084  -9.779  11.408  1.00  0.00     0.166 HD
HETATM    8  C   UNL     1      43.682  -9.687   9.828  1.00  0.00     0.116 A 
HETATM    9  C   UNL     1      42.485  -9.026   9.715  1.00  0.00     0.028 A 
HETATM   10  C   UNL     1      44.240 -10.490   8.779  1.00  0.00     0.291 A 
HETATM   11  O   UNL     1      45.323 -11.058   8.879  1.00  0.00    -0.264 OA
HETATM   12  N   UNL     1      43.407 -10.561   7.645  1.00  0.00    -0.224 N 
HETATM   13  N   UNL     1      42.190  -9.860   7.506  1.00  0.00    -0.180 NA
HETATM   14  C   UNL     1      41.746  -9.134   8.491  1.00  0.00     0.153 A 
HETATM   15  C   UNL     1      43.454  -8.055  13.043  1.00  0.00     0.031 A 
HETATM   16  C   UNL     1      42.419  -7.225  13.491  1.00  0.00     0.009 A 
ENDROOT
BRANCH  12  17
HETATM   17  C   UNL     1      43.907 -11.219   6.448  1.00  0.00     0.258 C 
BRANCH  17  18
HETATM   18  C   UNL     1      43.410 -12.619   6.047  1.00  0.00     0.244 C 
HETATM   19  N   UNL     1      42.428 -12.782   5.068  1.00  0.00    -0.320 N 
HETATM   20  C   UNL     1      41.809 -11.685   4.331  1.00  0.00     0.159 C 
HETATM   21  O   UNL     1      44.012 -13.587   6.538  1.00  0.00    -0.271 OA
BRANCH  19  22
HETATM   22  C   UNL     1      42.165 -14.086   4.543  1.00  0.00     0.043 A 
HETATM   23  C   UNL     1      41.150 -14.904   5.075  1.00  0.00    -0.035 A 
HETATM   24  C   UNL     1      40.386 -14.542   6.318  1.00  0.00     0.050 C 
HETATM   25  C   UNL     1      40.848 -16.115   4.430  1.00  0.00     0.009 A 
HETATM   26  C   UNL     1      41.554 -16.523   3.296  1.00  0.00     0.007 A 
HETATM   27  C   UNL     1      42.589 -15.737   2.789  1.00  0.00    -0.060 A 
HETATM   28  C   UNL     1      43.333 -16.142   1.552  1.00  0.00     0.048 C 
HETATM   29  C   UNL     1      42.886 -14.521   3.418  1.00  0.00     0.037 A 
ENDBRANCH  19  22
ENDBRANCH  17  18
ENDBRANCH  12  17
TORSDOF 3
ENDMDL
MODEL 4
REMARK VINA RESULT:      -8.7      2.554      9.390
REMARK  3 active torsions:
REMARK  status: ('A' for Active; 'I' for Inactive)
REMARK    1  A    between atoms: N_12  and  C_13 
REMARK    2  A    between atoms: C_13  and  C_14 
REMARK       I    between atoms: C_14  and  N_15 
REMARK    3  A    between atoms: N_15  and  C_16 
ROOT
HETATM    1  C   UNL     1      43.698 -20.240   1.649  1.00  0.00     0.048 C 
HETATM    2  C   UNL     1      43.629 -19.172   2.702  1.00  0.00    -0.061 A 
HETATM    3  C   UNL     1      43.077 -17.915   2.409  1.00  0.00     0.021 A 
HETATM    4  C   UNL     1      43.015 -16.925   3.412  1.00  0.00     0.005 A 
HETATM    5  C   UNL     1      43.509 -17.224   4.686  1.00  0.00     0.044 A 
HETATM    6  N   UNL     1      43.329 -16.104   5.474  1.00  0.00    -0.350 N 
HETATM    7  H   UNL     1      43.583 -16.024   6.451  1.00  0.00     0.166 HD
HETATM    8  C   UNL     1      42.739 -15.118   4.738  1.00  0.00     0.116 A 
HETATM    9  C   UNL     1      42.534 -15.594   3.468  1.00  0.00     0.028 A 
HETATM   10  C   UNL     1      42.359 -13.799   5.155  1.00  0.00     0.291 A 
HETATM   11  O   UNL     1      42.523 -13.389   6.299  1.00  0.00    -0.264 OA
HETATM   12  N   UNL     1      41.798 -13.038   4.111  1.00  0.00    -0.224 N 
HETATM   13  N   UNL     1      41.553 -13.528   2.810  1.00  0.00    -0.180 NA
HETATM   14  C   UNL     1      41.908 -14.741   2.499  1.00  0.00     0.153 A 
HETATM   15  C   UNL     1      44.064 -18.468   5.003  1.00  0.00     0.031 A 
HETATM   16  C   UNL     1      44.114 -19.433   3.989  1.00  0.00     0.009 A 
ENDROOT
BRANCH  12  17
HETATM   17  C   UNL     1      41.232 -11.734   4.420  1.00  0.00     0.258 C 
BRANCH  17  18
HETATM   18  C   UNL     1      42.042 -10.683   5.198  1.00  0.00     0.244 C 
HETATM   19  N   UNL     1      41.552 -10.126   6.381  1.00  0.00    -0.320 N 
HETATM   20  C   UNL     1      40.278 -10.485   6.995  1.00  0.00     0.159 C 
HETATM   21  O   UNL     1      43.194 -10.456   4.796  1.00  0.00    -0.271 OA
BRANCH  19  22
HETATM   22  C   UNL     1      42.421  -9.345   7.207  1.00  0.00     0.043 A 
HETATM   23  C   UNL     1      42.332  -7.941   7.251  1.00  0.00    -0.035 A 
HETATM   24  C   UNL     1      41.443  -7.157   6.327  1.00  0.00     0.050 C 
HETATM   25  C   UNL     1      43.118  -7.241   8.182  1.00  0.00     0.009 A 
HETATM   26  C   UNL     1      43.995  -7.914   9.035  1.00  0.00     0.007 A 
HETATM   27  C   UNL     1      44.118  -9.302   8.967  1.00  0.00    -0.060 A 
HETATM   28  C   UNL     1      45.028 -10.044   9.900  1.00  0.00     0.048 C 
HETATM   29  C   UNL     1      43.327 -10.008   8.052  1.00  0.00     0.037 A 
ENDBRANCH  19  22
ENDBRANCH  17  18
ENDBRANCH  12  17
TORSDOF 3
ENDMDL
MODEL 5
REMARK VINA RESULT:      -8.7      6.656      9.963
REMARK  3 active torsions:
REMARK  status: ('A' for Active; 'I' for Inactive)
REMARK    1  A    between atoms: N_12  and  C_13 
REMARK    2  A    between atoms: C_13  and  C_14 
REMARK       I    between atoms: C_14  and  N_15 
REMARK    3  A    between atoms: N_15  and  C_16 
ROOT
HETATM    1  C   UNL     1      43.943 -20.607   2.369  1.00  0.00     0.048 C 
HETATM    2  C   UNL     1      43.786 -19.238   2.965  1.00  0.00    -0.061 A 
HETATM    3  C   UNL     1      43.138 -18.218   2.249  1.00  0.00     0.021 A 
HETATM    4  C   UNL     1      42.994 -16.939   2.826  1.00  0.00     0.005 A 
HETATM    5  C   UNL     1      43.505 -16.717   4.110  1.00  0.00     0.044 A 
HETATM    6  N   UNL     1      43.233 -15.405   4.443  1.00  0.00    -0.350 N 
HETATM    7  H   UNL     1      43.476 -14.957   5.318  1.00  0.00     0.166 HD
HETATM    8  C   UNL     1      42.571 -14.800   3.413  1.00  0.00     0.116 A 
HETATM    9  C   UNL     1      42.410 -15.719   2.408  1.00  0.00     0.028 A 
HETATM   10  C   UNL     1      42.087 -13.452   3.333  1.00  0.00     0.291 A 
HETATM   11  O   UNL     1      42.213 -12.644   4.247  1.00  0.00    -0.264 OA
HETATM   12  N   UNL     1      41.472 -13.166   2.099  1.00  0.00    -0.224 N 
HETATM   13  N   UNL     1      41.272 -14.113   1.071  1.00  0.00    -0.180 NA
HETATM   14  C   UNL     1      41.723 -15.326   1.212  1.00  0.00     0.153 A 
HETATM   15  C   UNL     1      44.154 -17.717   4.842  1.00  0.00     0.031 A 
HETATM   16  C   UNL     1      44.284 -18.977   4.246  1.00  0.00     0.009 A 
ENDROOT
BRANCH  12  17
HETATM   17  C   UNL     1      40.804 -11.886   1.928  1.00  0.00     0.258 C 
BRANCH  17  18
HETATM   18  C   UNL     1      39.607 -11.737   0.974  1.00  0.00     0.244 C 
HETATM   19  N   UNL     1      39.792 -11.401  -0.368  1.00  0.00    -0.320 N 
HETATM   20  C   UNL     1      41.093 -11.186  -0.992  1.00  0.00     0.159 C 
HETATM   21  O   UNL     1      38.493 -12.055   1.422  1.00  0.00    -0.271 OA
BRANCH  19  22
HETATM   22  C   UNL     1      38.696 -11.511  -1.282  1.00  0.00     0.043 A 
HETATM   23  C   UNL     1      38.330 -12.746  -1.848  1.00  0.00    -0.035 A 
HETATM   24  C   UNL     1      39.148 -13.995  -1.667  1.00  0.00     0.050 C 
HETATM   25  C   UNL     1      37.163 -12.815  -2.629  1.00  0.00     0.009 A 
HETATM   26  C   UNL     1      36.388 -11.678  -2.866  1.00  0.00     0.007 A 
HETATM   27  C   UNL     1      36.769 -10.442  -2.342  1.00  0.00    -0.060 A 
HETATM   28  C   UNL     1      35.929  -9.219  -2.558  1.00  0.00     0.048 C 
HETATM   29  C   UNL     1      37.923 -10.369  -1.551  1.00  0.00     0.037 A 
ENDBRANCH  19  22
ENDBRANCH  17  18
ENDBRANCH  12  17
TORSDOF 3
ENDMDL
MODEL 6
REMARK VINA RESULT:      -8.6      3.046      4.596
REMARK  3 active torsions:
REMARK  status: ('A' for Active; 'I' for Inactive)
REMARK    1  A    between atoms: N_12  and  C_13 
REMARK    2  A    between atoms: C_13  and  C_14 
REMARK       I    between atoms: C_14  and  N_15 
REMARK    3  A    between atoms: N_15  and  C_16 
ROOT
HETATM    1  C   UNL     1      43.631  -7.487   9.130  1.00  0.00     0.048 C 
HETATM    2  C   UNL     1      42.831  -7.895   7.927  1.00  0.00    -0.061 A 
HETATM    3  C   UNL     1      42.801  -9.236   7.512  1.00  0.00     0.021 A 
HETATM    4  C   UNL     1      42.041  -9.604   6.383  1.00  0.00     0.005 A 
HETATM    5  C   UNL     1      41.327  -8.614   5.699  1.00  0.00     0.044 A 
HETATM    6  N   UNL     1      40.670  -9.226   4.650  1.00  0.00    -0.350 N 
HETATM    7  H   UNL     1      40.066  -8.763   3.982  1.00  0.00     0.166 HD
HETATM    8  C   UNL     1      40.947 -10.563   4.655  1.00  0.00     0.116 A 
HETATM    9  C   UNL     1      41.786 -10.823   5.709  1.00  0.00     0.028 A 
HETATM   10  C   UNL     1      40.470 -11.576   3.759  1.00  0.00     0.291 A 
HETATM   11  O   UNL     1      39.701 -11.339   2.834  1.00  0.00    -0.264 OA
HETATM   12  N   UNL     1      40.992 -12.852   4.052  1.00  0.00    -0.224 N 
HETATM   13  N   UNL     1      41.829 -13.136   5.152  1.00  0.00    -0.180 NA
HETATM   14  C   UNL     1      42.214 -12.173   5.938  1.00  0.00     0.153 A 
HETATM   15  C   UNL     1      41.341  -7.272   6.093  1.00  0.00     0.031 A 
HETATM   16  C   UNL     1      42.104  -6.934   7.217  1.00  0.00     0.009 A 
ENDROOT
BRANCH  12  17
HETATM   17  C   UNL     1      40.484 -14.001   3.320  1.00  0.00     0.258 C 
BRANCH  17  18
HETATM   18  C   UNL     1      41.127 -15.390   3.480  1.00  0.00     0.244 C 
HETATM   19  N   UNL     1      42.372 -15.677   2.918  1.00  0.00    -0.320 N 
HETATM   20  C   UNL     1      43.178 -14.720   2.167  1.00  0.00     0.159 C 
HETATM   21  O   UNL     1      40.549 -16.189   4.234  1.00  0.00    -0.271 OA
BRANCH  19  22
HETATM   22  C   UNL     1      43.053 -16.881   3.286  1.00  0.00     0.043 A 
HETATM   23  C   UNL     1      43.661 -17.028   4.547  1.00  0.00    -0.035 A 
HETATM   24  C   UNL     1      43.780 -15.893   5.526  1.00  0.00     0.050 C 
HETATM   25  C   UNL     1      44.193 -18.279   4.901  1.00  0.00     0.009 A 
HETATM   26  C   UNL     1      44.148 -19.357   4.015  1.00  0.00     0.007 A 
HETATM   27  C   UNL     1      43.585 -19.206   2.747  1.00  0.00    -0.060 A 
HETATM   28  C   UNL     1      43.497 -20.362   1.797  1.00  0.00     0.048 C 
HETATM   29  C   UNL     1      43.039 -17.966   2.393  1.00  0.00     0.037 A 
ENDBRANCH  19  22
ENDBRANCH  17  18
ENDBRANCH  12  17
TORSDOF 3
ENDMDL
MODEL 7
REMARK VINA RESULT:      -8.1      6.306      8.927
REMARK  3 active torsions:
REMARK  status: ('A' for Active; 'I' for Inactive)
REMARK    1  A    between atoms: N_12  and  C_13 
REMARK    2  A    between atoms: C_13  and  C_14 
REMARK       I    between atoms: C_14  and  N_15 
REMARK    3  A    between atoms: N_15  and  C_16 
ROOT
HETATM    1  C   UNL     1      39.374  -9.424  -4.337  1.00  0.00     0.048 C 
HETATM    2  C   UNL     1      40.098  -9.414  -3.023  1.00  0.00    -0.061 A 
HETATM    3  C   UNL     1      39.859 -10.415  -2.068  1.00  0.00     0.021 A 
HETATM    4  C   UNL     1      40.552 -10.394  -0.840  1.00  0.00     0.005 A 
HETATM    5  C   UNL     1      41.471  -9.367  -0.602  1.00  0.00     0.044 A 
HETATM    6  N   UNL     1      42.011  -9.575   0.652  1.00  0.00    -0.350 N 
HETATM    7  H   UNL     1      42.713  -8.995   1.095  1.00  0.00     0.166 HD
HETATM    8  C   UNL     1      41.462 -10.696   1.205  1.00  0.00     0.116 A 
HETATM    9  C   UNL     1      40.563 -11.220   0.310  1.00  0.00     0.028 A 
HETATM   10  C   UNL     1      41.738 -11.288   2.481  1.00  0.00     0.291 A 
HETATM   11  O   UNL     1      42.561 -10.827   3.266  1.00  0.00    -0.264 OA
HETATM   12  N   UNL     1      40.957 -12.433   2.732  1.00  0.00    -0.224 N 
HETATM   13  N   UNL     1      40.054 -12.999   1.807  1.00  0.00    -0.180 NA
HETATM   14  C   UNL     1      39.859 -12.421   0.657  1.00  0.00     0.153 A 
HETATM   15  C   UNL     1      41.727  -8.358  -1.537  1.00  0.00     0.031 A 
HETATM   16  C   UNL     1      41.025  -8.402  -2.747  1.00  0.00     0.009 A 
ENDROOT
BRANCH  12  17
HETATM   17  C   UNL     1      41.231 -13.222   3.923  1.00  0.00     0.258 C 
BRANCH  17  18
HETATM   18  C   UNL     1      42.286 -14.343   3.905  1.00  0.00     0.244 C 
HETATM   19  N   UNL     1      42.066 -15.550   4.571  1.00  0.00    -0.320 N 
HETATM   20  C   UNL     1      40.849 -15.875   5.308  1.00  0.00     0.159 C 
HETATM   21  O   UNL     1      43.271 -14.171   3.169  1.00  0.00    -0.271 OA
BRANCH  19  22
HETATM   22  C   UNL     1      42.943 -16.656   4.336  1.00  0.00     0.043 A 
HETATM   23  C   UNL     1      44.010 -16.949   5.206  1.00  0.00    -0.035 A 
HETATM   24  C   UNL     1      44.403 -16.043   6.340  1.00  0.00     0.050 C 
HETATM   25  C   UNL     1      44.750 -18.125   4.999  1.00  0.00     0.009 A 
HETATM   26  C   UNL     1      44.457 -18.982   3.936  1.00  0.00     0.007 A 
HETATM   27  C   UNL     1      43.428 -18.675   3.046  1.00  0.00    -0.060 A 
HETATM   28  C   UNL     1      43.078 -19.602   1.920  1.00  0.00     0.048 C 
HETATM   29  C   UNL     1      42.677 -17.512   3.254  1.00  0.00     0.037 A 
ENDBRANCH  19  22
ENDBRANCH  17  18
ENDBRANCH  12  17
TORSDOF 3
ENDMDL
MODEL 8
REMARK VINA RESULT:      -8.1      2.340      2.937
REMARK  3 active torsions:
REMARK  status: ('A' for Active; 'I' for Inactive)
REMARK    1  A    between atoms: N_12  and  C_13 
REMARK    2  A    between atoms: C_13  and  C_14 
REMARK       I    between atoms: C_14  and  N_15 
REMARK    3  A    between atoms: N_15  and  C_16 
ROOT
HETATM    1  C   UNL     1      42.993  -7.356  13.478  1.00  0.00     0.048 C 
HETATM    2  C   UNL     1      41.913  -7.946  12.619  1.00  0.00    -0.061 A 
HETATM    3  C   UNL     1      42.184  -8.331  11.296  1.00  0.00     0.021 A 
HETATM    4  C   UNL     1      41.158  -8.889  10.504  1.00  0.00     0.005 A 
HETATM    5  C   UNL     1      39.886  -9.048  11.063  1.00  0.00     0.044 A 
HETATM    6  N   UNL     1      39.076  -9.613  10.097  1.00  0.00    -0.350 N 
HETATM    7  H   UNL     1      38.099  -9.853  10.214  1.00  0.00     0.166 HD
HETATM    8  C   UNL     1      39.799  -9.813   8.956  1.00  0.00     0.116 A 
HETATM    9  C   UNL     1      41.081  -9.378   9.178  1.00  0.00     0.028 A 
HETATM   10  C   UNL     1      39.364 -10.384   7.714  1.00  0.00     0.291 A 
HETATM   11  O   UNL     1      38.222 -10.793   7.532  1.00  0.00    -0.264 OA
HETATM   12  N   UNL     1      40.381 -10.407   6.740  1.00  0.00    -0.224 N 
HETATM   13  N   UNL     1      41.711  -9.993   6.967  1.00  0.00    -0.180 NA
HETATM   14  C   UNL     1      42.045  -9.497   8.123  1.00  0.00     0.153 A 
HETATM   15  C   UNL     1      39.591  -8.672  12.378  1.00  0.00     0.031 A 
HETATM   16  C   UNL     1      40.627  -8.120  13.142  1.00  0.00     0.009 A 
ENDROOT
BRANCH  12  17
HETATM   17  C   UNL     1      40.130 -11.090   5.480  1.00  0.00     0.258 C 
BRANCH  17  18
HETATM   18  C   UNL     1      40.437 -12.589   5.317  1.00  0.00     0.244 C 
HETATM   19  N   UNL     1      41.441 -13.029   4.452  1.00  0.00    -0.320 N 
HETATM   20  C   UNL     1      42.290 -12.147   3.659  1.00  0.00     0.159 C 
HETATM   21  O   UNL     1      39.844 -13.367   6.081  1.00  0.00    -0.271 OA
BRANCH  19  22
HETATM   22  C   UNL     1      41.869 -14.393   4.504  1.00  0.00     0.043 A 
HETATM   23  C   UNL     1      41.320 -15.371   3.654  1.00  0.00    -0.035 A 
HETATM   24  C   UNL     1      40.147 -15.096   2.754  1.00  0.00     0.050 C 
HETATM   25  C   UNL     1      41.877 -16.661   3.656  1.00  0.00     0.009 A 
HETATM   26  C   UNL     1      42.939 -16.985   4.502  1.00  0.00     0.007 A 
HETATM   27  C   UNL     1      43.460 -16.032   5.377  1.00  0.00    -0.060 A 
HETATM   28  C   UNL     1      44.624 -16.353   6.266  1.00  0.00     0.048 C 
HETATM   29  C   UNL     1      42.920 -14.740   5.370  1.00  0.00     0.037 A 
ENDBRANCH  19  22
ENDBRANCH  17  18
ENDBRANCH  12  17
TORSDOF 3
ENDMDL
MODEL 9
REMARK VINA RESULT:      -8.0      3.943      5.840
REMARK  3 active torsions:
REMARK  status: ('A' for Active; 'I' for Inactive)
REMARK    1  A    between atoms: N_12  and  C_13 
REMARK    2  A    between atoms: C_13  and  C_14 
REMARK       I    between atoms: C_14  and  N_15 
REMARK    3  A    between atoms: N_15  and  C_16 
ROOT
HETATM    1  C   UNL     1      44.550  -7.789   9.020  1.00  0.00     0.048 C 
HETATM    2  C   UNL     1      44.510  -9.107   8.302  1.00  0.00    -0.061 A 
HETATM    3  C   UNL     1      43.366  -9.495   7.585  1.00  0.00     0.021 A 
HETATM    4  C   UNL     1      43.348 -10.734   6.911  1.00  0.00     0.005 A 
HETATM    5  C   UNL     1      44.481 -11.552   6.973  1.00  0.00     0.044 A 
HETATM    6  N   UNL     1      44.213 -12.689   6.236  1.00  0.00    -0.350 N 
HETATM    7  H   UNL     1      44.851 -13.461   6.091  1.00  0.00     0.166 HD
HETATM    8  C   UNL     1      42.953 -12.609   5.717  1.00  0.00     0.116 A 
HETATM    9  C   UNL     1      42.399 -11.419   6.114  1.00  0.00     0.028 A 
HETATM   10  C   UNL     1      42.270 -13.556   4.883  1.00  0.00     0.291 A 
HETATM   11  O   UNL     1      42.782 -14.607   4.511  1.00  0.00    -0.264 OA
HETATM   12  N   UNL     1      40.961 -13.151   4.558  1.00  0.00    -0.224 N 
HETATM   13  N   UNL     1      40.393 -11.915   4.935  1.00  0.00    -0.180 NA
HETATM   14  C   UNL     1      41.071 -11.092   5.681  1.00  0.00     0.153 A 
HETATM   15  C   UNL     1      45.632 -11.187   7.680  1.00  0.00     0.031 A 
HETATM   16  C   UNL     1      45.624  -9.953   8.340  1.00  0.00     0.009 A 
ENDROOT
BRANCH  12  17
HETATM   17  C   UNL     1      40.201 -13.940   3.601  1.00  0.00     0.258 C 
BRANCH  17  18
HETATM   18  C   UNL     1      39.880 -13.391   2.200  1.00  0.00     0.244 C 
HETATM   19  N   UNL     1      40.699 -13.681   1.107  1.00  0.00    -0.320 N 
HETATM   20  C   UNL     1      41.888 -14.524   1.170  1.00  0.00     0.159 C 
HETATM   21  O   UNL     1      38.800 -12.793   2.068  1.00  0.00    -0.271 OA
BRANCH  19  22
HETATM   22  C   UNL     1      40.249 -13.368  -0.215  1.00  0.00     0.043 A 
HETATM   23  C   UNL     1      40.535 -12.128  -0.817  1.00  0.00    -0.035 A 
HETATM   24  C   UNL     1      41.182 -10.996  -0.071  1.00  0.00     0.050 C 
HETATM   25  C   UNL     1      40.186 -11.933  -2.164  1.00  0.00     0.009 A 
HETATM   26  C   UNL     1      39.543 -12.935  -2.894  1.00  0.00     0.007 A 
HETATM   27  C   UNL     1      39.220 -14.151  -2.290  1.00  0.00    -0.060 A 
HETATM   28  C   UNL     1      38.563 -15.250  -3.070  1.00  0.00     0.048 C 
HETATM   29  C   UNL     1      39.578 -14.358  -0.952  1.00  0.00     0.037 A 
ENDBRANCH  19  22
ENDBRANCH  17  18
ENDBRANCH  12  17
TORSDOF 3
ENDMDL
MODEL 10
REMARK VINA RESULT:      -8.0      6.291      9.467
REMARK  3 active torsions:
REMARK  status: ('A' for Active; 'I' for Inactive)
REMARK    1  A    between atoms: N_12  and  C_13 
REMARK    2  A    between atoms: C_13  and  C_14 
REMARK       I    between atoms: C_14  and  N_15 
REMARK    3  A    between atoms: N_15  and  C_16 
ROOT
HETATM    1  C   UNL     1      44.371 -20.949   5.639  1.00  0.00     0.048 C 
HETATM    2  C   UNL     1      43.961 -19.925   4.622  1.00  0.00    -0.061 A 
HETATM    3  C   UNL     1      43.599 -18.628   5.021  1.00  0.00     0.021 A 
HETATM    4  C   UNL     1      43.221 -17.675   4.052  1.00  0.00     0.005 A 
HETATM    5  C   UNL     1      43.217 -18.050   2.704  1.00  0.00     0.044 A 
HETATM    6  N   UNL     1      42.821 -16.950   1.969  1.00  0.00    -0.350 N 
HETATM    7  H   UNL     1      42.732 -16.916   0.961  1.00  0.00     0.166 HD
HETATM    8  C   UNL     1      42.577 -15.902   2.810  1.00  0.00     0.116 A 
HETATM    9  C   UNL     1      42.816 -16.319   4.095  1.00  0.00     0.028 A 
HETATM   10  C   UNL     1      42.159 -14.571   2.479  1.00  0.00     0.291 A 
HETATM   11  O   UNL     1      41.972 -14.199   1.325  1.00  0.00    -0.264 OA
HETATM   12  N   UNL     1      41.977 -13.758   3.615  1.00  0.00    -0.224 N 
HETATM   13  N   UNL     1      42.251 -14.167   4.938  1.00  0.00    -0.180 NA
HETATM   14  C   UNL     1      42.643 -15.386   5.170  1.00  0.00     0.153 A 
HETATM   15  C   UNL     1      43.573 -19.335   2.281  1.00  0.00     0.031 A 
HETATM   16  C   UNL     1      43.944 -20.261   3.264  1.00  0.00     0.009 A 
ENDROOT
BRANCH  12  17
HETATM   17  C   UNL     1      41.696 -12.344   3.427  1.00  0.00     0.258 C 
BRANCH  17  18
HETATM   18  C   UNL     1      40.372 -11.875   2.798  1.00  0.00     0.244 C 
HETATM   19  N   UNL     1      40.362 -11.014   1.699  1.00  0.00    -0.320 N 
HETATM   20  C   UNL     1      41.559 -10.506   1.038  1.00  0.00     0.159 C 
HETATM   21  O   UNL     1      39.333 -12.398   3.230  1.00  0.00    -0.271 OA
BRANCH  19  22
HETATM   22  C   UNL     1      39.140 -10.794   0.986  1.00  0.00     0.043 A 
HETATM   23  C   UNL     1      38.278  -9.730   1.313  1.00  0.00    -0.035 A 
HETATM   24  C   UNL     1      38.489  -8.857   2.518  1.00  0.00     0.050 C 
HETATM   25  C   UNL     1      37.165  -9.484   0.491  1.00  0.00     0.009 A 
HETATM   26  C   UNL     1      36.895 -10.290  -0.617  1.00  0.00     0.007 A 
HETATM   27  C   UNL     1      37.723 -11.371  -0.921  1.00  0.00    -0.060 A 
HETATM   28  C   UNL     1      37.467 -12.225  -2.127  1.00  0.00     0.048 C 
HETATM   29  C   UNL     1      38.842 -11.614  -0.115  1.00  0.00     0.037 A 
ENDBRANCH  19  22
ENDBRANCH  17  18
ENDBRANCH  12  17
TORSDOF 3
ENDMDL
