MODEL 1
REMARK VINA RESULT:      -6.8      0.000      0.000
REMARK  13 active torsions:
REMARK  status: ('A' for Active; 'I' for Inactive)
REMARK    1  A    between atoms: C_2  and  N_3 
REMARK    2  A    between atoms: N_3  and  C_5 
REMARK    3  A    between atoms: N_3  and  C_34 
REMARK    4  A    between atoms: C_5  and  C_6 
REMARK    5  A    between atoms: C_6  and  O_7 
REMARK    6  A    between atoms: O_7  and  C_8 
REMARK    7  A    between atoms: N_15  and  N_16 
REMARK    8  A    between atoms: C_20  and  O_21 
REMARK    9  A    between atoms: O_21  and  C_22 
REMARK   10  A    between atoms: C_22  and  C_23 
REMARK   11  A    between atoms: C_23  and  N_24 
REMARK   12  A    between atoms: N_24  and  C_26 
REMARK   13  A    between atoms: N_24  and  C_28 
ROOT
HETATM    1  C   UNL     1      42.159 -15.067   5.307  1.00  0.00     0.091 A 
HETATM    2  C   UNL     1      43.430 -15.072   5.928  1.00  0.00     0.068 A 
HETATM    3 CL   UNL     1      44.393 -16.509   5.934  1.00  0.00    -0.081 Cl
HETATM    4  C   UNL     1      43.955 -13.922   6.536  1.00  0.00     0.040 A 
HETATM    5  C   UNL     1      43.186 -12.769   6.532  1.00  0.00    -0.011 A 
HETATM    6  C   UNL     1      41.904 -12.776   5.945  1.00  0.00     0.009 A 
HETATM    7  C   UNL     1      41.334 -11.413   6.121  1.00  0.00     0.093 A 
HETATM    8  N   UNL     1      40.197 -10.884   5.794  1.00  0.00    -0.203 NA
HETATM    9  C   UNL     1      42.368 -10.618   6.820  1.00  0.00     0.009 A 
HETATM   10  C   UNL     1      43.471 -11.448   7.056  1.00  0.00    -0.011 A 
HETATM   11  C   UNL     1      42.314  -9.284   7.198  1.00  0.00     0.053 A 
HETATM   12  C   UNL     1      43.427  -8.755   7.853  1.00  0.00     0.091 A 
HETATM   13  C   UNL     1      44.560  -9.577   8.079  1.00  0.00     0.068 A 
HETATM   14 CL   UNL     1      45.963  -8.933   8.865  1.00  0.00    -0.081 Cl
HETATM   15  C   UNL     1      44.586 -10.927   7.688  1.00  0.00     0.040 A 
HETATM   16  C   UNL     1      41.378 -13.906   5.333  1.00  0.00     0.053 A 
ENDROOT
BRANCH   1  17
HETATM   17  O   UNL     1      41.740 -16.242   4.730  1.00  0.00    -0.348 OA
BRANCH  17  18
HETATM   18  C   UNL     1      40.609 -16.147   3.856  1.00  0.00     0.203 C 
BRANCH  18  19
HETATM   19  C   UNL     1      41.064 -16.562   2.452  1.00  0.00     0.261 C 
BRANCH  19  20
HETATM   20  N   UNL     1      42.560 -16.867   2.404  1.00  0.00    -0.070 N 
HETATM   21  H   UNL     1      42.898 -16.635   3.352  1.00  0.00     0.279 HD
BRANCH  20  22
HETATM   22  C   UNL     1      43.317 -15.968   1.441  1.00  0.00     0.230 C 
HETATM   23  C   UNL     1      43.454 -14.564   2.002  1.00  0.00     0.034 C 
ENDBRANCH  20  22
BRANCH  20  24
HETATM   24  C   UNL     1      42.918 -18.330   2.222  1.00  0.00     0.230 C 
HETATM   25  C   UNL     1      43.977 -18.797   3.203  1.00  0.00     0.034 C 
ENDBRANCH  20  24
ENDBRANCH  19  20
ENDBRANCH  18  19
ENDBRANCH  17  18
ENDBRANCH   1  17
BRANCH   8  26
HETATM   26  N   UNL     1      39.297 -11.680   5.185  1.00  0.00    -0.226 NA
HETATM   27  H   UNL     1      39.571 -11.783   4.201  1.00  0.00     0.145 HD
HETATM   28  H   UNL     1      38.413 -11.165   5.100  1.00  0.00     0.145 HD
ENDBRANCH   8  26
BRANCH  12  29
HETATM   29  O   UNL     1      43.510  -7.448   8.275  1.00  0.00    -0.348 OA
BRANCH  29  30
HETATM   30  C   UNL     1      42.399  -6.949   9.026  1.00  0.00     0.203 C 
BRANCH  30  31
HETATM   31  C   UNL     1      42.921  -6.509  10.400  1.00  0.00     0.261 C 
BRANCH  31  32
HETATM   32  N   UNL     1      42.617  -7.538  11.492  1.00  0.00    -0.070 N 
HETATM   33  H   UNL     1      41.768  -8.017  11.148  1.00  0.00     0.279 HD
BRANCH  32  34
HETATM   34  C   UNL     1      43.653  -8.632  11.647  1.00  0.00     0.230 C 
HETATM   35  C   UNL     1      43.080 -10.022  11.439  1.00  0.00     0.034 C 
ENDBRANCH  32  34
BRANCH  32  36
HETATM   36  C   UNL     1      42.212  -6.840  12.778  1.00  0.00     0.230 C 
HETATM   37  C   UNL     1      43.038  -7.305  13.962  1.00  0.00     0.034 C 
ENDBRANCH  32  36
ENDBRANCH  31  32
ENDBRANCH  30  31
ENDBRANCH  29  30
ENDBRANCH  12  29
TORSDOF 13
ENDMDL
MODEL 2
REMARK VINA RESULT:      -6.5      0.949      9.284
REMARK  13 active torsions:
REMARK  status: ('A' for Active; 'I' for Inactive)
REMARK    1  A    between atoms: C_2  and  N_3 
REMARK    2  A    between atoms: N_3  and  C_5 
REMARK    3  A    between atoms: N_3  and  C_34 
REMARK    4  A    between atoms: C_5  and  C_6 
REMARK    5  A    between atoms: C_6  and  O_7 
REMARK    6  A    between atoms: O_7  and  C_8 
REMARK    7  A    between atoms: N_15  and  N_16 
REMARK    8  A    between atoms: C_20  and  O_21 
REMARK    9  A    between atoms: O_21  and  C_22 
REMARK   10  A    between atoms: C_22  and  C_23 
REMARK   11  A    between atoms: C_23  and  N_24 
REMARK   12  A    between atoms: N_24  and  C_26 
REMARK   13  A    between atoms: N_24  and  C_28 
ROOT
HETATM    1  C   UNL     1      43.667  -8.864   7.902  1.00  0.00     0.091 A 
HETATM    2  C   UNL     1      44.769  -9.728   8.101  1.00  0.00     0.068 A 
HETATM    3 CL   UNL     1      46.191  -9.158   8.905  1.00  0.00    -0.081 Cl
HETATM    4  C   UNL     1      44.741 -11.064   7.677  1.00  0.00     0.040 A 
HETATM    5  C   UNL     1      43.603 -11.525   7.033  1.00  0.00    -0.011 A 
HETATM    6  C   UNL     1      42.521 -10.651   6.801  1.00  0.00     0.009 A 
HETATM    7  C   UNL     1      41.477 -11.430   6.080  1.00  0.00     0.093 A 
HETATM    8  N   UNL     1      40.309 -11.118   5.616  1.00  0.00    -0.203 NA
HETATM    9  C   UNL     1      42.012 -12.802   5.932  1.00  0.00     0.009 A 
HETATM   10  C   UNL     1      43.286 -12.838   6.511  1.00  0.00    -0.011 A 
HETATM   11  C   UNL     1      41.404 -13.899   5.339  1.00  0.00     0.053 A 
HETATM   12  C   UNL     1      42.117 -15.099   5.320  1.00  0.00     0.091 A 
HETATM   13  C   UNL     1      43.400 -15.157   5.923  1.00  0.00     0.068 A 
HETATM   14 CL   UNL     1      44.291 -16.642   5.936  1.00  0.00    -0.081 Cl
HETATM   15  C   UNL     1      43.993 -14.028   6.514  1.00  0.00     0.040 A 
HETATM   16  C   UNL     1      42.534  -9.330   7.225  1.00  0.00     0.053 A 
ENDROOT
BRANCH   1  17
HETATM   17  O   UNL     1      43.790  -7.576   8.364  1.00  0.00    -0.348 OA
BRANCH  17  18
HETATM   18  C   UNL     1      42.683  -7.069   9.119  1.00  0.00     0.203 C 
BRANCH  18  19
HETATM   19  C   UNL     1      42.850  -7.538  10.570  1.00  0.00     0.261 C 
BRANCH  19  20
HETATM   20  N   UNL     1      41.625  -8.303  11.067  1.00  0.00    -0.070 N 
HETATM   21  H   UNL     1      41.878  -9.298  10.947  1.00  0.00     0.279 HD
BRANCH  20  22
HETATM   22  C   UNL     1      40.391  -8.064  10.213  1.00  0.00     0.230 C 
HETATM   23  C   UNL     1      39.811  -9.376   9.717  1.00  0.00     0.034 C 
ENDBRANCH  20  22
BRANCH  20  24
HETATM   24  C   UNL     1      41.330  -8.163  12.549  1.00  0.00     0.230 C 
HETATM   25  C   UNL     1      42.421  -8.760  13.418  1.00  0.00     0.034 C 
ENDBRANCH  20  24
ENDBRANCH  19  20
ENDBRANCH  18  19
ENDBRANCH  17  18
ENDBRANCH   1  17
BRANCH   8  26
HETATM   26  N   UNL     1      39.904  -9.842   5.765  1.00  0.00    -0.226 NA
HETATM   27  H   UNL     1      40.131  -9.542   6.720  1.00  0.00     0.145 HD
HETATM   28  H   UNL     1      38.878  -9.826   5.782  1.00  0.00     0.145 HD
ENDBRANCH   8  26
BRANCH  12  29
HETATM   29  O   UNL     1      41.631 -16.263   4.773  1.00  0.00    -0.348 OA
BRANCH  29  30
HETATM   30  C   UNL     1      40.578 -16.125   3.813  1.00  0.00     0.203 C 
BRANCH  30  31
HETATM   31  C   UNL     1      41.166 -16.413   2.426  1.00  0.00     0.261 C 
BRANCH  31  32
HETATM   32  N   UNL     1      42.636 -16.833   2.496  1.00  0.00    -0.070 N 
HETATM   33  H   UNL     1      42.900 -16.639   3.477  1.00  0.00     0.279 HD
BRANCH  32  34
HETATM   34  C   UNL     1      42.889 -18.315   2.305  1.00  0.00     0.230 C 
HETATM   35  C   UNL     1      44.136 -18.798   3.020  1.00  0.00     0.034 C 
ENDBRANCH  32  34
BRANCH  32  36
HETATM   36  C   UNL     1      43.490 -15.912   1.643  1.00  0.00     0.230 C 
HETATM   37  C   UNL     1      43.305 -14.455   2.018  1.00  0.00     0.034 C 
ENDBRANCH  32  36
ENDBRANCH  31  32
ENDBRANCH  30  31
ENDBRANCH  29  30
ENDBRANCH  12  29
TORSDOF 13
ENDMDL
MODEL 3
REMARK VINA RESULT:      -6.5      5.345      8.655
REMARK  13 active torsions:
REMARK  status: ('A' for Active; 'I' for Inactive)
REMARK    1  A    between atoms: C_2  and  N_3 
REMARK    2  A    between atoms: N_3  and  C_5 
REMARK    3  A    between atoms: N_3  and  C_34 
REMARK    4  A    between atoms: C_5  and  C_6 
REMARK    5  A    between atoms: C_6  and  O_7 
REMARK    6  A    between atoms: O_7  and  C_8 
REMARK    7  A    between atoms: N_15  and  N_16 
REMARK    8  A    between atoms: C_20  and  O_21 
REMARK    9  A    between atoms: O_21  and  C_22 
REMARK   10  A    between atoms: C_22  and  C_23 
REMARK   11  A    between atoms: C_23  and  N_24 
REMARK   12  A    between atoms: N_24  and  C_26 
REMARK   13  A    between atoms: N_24  and  C_28 
ROOT
HETATM    1  C   UNL     1      39.939 -12.087  -0.581  1.00  0.00     0.091 A 
HETATM    2  C   UNL     1      39.560 -13.408  -0.915  1.00  0.00     0.068 A 
HETATM    3 CL   UNL     1      38.418 -13.696  -2.181  1.00  0.00    -0.081 Cl
HETATM    4  C   UNL     1      40.106 -14.518  -0.252  1.00  0.00     0.040 A 
HETATM    5  C   UNL     1      41.023 -14.291   0.762  1.00  0.00    -0.011 A 
HETATM    6  C   UNL     1      41.370 -12.972   1.119  1.00  0.00     0.009 A 
HETATM    7  C   UNL     1      42.344 -13.063   2.239  1.00  0.00     0.093 A 
HETATM    8  N   UNL     1      42.961 -12.170   2.947  1.00  0.00    -0.203 NA
HETATM    9  C   UNL     1      42.554 -14.507   2.491  1.00  0.00     0.009 A 
HETATM   10  C   UNL     1      41.754 -15.225   1.594  1.00  0.00    -0.011 A 
HETATM   11  C   UNL     1      43.383 -15.102   3.430  1.00  0.00     0.053 A 
HETATM   12  C   UNL     1      43.409 -16.497   3.475  1.00  0.00     0.091 A 
HETATM   13  C   UNL     1      42.621 -17.239   2.558  1.00  0.00     0.068 A 
HETATM   14 CL   UNL     1      42.658 -18.970   2.577  1.00  0.00    -0.081 Cl
HETATM   15  C   UNL     1      41.786 -16.609   1.618  1.00  0.00     0.040 A 
HETATM   16  C   UNL     1      40.843 -11.867   0.464  1.00  0.00     0.053 A 
ENDROOT
BRANCH   1  17
HETATM   17  O   UNL     1      39.355 -11.069  -1.297  1.00  0.00    -0.348 OA
BRANCH  17  18
HETATM   18  C   UNL     1      40.213 -10.360  -2.199  1.00  0.00     0.203 C 
BRANCH  18  19
HETATM   19  C   UNL     1      39.783  -8.888  -2.197  1.00  0.00     0.261 C 
BRANCH  19  20
HETATM   20  N   UNL     1      40.702  -8.027  -1.332  1.00  0.00    -0.070 N 
HETATM   21  H   UNL     1      40.899  -7.198  -1.917  1.00  0.00     0.279 HD
BRANCH  20  22
HETATM   22  C   UNL     1      42.039  -8.688  -1.049  1.00  0.00     0.230 C 
HETATM   23  C   UNL     1      43.180  -7.886  -1.650  1.00  0.00     0.034 C 
ENDBRANCH  20  22
BRANCH  20  24
HETATM   24  C   UNL     1      40.066  -7.460  -0.076  1.00  0.00     0.230 C 
HETATM   25  C   UNL     1      40.350  -8.305   1.152  1.00  0.00     0.034 C 
ENDBRANCH  20  24
ENDBRANCH  19  20
ENDBRANCH  18  19
ENDBRANCH  17  18
ENDBRANCH   1  17
BRANCH   8  26
HETATM   26  N   UNL     1      42.696 -10.877   2.676  1.00  0.00    -0.226 NA
HETATM   27  H   UNL     1      43.257 -10.596   1.864  1.00  0.00     0.145 HD
HETATM   28  H   UNL     1      43.106 -10.299   3.420  1.00  0.00     0.145 HD
ENDBRANCH   8  26
BRANCH  12  29
HETATM   29  O   UNL     1      44.191 -17.214   4.350  1.00  0.00    -0.348 OA
BRANCH  29  30
HETATM   30  C   UNL     1      44.160 -16.800   5.719  1.00  0.00     0.203 C 
BRANCH  30  31
HETATM   31  C   UNL     1      42.764 -17.114   6.273  1.00  0.00     0.261 C 
BRANCH  31  32
HETATM   32  N   UNL     1      42.192 -15.956   7.094  1.00  0.00    -0.070 N 
HETATM   33  H   UNL     1      42.091 -16.354   8.042  1.00  0.00     0.279 HD
BRANCH  32  34
HETATM   34  C   UNL     1      43.121 -14.770   7.261  1.00  0.00     0.230 C 
HETATM   35  C   UNL     1      42.651 -13.541   6.505  1.00  0.00     0.034 C 
ENDBRANCH  32  34
BRANCH  32  36
HETATM   36  C   UNL     1      40.786 -15.620   6.628  1.00  0.00     0.230 C 
HETATM   37  C   UNL     1      40.408 -16.380   5.371  1.00  0.00     0.034 C 
ENDBRANCH  32  36
ENDBRANCH  31  32
ENDBRANCH  30  31
ENDBRANCH  29  30
ENDBRANCH  12  29
TORSDOF 13
ENDMDL
MODEL 4
REMARK VINA RESULT:      -6.5      1.264      9.098
REMARK  13 active torsions:
REMARK  status: ('A' for Active; 'I' for Inactive)
REMARK    1  A    between atoms: C_2  and  N_3 
REMARK    2  A    between atoms: N_3  and  C_5 
REMARK    3  A    between atoms: N_3  and  C_34 
REMARK    4  A    between atoms: C_5  and  C_6 
REMARK    5  A    between atoms: C_6  and  O_7 
REMARK    6  A    between atoms: O_7  and  C_8 
REMARK    7  A    between atoms: N_15  and  N_16 
REMARK    8  A    between atoms: C_20  and  O_21 
REMARK    9  A    between atoms: O_21  and  C_22 
REMARK   10  A    between atoms: C_22  and  C_23 
REMARK   11  A    between atoms: C_23  and  N_24 
REMARK   12  A    between atoms: N_24  and  C_26 
REMARK   13  A    between atoms: N_24  and  C_28 
ROOT
HETATM    1  C   UNL     1      43.768  -8.949   7.836  1.00  0.00     0.091 A 
HETATM    2  C   UNL     1      44.894  -9.801   7.928  1.00  0.00     0.068 A 
HETATM    3 CL   UNL     1      46.374  -9.221   8.611  1.00  0.00    -0.081 Cl
HETATM    4  C   UNL     1      44.844 -11.134   7.493  1.00  0.00     0.040 A 
HETATM    5  C   UNL     1      43.660 -11.602   6.947  1.00  0.00    -0.011 A 
HETATM    6  C   UNL     1      42.551 -10.740   6.820  1.00  0.00     0.009 A 
HETATM    7  C   UNL     1      41.457 -11.524   6.185  1.00  0.00     0.093 A 
HETATM    8  N   UNL     1      40.249 -11.222   5.828  1.00  0.00    -0.203 NA
HETATM    9  C   UNL     1      41.992 -12.888   5.976  1.00  0.00     0.009 A 
HETATM   10  C   UNL     1      43.313 -12.914   6.440  1.00  0.00    -0.011 A 
HETATM   11  C   UNL     1      41.348 -13.987   5.426  1.00  0.00     0.053 A 
HETATM   12  C   UNL     1      42.070 -15.177   5.332  1.00  0.00     0.091 A 
HETATM   13  C   UNL     1      43.401 -15.225   5.819  1.00  0.00     0.068 A 
HETATM   14 CL   UNL     1      44.307 -16.699   5.738  1.00  0.00    -0.081 Cl
HETATM   15  C   UNL     1      44.031 -14.095   6.368  1.00  0.00     0.040 A 
HETATM   16  C   UNL     1      42.586  -9.423   7.256  1.00  0.00     0.053 A 
ENDROOT
BRANCH   1  17
HETATM   17  O   UNL     1      43.916  -7.664   8.300  1.00  0.00    -0.348 OA
BRANCH  17  18
HETATM   18  C   UNL     1      42.721  -7.014   8.746  1.00  0.00     0.203 C 
BRANCH  18  19
HETATM   19  C   UNL     1      42.727  -7.018  10.279  1.00  0.00     0.261 C 
BRANCH  19  20
HETATM   20  N   UNL     1      42.455  -8.410  10.847  1.00  0.00    -0.070 N 
HETATM   21  H   UNL     1      42.361  -9.012  10.012  1.00  0.00     0.279 HD
BRANCH  20  22
HETATM   22  C   UNL     1      41.137  -8.497  11.595  1.00  0.00     0.230 C 
HETATM   23  C   UNL     1      40.166  -9.421  10.881  1.00  0.00     0.034 C 
ENDBRANCH  20  22
BRANCH  20  24
HETATM   24  C   UNL     1      43.600  -9.026  11.630  1.00  0.00     0.230 C 
HETATM   25  C   UNL     1      43.773 -10.505  11.342  1.00  0.00     0.034 C 
ENDBRANCH  20  24
ENDBRANCH  19  20
ENDBRANCH  18  19
ENDBRANCH  17  18
ENDBRANCH   1  17
BRANCH   8  26
HETATM   26  N   UNL     1      39.844  -9.953   6.027  1.00  0.00    -0.226 NA
HETATM   27  H   UNL     1      39.355  -9.635   5.182  1.00  0.00     0.145 HD
HETATM   28  H   UNL     1      40.671  -9.345   6.028  1.00  0.00     0.145 HD
ENDBRANCH   8  26
BRANCH  12  29
HETATM   29  O   UNL     1      41.551 -16.342   4.816  1.00  0.00    -0.348 OA
BRANCH  29  30
HETATM   30  C   UNL     1      40.478 -16.201   3.880  1.00  0.00     0.203 C 
BRANCH  30  31
HETATM   31  C   UNL     1      41.081 -16.212   2.470  1.00  0.00     0.261 C 
BRANCH  31  32
HETATM   32  N   UNL     1      40.964 -14.851   1.779  1.00  0.00    -0.070 N 
HETATM   33  H   UNL     1      40.353 -14.307   2.411  1.00  0.00     0.279 HD
BRANCH  32  34
HETATM   34  C   UNL     1      42.254 -14.060   1.699  1.00  0.00     0.230 C 
HETATM   35  C   UNL     1      43.489 -14.923   1.884  1.00  0.00     0.034 C 
ENDBRANCH  32  34
BRANCH  32  36
HETATM   36  C   UNL     1      40.202 -14.985   0.472  1.00  0.00     0.230 C 
HETATM   37  C   UNL     1      40.216 -13.696  -0.328  1.00  0.00     0.034 C 
ENDBRANCH  32  36
ENDBRANCH  31  32
ENDBRANCH  30  31
ENDBRANCH  29  30
ENDBRANCH  12  29
TORSDOF 13
ENDMDL
MODEL 5
REMARK VINA RESULT:      -6.4      1.388      2.039
REMARK  13 active torsions:
REMARK  status: ('A' for Active; 'I' for Inactive)
REMARK    1  A    between atoms: C_2  and  N_3 
REMARK    2  A    between atoms: N_3  and  C_5 
REMARK    3  A    between atoms: N_3  and  C_34 
REMARK    4  A    between atoms: C_5  and  C_6 
REMARK    5  A    between atoms: C_6  and  O_7 
REMARK    6  A    between atoms: O_7  and  C_8 
REMARK    7  A    between atoms: N_15  and  N_16 
REMARK    8  A    between atoms: C_20  and  O_21 
REMARK    9  A    between atoms: O_21  and  C_22 
REMARK   10  A    between atoms: C_22  and  C_23 
REMARK   11  A    between atoms: C_23  and  N_24 
REMARK   12  A    between atoms: N_24  and  C_26 
REMARK   13  A    between atoms: N_24  and  C_28 
ROOT
HETATM    1  C   UNL     1      41.405 -14.947   4.946  1.00  0.00     0.091 A 
HETATM    2  C   UNL     1      42.698 -15.155   5.482  1.00  0.00     0.068 A 
HETATM    3 CL   UNL     1      43.462 -16.701   5.345  1.00  0.00    -0.081 Cl
HETATM    4  C   UNL     1      43.403 -14.123   6.119  1.00  0.00     0.040 A 
HETATM    5  C   UNL     1      42.795 -12.883   6.230  1.00  0.00    -0.011 A 
HETATM    6  C   UNL     1      41.491 -12.689   5.728  1.00  0.00     0.009 A 
HETATM    7  C   UNL     1      41.116 -11.278   6.018  1.00  0.00     0.093 A 
HETATM    8  N   UNL     1      40.043 -10.587   5.795  1.00  0.00    -0.203 NA
HETATM    9  C   UNL     1      42.285 -10.668   6.692  1.00  0.00     0.009 A 
HETATM   10  C   UNL     1      43.280 -11.647   6.808  1.00  0.00    -0.011 A 
HETATM   11  C   UNL     1      42.429  -9.366   7.147  1.00  0.00     0.053 A 
HETATM   12  C   UNL     1      43.637  -9.027   7.758  1.00  0.00     0.091 A 
HETATM   13  C   UNL     1      44.663 -10.000   7.862  1.00  0.00     0.068 A 
HETATM   14 CL   UNL     1      46.180  -9.593   8.591  1.00  0.00    -0.081 Cl
HETATM   15  C   UNL     1      44.488 -11.315   7.395  1.00  0.00     0.040 A 
HETATM   16  C   UNL     1      40.787 -13.700   5.088  1.00  0.00     0.053 A 
ENDROOT
BRANCH   1  17
HETATM   17  O   UNL     1      40.803 -16.019   4.332  1.00  0.00    -0.348 OA
BRANCH  17  18
HETATM   18  C   UNL     1      40.226 -15.766   3.046  1.00  0.00     0.203 C 
BRANCH  18  19
HETATM   19  C   UNL     1      41.261 -16.152   1.982  1.00  0.00     0.261 C 
BRANCH  19  20
HETATM   20  N   UNL     1      41.452 -15.047   0.945  1.00  0.00    -0.070 N 
HETATM   21  H   UNL     1      42.146 -15.433   0.284  1.00  0.00     0.279 HD
BRANCH  20  22
HETATM   22  C   UNL     1      42.065 -13.786   1.529  1.00  0.00     0.230 C 
HETATM   23  C   UNL     1      43.438 -14.068   2.112  1.00  0.00     0.034 C 
ENDBRANCH  20  22
BRANCH  20  24
HETATM   24  C   UNL     1      40.238 -14.747   0.086  1.00  0.00     0.230 C 
HETATM   25  C   UNL     1      39.806 -13.296   0.173  1.00  0.00     0.034 C 
ENDBRANCH  20  24
ENDBRANCH  19  20
ENDBRANCH  18  19
ENDBRANCH  17  18
ENDBRANCH   1  17
BRANCH   8  26
HETATM   26  N   UNL     1      39.013 -11.220   5.202  1.00  0.00    -0.226 NA
HETATM   27  H   UNL     1      39.384 -12.026   4.685  1.00  0.00     0.145 HD
HETATM   28  H   UNL     1      38.663 -10.629   4.439  1.00  0.00     0.145 HD
ENDBRANCH   8  26
BRANCH  12  29
HETATM   29  O   UNL     1      43.915  -7.771   8.246  1.00  0.00    -0.348 OA
BRANCH  29  30
HETATM   30  C   UNL     1      42.802  -7.019   8.741  1.00  0.00     0.203 C 
BRANCH  30  31
HETATM   31  C   UNL     1      42.809  -7.123  10.271  1.00  0.00     0.261 C 
BRANCH  31  32
HETATM   32  N   UNL     1      42.550  -8.552  10.756  1.00  0.00    -0.070 N 
HETATM   33  H   UNL     1      42.486  -9.100   9.881  1.00  0.00     0.279 HD
BRANCH  32  34
HETATM   34  C   UNL     1      43.689  -9.181  11.532  1.00  0.00     0.230 C 
HETATM   35  C   UNL     1      43.755 -10.688  11.369  1.00  0.00     0.034 C 
ENDBRANCH  32  34
BRANCH  32  36
HETATM   36  C   UNL     1      41.184  -8.649  11.412  1.00  0.00     0.230 C 
HETATM   37  C   UNL     1      40.183  -9.376  10.535  1.00  0.00     0.034 C 
ENDBRANCH  32  36
ENDBRANCH  31  32
ENDBRANCH  30  31
ENDBRANCH  29  30
ENDBRANCH  12  29
TORSDOF 13
ENDMDL
MODEL 6
REMARK VINA RESULT:      -6.3      2.661      9.609
REMARK  13 active torsions:
REMARK  status: ('A' for Active; 'I' for Inactive)
REMARK    1  A    between atoms: C_2  and  N_3 
REMARK    2  A    between atoms: N_3  and  C_5 
REMARK    3  A    between atoms: N_3  and  C_34 
REMARK    4  A    between atoms: C_5  and  C_6 
REMARK    5  A    between atoms: C_6  and  O_7 
REMARK    6  A    between atoms: O_7  and  C_8 
REMARK    7  A    between atoms: N_15  and  N_16 
REMARK    8  A    between atoms: C_20  and  O_21 
REMARK    9  A    between atoms: O_21  and  C_22 
REMARK   10  A    between atoms: C_22  and  C_23 
REMARK   11  A    between atoms: C_23  and  N_24 
REMARK   12  A    between atoms: N_24  and  C_26 
REMARK   13  A    between atoms: N_24  and  C_28 
ROOT
HETATM    1  C   UNL     1      42.156  -8.897   6.940  1.00  0.00     0.091 A 
HETATM    2  C   UNL     1      41.547  -8.475   5.735  1.00  0.00     0.068 A 
HETATM    3 CL   UNL     1      40.992  -6.845   5.560  1.00  0.00    -0.081 Cl
HETATM    4  C   UNL     1      41.391  -9.346   4.646  1.00  0.00     0.040 A 
HETATM    5  C   UNL     1      41.836 -10.651   4.781  1.00  0.00    -0.011 A 
HETATM    6  C   UNL     1      42.408 -11.080   5.997  1.00  0.00     0.009 A 
HETATM    7  C   UNL     1      42.757 -12.517   5.834  1.00  0.00     0.093 A 
HETATM    8  N   UNL     1      43.282 -13.393   6.631  1.00  0.00    -0.203 NA
HETATM    9  C   UNL     1      42.375 -12.883   4.451  1.00  0.00     0.009 A 
HETATM   10  C   UNL     1      41.826 -11.750   3.837  1.00  0.00    -0.011 A 
HETATM   11  C   UNL     1      42.514 -14.109   3.818  1.00  0.00     0.053 A 
HETATM   12  C   UNL     1      42.073 -14.208   2.498  1.00  0.00     0.091 A 
HETATM   13  C   UNL     1      41.536 -13.063   1.855  1.00  0.00     0.068 A 
HETATM   14 CL   UNL     1      41.009 -13.154   0.208  1.00  0.00    -0.081 Cl
HETATM   15  C   UNL     1      41.403 -11.832   2.522  1.00  0.00     0.040 A 
HETATM   16  C   UNL     1      42.575 -10.225   7.077  1.00  0.00     0.053 A 
ENDROOT
BRANCH   1  17
HETATM   17  O   UNL     1      42.271  -7.964   7.942  1.00  0.00    -0.348 OA
BRANCH  17  18
HETATM   18  C   UNL     1      41.435  -8.163   9.087  1.00  0.00     0.203 C 
BRANCH  18  19
HETATM   19  C   UNL     1      42.345  -8.360  10.306  1.00  0.00     0.261 C 
BRANCH  19  20
HETATM   20  N   UNL     1      42.318  -9.802  10.810  1.00  0.00    -0.070 N 
HETATM   21  H   UNL     1      41.761 -10.310  10.103  1.00  0.00     0.279 HD
BRANCH  20  22
HETATM   22  C   UNL     1      41.585  -9.953  12.132  1.00  0.00     0.230 C 
HETATM   23  C   UNL     1      42.415  -9.409  13.280  1.00  0.00     0.034 C 
ENDBRANCH  20  22
BRANCH  20  24
HETATM   24  C   UNL     1      43.659 -10.512  10.816  1.00  0.00     0.230 C 
HETATM   25  C   UNL     1      44.771  -9.662  10.231  1.00  0.00     0.034 C 
ENDBRANCH  20  24
ENDBRANCH  19  20
ENDBRANCH  18  19
ENDBRANCH  17  18
ENDBRANCH   1  17
BRANCH   8  26
HETATM   26  N   UNL     1      43.577 -12.992   7.882  1.00  0.00    -0.226 NA
HETATM   27  H   UNL     1      42.755 -12.513   8.269  1.00  0.00     0.145 HD
HETATM   28  H   UNL     1      44.256 -12.224   7.826  1.00  0.00     0.145 HD
ENDBRANCH   8  26
BRANCH  12  29
HETATM   29  O   UNL     1      42.159 -15.360   1.752  1.00  0.00    -0.348 OA
BRANCH  29  30
HETATM   30  C   UNL     1      41.888 -16.585   2.440  1.00  0.00     0.203 C 
BRANCH  30  31
HETATM   31  C   UNL     1      42.977 -17.593   2.051  1.00  0.00     0.261 C 
BRANCH  31  32
HETATM   32  N   UNL     1      43.799 -18.053   3.258  1.00  0.00    -0.070 N 
HETATM   33  H   UNL     1      44.720 -17.606   3.112  1.00  0.00     0.279 HD
BRANCH  32  34
HETATM   34  C   UNL     1      43.316 -17.534   4.597  1.00  0.00     0.230 C 
HETATM   35  C   UNL     1      43.665 -18.456   5.749  1.00  0.00     0.034 C 
ENDBRANCH  32  34
BRANCH  32  36
HETATM   36  C   UNL     1      44.044 -19.550   3.191  1.00  0.00     0.230 C 
HETATM   37  C   UNL     1      43.186 -20.220   2.135  1.00  0.00     0.034 C 
ENDBRANCH  32  36
ENDBRANCH  31  32
ENDBRANCH  30  31
ENDBRANCH  29  30
ENDBRANCH  12  29
TORSDOF 13
ENDMDL
MODEL 7
REMARK VINA RESULT:      -6.3      2.587      9.482
REMARK  13 active torsions:
REMARK  status: ('A' for Active; 'I' for Inactive)
REMARK    1  A    between atoms: C_2  and  N_3 
REMARK    2  A    between atoms: N_3  and  C_5 
REMARK    3  A    between atoms: N_3  and  C_34 
REMARK    4  A    between atoms: C_5  and  C_6 
REMARK    5  A    between atoms: C_6  and  O_7 
REMARK    6  A    between atoms: O_7  and  C_8 
REMARK    7  A    between atoms: N_15  and  N_16 
REMARK    8  A    between atoms: C_20  and  O_21 
REMARK    9  A    between atoms: O_21  and  C_22 
REMARK   10  A    between atoms: C_22  and  C_23 
REMARK   11  A    between atoms: C_23  and  N_24 
REMARK   12  A    between atoms: N_24  and  C_26 
REMARK   13  A    between atoms: N_24  and  C_28 
ROOT
HETATM    1  C   UNL     1      41.587  -8.604   8.191  1.00  0.00     0.091 A 
HETATM    2  C   UNL     1      40.362  -8.708   7.491  1.00  0.00     0.068 A 
HETATM    3 CL   UNL     1      39.100  -7.557   7.764  1.00  0.00    -0.081 Cl
HETATM    4  C   UNL     1      40.138  -9.723   6.549  1.00  0.00     0.040 A 
HETATM    5  C   UNL     1      41.148 -10.647   6.327  1.00  0.00    -0.011 A 
HETATM    6  C   UNL     1      42.353 -10.564   7.054  1.00  0.00     0.009 A 
HETATM    7  C   UNL     1      43.211 -11.695   6.610  1.00  0.00     0.093 A 
HETATM    8  N   UNL     1      44.393 -12.096   6.958  1.00  0.00    -0.203 NA
HETATM    9  C   UNL     1      42.441 -12.418   5.572  1.00  0.00     0.009 A 
HETATM   10  C   UNL     1      41.208 -11.772   5.417  1.00  0.00    -0.011 A 
HETATM   11  C   UNL     1      42.820 -13.537   4.846  1.00  0.00     0.053 A 
HETATM   12  C   UNL     1      41.911 -14.041   3.916  1.00  0.00     0.091 A 
HETATM   13  C   UNL     1      40.667 -13.384   3.731  1.00  0.00     0.068 A 
HETATM   14 CL   UNL     1      39.534 -13.975   2.562  1.00  0.00    -0.081 Cl
HETATM   15  C   UNL     1      40.306 -12.253   4.484  1.00  0.00     0.040 A 
HETATM   16  C   UNL     1      42.589  -9.558   7.981  1.00  0.00     0.053 A 
ENDROOT
BRANCH   1  17
HETATM   17  O   UNL     1      41.711  -7.567   9.084  1.00  0.00    -0.348 OA
BRANCH  17  18
HETATM   18  C   UNL     1      41.430  -7.878  10.454  1.00  0.00     0.203 C 
BRANCH  18  19
HETATM   19  C   UNL     1      42.592  -7.347  11.303  1.00  0.00     0.261 C 
BRANCH  19  20
HETATM   20  N   UNL     1      43.273  -8.460  12.097  1.00  0.00    -0.070 N 
HETATM   21  H   UNL     1      43.881  -7.960  12.767  1.00  0.00     0.279 HD
BRANCH  20  22
HETATM   22  C   UNL     1      44.185  -9.323  11.243  1.00  0.00     0.230 C 
HETATM   23  C   UNL     1      43.822 -10.792  11.373  1.00  0.00     0.034 C 
ENDBRANCH  20  22
BRANCH  20  24
HETATM   24  C   UNL     1      42.351  -9.291  12.970  1.00  0.00     0.230 C 
HETATM   25  C   UNL     1      42.117  -8.664  14.332  1.00  0.00     0.034 C 
ENDBRANCH  20  24
ENDBRANCH  19  20
ENDBRANCH  18  19
ENDBRANCH  17  18
ENDBRANCH   1  17
BRANCH   8  26
HETATM   26  N   UNL     1      45.019 -11.402   7.929  1.00  0.00    -0.226 NA
HETATM   27  H   UNL     1      44.478 -10.550   8.117  1.00  0.00     0.145 HD
HETATM   28  H   UNL     1      45.887 -11.014   7.543  1.00  0.00     0.145 HD
ENDBRANCH   8  26
BRANCH  12  29
HETATM   29  O   UNL     1      42.161 -15.137   3.124  1.00  0.00    -0.348 OA
BRANCH  29  30
HETATM   30  C   UNL     1      41.931 -16.418   3.720  1.00  0.00     0.203 C 
BRANCH  30  31
HETATM   31  C   UNL     1      43.163 -17.291   3.448  1.00  0.00     0.261 C 
BRANCH  31  32
HETATM   32  N   UNL     1      43.667 -17.992   4.712  1.00  0.00    -0.070 N 
HETATM   33  H   UNL     1      42.800 -18.249   5.212  1.00  0.00     0.279 HD
BRANCH  32  34
HETATM   34  C   UNL     1      44.388 -19.303   4.473  1.00  0.00     0.230 C 
HETATM   35  C   UNL     1      43.978 -20.389   5.449  1.00  0.00     0.034 C 
ENDBRANCH  32  34
BRANCH  32  36
HETATM   36  C   UNL     1      44.393 -17.006   5.610  1.00  0.00     0.230 C 
HETATM   37  C   UNL     1      43.748 -16.905   6.980  1.00  0.00     0.034 C 
ENDBRANCH  32  36
ENDBRANCH  31  32
ENDBRANCH  30  31
ENDBRANCH  29  30
ENDBRANCH  12  29
TORSDOF 13
ENDMDL
MODEL 8
REMARK VINA RESULT:      -6.2      2.621      9.771
REMARK  13 active torsions:
REMARK  status: ('A' for Active; 'I' for Inactive)
REMARK    1  A    between atoms: C_2  and  N_3 
REMARK    2  A    between atoms: N_3  and  C_5 
REMARK    3  A    between atoms: N_3  and  C_34 
REMARK    4  A    between atoms: C_5  and  C_6 
REMARK    5  A    between atoms: C_6  and  O_7 
REMARK    6  A    between atoms: O_7  and  C_8 
REMARK    7  A    between atoms: N_15  and  N_16 
REMARK    8  A    between atoms: C_20  and  O_21 
REMARK    9  A    between atoms: O_21  and  C_22 
REMARK   10  A    between atoms: C_22  and  C_23 
REMARK   11  A    between atoms: C_23  and  N_24 
REMARK   12  A    between atoms: N_24  and  C_26 
REMARK   13  A    between atoms: N_24  and  C_28 
ROOT
HETATM    1  C   UNL     1      41.960  -9.536   7.817  1.00  0.00     0.091 A 
HETATM    2  C   UNL     1      40.655 -10.013   7.551  1.00  0.00     0.068 A 
HETATM    3 CL   UNL     1      39.316  -9.470   8.502  1.00  0.00    -0.081 Cl
HETATM    4  C   UNL     1      40.402 -10.915   6.507  1.00  0.00     0.040 A 
HETATM    5  C   UNL     1      41.472 -11.352   5.743  1.00  0.00    -0.011 A 
HETATM    6  C   UNL     1      42.778 -10.905   6.034  1.00  0.00     0.009 A 
HETATM    7  C   UNL     1      43.693 -11.562   5.063  1.00  0.00     0.093 A 
HETATM    8  N   UNL     1      44.977 -11.522   4.895  1.00  0.00    -0.203 NA
HETATM    9  C   UNL     1      42.838 -12.393   4.184  1.00  0.00     0.009 A 
HETATM   10  C   UNL     1      41.511 -12.251   4.608  1.00  0.00    -0.011 A 
HETATM   11  C   UNL     1      43.224 -13.188   3.115  1.00  0.00     0.053 A 
HETATM   12  C   UNL     1      42.224 -13.884   2.435  1.00  0.00     0.091 A 
HETATM   13  C   UNL     1      40.872 -13.733   2.838  1.00  0.00     0.068 A 
HETATM   14 CL   UNL     1      39.612 -14.565   1.991  1.00  0.00    -0.081 Cl
HETATM   15  C   UNL     1      40.510 -12.923   3.928  1.00  0.00     0.040 A 
HETATM   16  C   UNL     1      43.038 -10.005   7.058  1.00  0.00     0.053 A 
ENDROOT
BRANCH   1  17
HETATM   17  O   UNL     1      42.101  -8.645   8.854  1.00  0.00    -0.348 OA
BRANCH  17  18
HETATM   18  C   UNL     1      42.930  -9.071   9.942  1.00  0.00     0.203 C 
BRANCH  18  19
HETATM   19  C   UNL     1      42.012  -9.580  11.060  1.00  0.00     0.261 C 
BRANCH  19  20
HETATM   20  N   UNL     1      41.729  -8.500  12.102  1.00  0.00    -0.070 N 
HETATM   21  H   UNL     1      42.065  -7.627  11.663  1.00  0.00     0.279 HD
BRANCH  20  22
HETATM   22  C   UNL     1      42.533  -8.682  13.378  1.00  0.00     0.230 C 
HETATM   23  C   UNL     1      43.087  -7.356  13.866  1.00  0.00     0.034 C 
ENDBRANCH  20  22
BRANCH  20  24
HETATM   24  C   UNL     1      40.261  -8.240  12.384  1.00  0.00     0.230 C 
HETATM   25  C   UNL     1      39.888  -6.777  12.229  1.00  0.00     0.034 C 
ENDBRANCH  20  24
ENDBRANCH  19  20
ENDBRANCH  18  19
ENDBRANCH  17  18
ENDBRANCH   1  17
BRANCH   8  26
HETATM   26  N   UNL     1      45.689 -10.765   5.752  1.00  0.00    -0.226 NA
HETATM   27  H   UNL     1      46.191 -11.390   6.394  1.00  0.00     0.145 HD
HETATM   28  H   UNL     1      45.036 -10.295   6.390  1.00  0.00     0.145 HD
ENDBRANCH   8  26
BRANCH  12  29
HETATM   29  O   UNL     1      42.466 -14.699   1.354  1.00  0.00    -0.348 OA
BRANCH  29  30
HETATM   30  C   UNL     1      43.457 -15.716   1.533  1.00  0.00     0.203 C 
BRANCH  30  31
HETATM   31  C   UNL     1      42.789 -16.901   2.243  1.00  0.00     0.261 C 
BRANCH  31  32
HETATM   32  N   UNL     1      43.406 -17.175   3.617  1.00  0.00    -0.070 N 
HETATM   33  H   UNL     1      44.256 -16.587   3.626  1.00  0.00     0.279 HD
BRANCH  32  34
HETATM   34  C   UNL     1      42.582 -16.697   4.795  1.00  0.00     0.230 C 
HETATM   35  C   UNL     1      43.367 -15.808   5.742  1.00  0.00     0.034 C 
ENDBRANCH  32  34
BRANCH  32  36
HETATM   36  C   UNL     1      43.889 -18.612   3.702  1.00  0.00     0.230 C 
HETATM   37  C   UNL     1      43.528 -19.408   2.463  1.00  0.00     0.034 C 
ENDBRANCH  32  36
ENDBRANCH  31  32
ENDBRANCH  30  31
ENDBRANCH  29  30
ENDBRANCH  12  29
TORSDOF 13
ENDMDL
MODEL 9
REMARK VINA RESULT:      -6.2      5.003      7.682
REMARK  13 active torsions:
REMARK  status: ('A' for Active; 'I' for Inactive)
REMARK    1  A    between atoms: C_2  and  N_3 
REMARK    2  A    between atoms: N_3  and  C_5 
REMARK    3  A    between atoms: N_3  and  C_34 
REMARK    4  A    between atoms: C_5  and  C_6 
REMARK    5  A    between atoms: C_6  and  O_7 
REMARK    6  A    between atoms: O_7  and  C_8 
REMARK    7  A    between atoms: N_15  and  N_16 
REMARK    8  A    between atoms: C_20  and  O_21 
REMARK    9  A    between atoms: O_21  and  C_22 
REMARK   10  A    between atoms: C_22  and  C_23 
REMARK   11  A    between atoms: C_23  and  N_24 
REMARK   12  A    between atoms: N_24  and  C_26 
REMARK   13  A    between atoms: N_24  and  C_28 
ROOT
HETATM    1  C   UNL     1      38.338 -12.769  -1.408  1.00  0.00     0.091 A 
HETATM    2  C   UNL     1      38.915 -14.037  -1.654  1.00  0.00     0.068 A 
HETATM    3 CL   UNL     1      38.687 -14.820  -3.180  1.00  0.00    -0.081 Cl
HETATM    4  C   UNL     1      39.699 -14.687  -0.689  1.00  0.00     0.040 A 
HETATM    5  C   UNL     1      39.885 -14.062   0.534  1.00  0.00    -0.011 A 
HETATM    6  C   UNL     1      39.277 -12.816   0.791  1.00  0.00     0.009 A 
HETATM    7  C   UNL     1      39.644 -12.427   2.179  1.00  0.00     0.093 A 
HETATM    8  N   UNL     1      39.347 -11.404   2.916  1.00  0.00    -0.203 NA
HETATM    9  C   UNL     1      40.514 -13.507   2.696  1.00  0.00     0.009 A 
HETATM   10  C   UNL     1      40.647 -14.477   1.695  1.00  0.00    -0.011 A 
HETATM   11  C   UNL     1      41.121 -13.598   3.940  1.00  0.00     0.053 A 
HETATM   12  C   UNL     1      41.902 -14.726   4.196  1.00  0.00     0.091 A 
HETATM   13  C   UNL     1      42.064 -15.706   3.183  1.00  0.00     0.068 A 
HETATM   14 CL   UNL     1      43.050 -17.100   3.469  1.00  0.00    -0.081 Cl
HETATM   15  C   UNL     1      41.433 -15.590   1.932  1.00  0.00     0.040 A 
HETATM   16  C   UNL     1      38.507 -12.160  -0.160  1.00  0.00     0.053 A 
ENDROOT
BRANCH   1  17
HETATM   17  O   UNL     1      37.597 -12.212  -2.423  1.00  0.00    -0.348 OA
BRANCH  17  18
HETATM   18  C   UNL     1      37.651 -10.785  -2.532  1.00  0.00     0.203 C 
BRANCH  18  19
HETATM   19  C   UNL     1      38.846 -10.427  -3.424  1.00  0.00     0.261 C 
BRANCH  19  20
HETATM   20  N   UNL     1      39.909  -9.638  -2.662  1.00  0.00    -0.070 N 
HETATM   21  H   UNL     1      40.267  -8.958  -3.352  1.00  0.00     0.279 HD
BRANCH  20  22
HETATM   22  C   UNL     1      41.092 -10.492  -2.241  1.00  0.00     0.230 C 
HETATM   23  C   UNL     1      41.240 -11.702  -3.147  1.00  0.00     0.034 C 
ENDBRANCH  20  22
BRANCH  20  24
HETATM   24  C   UNL     1      39.388  -8.782  -1.523  1.00  0.00     0.230 C 
HETATM   25  C   UNL     1      40.288  -8.825  -0.302  1.00  0.00     0.034 C 
ENDBRANCH  20  24
ENDBRANCH  19  20
ENDBRANCH  18  19
ENDBRANCH  17  18
ENDBRANCH   1  17
BRANCH   8  26
HETATM   26  N   UNL     1      38.527 -10.476   2.384  1.00  0.00    -0.226 NA
HETATM   27  H   UNL     1      39.051  -9.598   2.291  1.00  0.00     0.145 HD
HETATM   28  H   UNL     1      37.823 -10.223   3.087  1.00  0.00     0.145 HD
ENDBRANCH   8  26
BRANCH  12  29
HETATM   29  O   UNL     1      42.566 -14.938   5.382  1.00  0.00    -0.348 OA
BRANCH  29  30
HETATM   30  C   UNL     1      42.543 -13.861   6.325  1.00  0.00     0.203 C 
BRANCH  30  31
HETATM   31  C   UNL     1      43.993 -13.428   6.577  1.00  0.00     0.261 C 
BRANCH  31  32
HETATM   32  N   UNL     1      44.108 -11.929   6.862  1.00  0.00    -0.070 N 
HETATM   33  H   UNL     1      43.907 -11.855   7.873  1.00  0.00     0.279 HD
BRANCH  32  34
HETATM   34  C   UNL     1      45.499 -11.349   6.693  1.00  0.00     0.230 C 
HETATM   35  C   UNL     1      45.985 -10.612   7.926  1.00  0.00     0.034 C 
ENDBRANCH  32  34
BRANCH  32  36
HETATM   36  C   UNL     1      42.998 -11.169   6.158  1.00  0.00     0.230 C 
HETATM   37  C   UNL     1      42.331 -10.160   7.073  1.00  0.00     0.034 C 
ENDBRANCH  32  36
ENDBRANCH  31  32
ENDBRANCH  30  31
ENDBRANCH  29  30
ENDBRANCH  12  29
TORSDOF 13
ENDMDL
MODEL 10
REMARK VINA RESULT:      -6.2      2.361      9.602
REMARK  13 active torsions:
REMARK  status: ('A' for Active; 'I' for Inactive)
REMARK    1  A    between atoms: C_2  and  N_3 
REMARK    2  A    between atoms: N_3  and  C_5 
REMARK    3  A    between atoms: N_3  and  C_34 
REMARK    4  A    between atoms: C_5  and  C_6 
REMARK    5  A    between atoms: C_6  and  O_7 
REMARK    6  A    between atoms: O_7  and  C_8 
REMARK    7  A    between atoms: N_15  and  N_16 
REMARK    8  A    between atoms: C_20  and  O_21 
REMARK    9  A    between atoms: O_21  and  C_22 
REMARK   10  A    between atoms: C_22  and  C_23 
REMARK   11  A    between atoms: C_23  and  N_24 
REMARK   12  A    between atoms: N_24  and  C_26 
REMARK   13  A    between atoms: N_24  and  C_28 
ROOT
HETATM    1  C   UNL     1      43.451 -10.042   7.688  1.00  0.00     0.091 A 
HETATM    2  C   UNL     1      44.521 -10.913   7.378  1.00  0.00     0.068 A 
HETATM    3 CL   UNL     1      46.099 -10.624   8.027  1.00  0.00    -0.081 Cl
HETATM    4  C   UNL     1      44.340 -12.039   6.560  1.00  0.00     0.040 A 
HETATM    5  C   UNL     1      43.077 -12.274   6.040  1.00  0.00    -0.011 A 
HETATM    6  C   UNL     1      42.020 -11.383   6.319  1.00  0.00     0.009 A 
HETATM    7  C   UNL     1      40.818 -11.893   5.606  1.00  0.00     0.093 A 
HETATM    8  N   UNL     1      39.602 -11.458   5.505  1.00  0.00    -0.203 NA
HETATM    9  C   UNL     1      41.237 -13.137   4.922  1.00  0.00     0.009 A 
HETATM   10  C   UNL     1      42.594 -13.348   5.196  1.00  0.00    -0.011 A 
HETATM   11  C   UNL     1      40.469 -13.986   4.138  1.00  0.00     0.053 A 
HETATM   12  C   UNL     1      41.098 -15.107   3.595  1.00  0.00     0.091 A 
HETATM   13  C   UNL     1      42.466 -15.347   3.882  1.00  0.00     0.068 A 
HETATM   14 CL   UNL     1      43.260 -16.746   3.242  1.00  0.00    -0.081 Cl
HETATM   15  C   UNL     1      43.222 -14.467   4.677  1.00  0.00     0.040 A 
HETATM   16  C   UNL     1      42.187 -10.272   7.134  1.00  0.00     0.053 A 
ENDROOT
BRANCH   1  17
HETATM   17  O   UNL     1      43.730  -8.974   8.507  1.00  0.00    -0.348 OA
BRANCH  17  18
HETATM   18  C   UNL     1      43.523  -9.184   9.908  1.00  0.00     0.203 C 
BRANCH  18  19
HETATM   19  C   UNL     1      42.594  -8.076  10.417  1.00  0.00     0.261 C 
BRANCH  19  20
HETATM   20  N   UNL     1      41.888  -8.473  11.713  1.00  0.00    -0.070 N 
HETATM   21  H   UNL     1      41.340  -7.637  11.972  1.00  0.00     0.279 HD
BRANCH  20  22
HETATM   22  C   UNL     1      42.853  -8.732  12.857  1.00  0.00     0.230 C 
HETATM   23  C   UNL     1      43.142  -7.454  13.624  1.00  0.00     0.034 C 
ENDBRANCH  20  22
BRANCH  20  24
HETATM   24  C   UNL     1      40.855  -9.576  11.576  1.00  0.00     0.230 C 
HETATM   25  C   UNL     1      40.409 -10.127  12.917  1.00  0.00     0.034 C 
ENDBRANCH  20  24
ENDBRANCH  19  20
ENDBRANCH  18  19
ENDBRANCH  17  18
ENDBRANCH   1  17
BRANCH   8  26
HETATM   26  N   UNL     1      39.304 -10.304   6.134  1.00  0.00    -0.226 NA
HETATM   27  H   UNL     1      39.062 -10.521   7.108  1.00  0.00     0.145 HD
HETATM   28  H   UNL     1      38.409  -9.957   5.770  1.00  0.00     0.145 HD
ENDBRANCH   8  26
BRANCH  12  29
HETATM   29  O   UNL     1      40.453 -16.033   2.809  1.00  0.00    -0.348 OA
BRANCH  29  30
HETATM   30  C   UNL     1      39.882 -15.547   1.591  1.00  0.00     0.203 C 
BRANCH  30  31
HETATM   31  C   UNL     1      41.030 -15.087   0.684  1.00  0.00     0.261 C 
BRANCH  31  32
HETATM   32  N   UNL     1      40.643 -13.880  -0.175  1.00  0.00    -0.070 N 
HETATM   33  H   UNL     1      41.508 -13.665  -0.699  1.00  0.00     0.279 HD
BRANCH  32  34
HETATM   34  C   UNL     1      39.597 -14.158  -1.236  1.00  0.00     0.230 C 
HETATM   35  C   UNL     1      40.129 -13.995  -2.647  1.00  0.00     0.034 C 
ENDBRANCH  32  34
BRANCH  32  36
HETATM   36  C   UNL     1      40.373 -12.671   0.703  1.00  0.00     0.230 C 
HETATM   37  C   UNL     1      39.175 -11.876   0.222  1.00  0.00     0.034 C 
ENDBRANCH  32  36
ENDBRANCH  31  32
ENDBRANCH  30  31
ENDBRANCH  29  30
ENDBRANCH  12  29
TORSDOF 13
ENDMDL
