MODEL 1
REMARK VINA RESULT:      -7.5      0.000      0.000
REMARK  6 active torsions:
REMARK  status: ('A' for Active; 'I' for Inactive)
REMARK    1  A    between atoms: C_8  and  N_9 
REMARK       I    between atoms: N_9  and  C_10 
REMARK    2  A    between atoms: C_10  and  C_11 
REMARK    3  A    between atoms: C_11  and  N_12 
REMARK    4  A    between atoms: N_12  and  C_13 
REMARK    5  A    between atoms: C_13  and  C_14 
REMARK    6  A    between atoms: C_13  and  C_17 
ROOT
HETATM    1  C   UNL     1      42.708 -12.678   2.935  1.00  0.00     0.372 C 
ENDROOT
BRANCH   1   2
HETATM    2  C   UNL     1      41.501 -12.673   1.998  1.00  0.00     0.250 C 
HETATM    3  N   UNL     1      41.672 -13.482   0.896  1.00  0.00    -0.322 N 
HETATM    4  H   UNL     1      42.627 -13.791   0.737  1.00  0.00     0.169 HD
HETATM    5  O   UNL     1      40.492 -12.040   2.296  1.00  0.00    -0.271 OA
BRANCH   3   6
HETATM    6  C   UNL     1      40.720 -13.819  -0.051  1.00  0.00     0.085 A 
HETATM    7  C   UNL     1      39.893 -14.918   0.090  1.00  0.00     0.052 A 
HETATM    8  C   UNL     1      39.768 -15.970   1.124  1.00  0.00     0.072 C 
HETATM    9  N   UNL     1      39.106 -14.940  -1.025  1.00  0.00    -0.280 N 
HETATM   10  H   UNL     1      38.393 -15.616  -1.274  1.00  0.00     0.189 HD
HETATM   11  N   UNL     1      39.322 -13.924  -1.863  1.00  0.00    -0.177 NA
HETATM   12  C   UNL     1      40.305 -13.219  -1.280  1.00  0.00     0.079 A 
HETATM   13  C   UNL     1      40.750 -11.969  -1.947  1.00  0.00     0.075 C 
ENDBRANCH   3   6
ENDBRANCH   1   2
BRANCH   1  14
HETATM   14  N   UNL     1      43.298 -14.000   3.163  1.00  0.00     0.101 N 
HETATM   15  H   UNL     1      43.138 -14.543   2.314  1.00  0.00     0.317 HD
BRANCH  14  16
HETATM   16  C   UNL     1      42.857 -14.810   4.323  1.00  0.00     0.259 C 
BRANCH  16  17
HETATM   17  C   UNL     1      41.356 -14.735   4.796  1.00  0.00     0.015 C 
HETATM   18  C   UNL     1      40.835 -16.112   5.269  1.00  0.00     0.012 C 
HETATM   19  C   UNL     1      41.128 -13.775   5.976  1.00  0.00     0.012 C 
ENDBRANCH  16  17
BRANCH  16  20
HETATM   20  C   UNL     1      43.261 -16.258   3.980  1.00  0.00    -0.003 A 
HETATM   21  C   UNL     1      44.035 -17.066   4.830  1.00  0.00     0.042 A 
HETATM   22 CL   UNL     1      44.585 -16.532   6.377  1.00  0.00    -0.084 Cl
HETATM   23  C   UNL     1      44.392 -18.367   4.451  1.00  0.00     0.024 A 
HETATM   24  C   UNL     1      43.982 -18.886   3.223  1.00  0.00     0.002 A 
HETATM   25  C   UNL     1      43.213 -18.107   2.368  1.00  0.00     0.001 A 
HETATM   26  C   UNL     1      42.859 -16.808   2.740  1.00  0.00     0.011 A 
ENDBRANCH  16  20
ENDBRANCH  14  16
ENDBRANCH   1  14
TORSDOF 6
ENDMDL
MODEL 2
REMARK VINA RESULT:      -7.3      1.776      2.461
REMARK  6 active torsions:
REMARK  status: ('A' for Active; 'I' for Inactive)
REMARK    1  A    between atoms: C_8  and  N_9 
REMARK       I    between atoms: N_9  and  C_10 
REMARK    2  A    between atoms: C_10  and  C_11 
REMARK    3  A    between atoms: C_11  and  N_12 
REMARK    4  A    between atoms: N_12  and  C_13 
REMARK    5  A    between atoms: C_13  and  C_14 
REMARK    6  A    between atoms: C_13  and  C_17 
ROOT
HETATM    1  C   UNL     1      42.144 -14.926   1.220  1.00  0.00     0.372 C 
ENDROOT
BRANCH   1   2
HETATM    2  C   UNL     1      40.742 -14.385   0.938  1.00  0.00     0.250 C 
HETATM    3  N   UNL     1      40.628 -13.805  -0.306  1.00  0.00    -0.322 N 
HETATM    4  H   UNL     1      41.512 -13.616  -0.771  1.00  0.00     0.169 HD
HETATM    5  O   UNL     1      39.844 -14.548   1.760  1.00  0.00    -0.271 OA
BRANCH   3   6
HETATM    6  C   UNL     1      39.469 -13.367  -0.922  1.00  0.00     0.085 A 
HETATM    7  C   UNL     1      38.885 -12.151  -0.618  1.00  0.00     0.052 A 
HETATM    8  C   UNL     1      39.222 -11.071   0.337  1.00  0.00     0.072 C 
HETATM    9  N   UNL     1      37.769 -12.066  -1.401  1.00  0.00    -0.280 N 
HETATM   10  H   UNL     1      37.084 -11.319  -1.434  1.00  0.00     0.189 HD
HETATM   11  N   UNL     1      37.600 -13.105  -2.220  1.00  0.00    -0.177 NA
HETATM   12  C   UNL     1      38.636 -13.914  -1.947  1.00  0.00     0.079 A 
HETATM   13  C   UNL     1      38.772 -15.160  -2.742  1.00  0.00     0.075 C 
ENDBRANCH   3   6
ENDBRANCH   1   2
BRANCH   1  14
HETATM   14  N   UNL     1      42.172 -16.229   1.888  1.00  0.00     0.101 N 
HETATM   15  H   UNL     1      41.201 -16.499   2.048  1.00  0.00     0.317 HD
BRANCH  14  16
HETATM   16  C   UNL     1      42.912 -16.385   3.163  1.00  0.00     0.259 C 
BRANCH  16  17
HETATM   17  C   UNL     1      42.263 -15.873   4.504  1.00  0.00     0.015 C 
HETATM   18  C   UNL     1      42.425 -14.344   4.671  1.00  0.00     0.012 C 
HETATM   19  C   UNL     1      40.752 -16.146   4.603  1.00  0.00     0.012 C 
ENDBRANCH  16  17
BRANCH  16  20
HETATM   20  C   UNL     1      43.256 -17.885   3.249  1.00  0.00    -0.003 A 
HETATM   21  C   UNL     1      43.910 -18.466   4.349  1.00  0.00     0.042 A 
HETATM   22 CL   UNL     1      44.362 -17.562   5.748  1.00  0.00    -0.084 Cl
HETATM   23  C   UNL     1      44.218 -19.833   4.357  1.00  0.00     0.024 A 
HETATM   24  C   UNL     1      43.880 -20.644   3.274  1.00  0.00     0.002 A 
HETATM   25  C   UNL     1      43.231 -20.092   2.177  1.00  0.00     0.001 A 
HETATM   26  C   UNL     1      42.925 -18.729   2.163  1.00  0.00     0.011 A 
ENDBRANCH  16  20
ENDBRANCH  14  16
ENDBRANCH   1  14
TORSDOF 6
ENDMDL
MODEL 3
REMARK VINA RESULT:      -7.3      1.655      2.361
REMARK  6 active torsions:
REMARK  status: ('A' for Active; 'I' for Inactive)
REMARK    1  A    between atoms: C_8  and  N_9 
REMARK       I    between atoms: N_9  and  C_10 
REMARK    2  A    between atoms: C_10  and  C_11 
REMARK    3  A    between atoms: C_11  and  N_12 
REMARK    4  A    between atoms: N_12  and  C_13 
REMARK    5  A    between atoms: C_13  and  C_14 
REMARK    6  A    between atoms: C_13  and  C_17 
ROOT
HETATM    1  C   UNL     1      43.542 -14.460   1.882  1.00  0.00     0.372 C 
ENDROOT
BRANCH   1   2
HETATM    2  C   UNL     1      42.449 -13.409   1.685  1.00  0.00     0.250 C 
HETATM    3  N   UNL     1      41.430 -13.841   0.864  1.00  0.00    -0.322 N 
HETATM    4  H   UNL     1      41.635 -14.684   0.335  1.00  0.00     0.169 HD
HETATM    5  O   UNL     1      42.511 -12.338   2.282  1.00  0.00    -0.271 OA
BRANCH   3   6
HETATM    6  C   UNL     1      40.229 -13.198   0.613  1.00  0.00     0.085 A 
HETATM    7  C   UNL     1      39.696 -13.101  -0.659  1.00  0.00     0.052 A 
HETATM    8  C   UNL     1      40.155 -13.554  -1.992  1.00  0.00     0.072 C 
HETATM    9  N   UNL     1      38.531 -12.402  -0.523  1.00  0.00    -0.280 N 
HETATM   10  H   UNL     1      37.880 -12.124  -1.250  1.00  0.00     0.189 HD
HETATM   11  N   UNL     1      38.239 -12.071   0.736  1.00  0.00    -0.177 NA
HETATM   12  C   UNL     1      39.267 -12.557   1.452  1.00  0.00     0.079 A 
HETATM   13  C   UNL     1      39.220 -12.398   2.927  1.00  0.00     0.075 C 
ENDBRANCH   3   6
ENDBRANCH   1   2
BRANCH   1  14
HETATM   14  N   UNL     1      43.045 -15.819   2.112  1.00  0.00     0.101 N 
HETATM   15  H   UNL     1      42.152 -15.893   1.623  1.00  0.00     0.317 HD
BRANCH  14  16
HETATM   16  C   UNL     1      42.857 -16.308   3.498  1.00  0.00     0.259 C 
BRANCH  16  17
HETATM   17  C   UNL     1      41.476 -16.081   4.220  1.00  0.00     0.015 C 
HETATM   18  C   UNL     1      41.460 -14.759   5.022  1.00  0.00     0.012 C 
HETATM   19  C   UNL     1      40.281 -15.998   3.255  1.00  0.00     0.012 C 
ENDBRANCH  16  17
BRANCH  16  20
HETATM   20  C   UNL     1      43.221 -17.805   3.451  1.00  0.00    -0.003 A 
HETATM   21  C   UNL     1      43.785 -18.498   4.537  1.00  0.00     0.042 A 
HETATM   22 CL   UNL     1      44.093 -17.749   6.061  1.00  0.00    -0.084 Cl
HETATM   23  C   UNL     1      44.118 -19.854   4.424  1.00  0.00     0.024 A 
HETATM   24  C   UNL     1      43.893 -20.544   3.233  1.00  0.00     0.002 A 
HETATM   25  C   UNL     1      43.334 -19.880   2.147  1.00  0.00     0.001 A 
HETATM   26  C   UNL     1      43.004 -18.528   2.254  1.00  0.00     0.011 A 
ENDBRANCH  16  20
ENDBRANCH  14  16
ENDBRANCH   1  14
TORSDOF 6
ENDMDL
MODEL 4
REMARK VINA RESULT:      -7.2      1.661      2.049
REMARK  6 active torsions:
REMARK  status: ('A' for Active; 'I' for Inactive)
REMARK    1  A    between atoms: C_8  and  N_9 
REMARK       I    between atoms: N_9  and  C_10 
REMARK    2  A    between atoms: C_10  and  C_11 
REMARK    3  A    between atoms: C_11  and  N_12 
REMARK    4  A    between atoms: N_12  and  C_13 
REMARK    5  A    between atoms: C_13  and  C_14 
REMARK    6  A    between atoms: C_13  and  C_17 
ROOT
HETATM    1  C   UNL     1      42.342 -14.498   1.375  1.00  0.00     0.372 C 
ENDROOT
BRANCH   1   2
HETATM    2  C   UNL     1      40.951 -13.908   1.136  1.00  0.00     0.250 C 
HETATM    3  N   UNL     1      40.687 -13.677  -0.196  1.00  0.00    -0.322 N 
HETATM    4  H   UNL     1      41.499 -13.716  -0.806  1.00  0.00     0.169 HD
HETATM    5  O   UNL     1      40.181 -13.745   2.079  1.00  0.00    -0.271 OA
BRANCH   3   6
HETATM    6  C   UNL     1      39.478 -13.301  -0.756  1.00  0.00     0.085 A 
HETATM    7  C   UNL     1      38.784 -14.116  -1.633  1.00  0.00     0.052 A 
HETATM    8  C   UNL     1      39.055 -15.453  -2.209  1.00  0.00     0.072 C 
HETATM    9  N   UNL     1      37.662 -13.421  -1.981  1.00  0.00    -0.280 N 
HETATM   10  H   UNL     1      36.928 -13.699  -2.623  1.00  0.00     0.189 HD
HETATM   11  N   UNL     1      37.545 -12.238  -1.374  1.00  0.00    -0.177 NA
HETATM   12  C   UNL     1      38.647 -12.148  -0.611  1.00  0.00     0.079 A 
HETATM   13  C   UNL     1      38.796 -10.948   0.250  1.00  0.00     0.075 C 
ENDBRANCH   3   6
ENDBRANCH   1   2
BRANCH   1  14
HETATM   14  N   UNL     1      42.340 -15.853   1.932  1.00  0.00     0.101 N 
HETATM   15  H   UNL     1      41.367 -16.159   1.960  1.00  0.00     0.317 HD
BRANCH  14  16
HETATM   16  C   UNL     1      42.943 -16.101   3.263  1.00  0.00     0.259 C 
BRANCH  16  17
HETATM   17  C   UNL     1      42.161 -15.672   4.561  1.00  0.00     0.015 C 
HETATM   18  C   UNL     1      42.231 -14.145   4.793  1.00  0.00     0.012 C 
HETATM   19  C   UNL     1      40.663 -16.020   4.523  1.00  0.00     0.012 C 
ENDBRANCH  16  17
BRANCH  16  20
HETATM   20  C   UNL     1      43.271 -17.607   3.283  1.00  0.00    -0.003 A 
HETATM   21  C   UNL     1      43.939 -18.238   4.347  1.00  0.00     0.042 A 
HETATM   22 CL   UNL     1      44.429 -17.395   5.771  1.00  0.00    -0.084 Cl
HETATM   23  C   UNL     1      44.231 -19.608   4.295  1.00  0.00     0.024 A 
HETATM   24  C   UNL     1      43.862 -20.371   3.188  1.00  0.00     0.002 A 
HETATM   25  C   UNL     1      43.198 -19.769   2.126  1.00  0.00     0.001 A 
HETATM   26  C   UNL     1      42.909 -18.404   2.171  1.00  0.00     0.011 A 
ENDBRANCH  16  20
ENDBRANCH  14  16
ENDBRANCH   1  14
TORSDOF 6
ENDMDL
MODEL 5
REMARK VINA RESULT:      -7.2      4.248      6.816
REMARK  6 active torsions:
REMARK  status: ('A' for Active; 'I' for Inactive)
REMARK    1  A    between atoms: C_8  and  N_9 
REMARK       I    between atoms: N_9  and  C_10 
REMARK    2  A    between atoms: C_10  and  C_11 
REMARK    3  A    between atoms: C_11  and  N_12 
REMARK    4  A    between atoms: N_12  and  C_13 
REMARK    5  A    between atoms: C_13  and  C_14 
REMARK    6  A    between atoms: C_13  and  C_17 
ROOT
HETATM    1  C   UNL     1      43.808 -13.327   6.680  1.00  0.00     0.372 C 
ENDROOT
BRANCH   1   2
HETATM    2  C   UNL     1      43.915 -11.804   6.594  1.00  0.00     0.250 C 
HETATM    3  N   UNL     1      43.769 -11.184   7.816  1.00  0.00    -0.322 N 
HETATM    4  H   UNL     1      43.400 -11.777   8.554  1.00  0.00     0.169 HD
HETATM    5  O   UNL     1      44.171 -11.264   5.521  1.00  0.00    -0.271 OA
BRANCH   3   6
HETATM    6  C   UNL     1      43.967  -9.845   8.104  1.00  0.00     0.085 A 
HETATM    7  C   UNL     1      42.924  -9.000   8.439  1.00  0.00     0.052 A 
HETATM    8  C   UNL     1      41.461  -9.189   8.565  1.00  0.00     0.072 C 
HETATM    9  N   UNL     1      43.488  -7.773   8.640  1.00  0.00    -0.280 N 
HETATM   10  H   UNL     1      43.025  -6.903   8.882  1.00  0.00     0.189 HD
HETATM   11  N   UNL     1      44.815  -7.755   8.505  1.00  0.00    -0.177 NA
HETATM   12  C   UNL     1      45.131  -9.020   8.182  1.00  0.00     0.079 A 
HETATM   13  C   UNL     1      46.567  -9.354   8.011  1.00  0.00     0.075 C 
ENDBRANCH   3   6
ENDBRANCH   1   2
BRANCH   1  14
HETATM   14  N   UNL     1      43.169 -13.958   5.523  1.00  0.00     0.101 N 
HETATM   15  H   UNL     1      42.623 -13.233   5.056  1.00  0.00     0.317 HD
BRANCH  14  16
HETATM   16  C   UNL     1      42.298 -15.141   5.720  1.00  0.00     0.259 C 
BRANCH  16  17
HETATM   17  C   UNL     1      40.733 -14.973   5.644  1.00  0.00     0.015 C 
HETATM   18  C   UNL     1      40.007 -15.933   6.614  1.00  0.00     0.012 C 
HETATM   19  C   UNL     1      40.245 -13.561   6.010  1.00  0.00     0.012 C 
ENDBRANCH  16  17
BRANCH  16  20
HETATM   20  C   UNL     1      42.796 -16.183   4.698  1.00  0.00    -0.003 A 
HETATM   21  C   UNL     1      43.317 -17.436   5.066  1.00  0.00     0.042 A 
HETATM   22 CL   UNL     1      43.414 -17.960   6.708  1.00  0.00    -0.084 Cl
HETATM   23  C   UNL     1      43.778 -18.331   4.092  1.00  0.00     0.024 A 
HETATM   24  C   UNL     1      43.726 -17.997   2.739  1.00  0.00     0.002 A 
HETATM   25  C   UNL     1      43.213 -16.765   2.352  1.00  0.00     0.001 A 
HETATM   26  C   UNL     1      42.756 -15.868   3.320  1.00  0.00     0.011 A 
ENDBRANCH  16  20
ENDBRANCH  14  16
ENDBRANCH   1  14
TORSDOF 6
ENDMDL
MODEL 6
REMARK VINA RESULT:      -7.2      2.616      4.778
REMARK  6 active torsions:
REMARK  status: ('A' for Active; 'I' for Inactive)
REMARK    1  A    between atoms: C_8  and  N_9 
REMARK       I    between atoms: N_9  and  C_10 
REMARK    2  A    between atoms: C_10  and  C_11 
REMARK    3  A    between atoms: C_11  and  N_12 
REMARK    4  A    between atoms: N_12  and  C_13 
REMARK    5  A    between atoms: C_13  and  C_14 
REMARK    6  A    between atoms: C_13  and  C_17 
ROOT
HETATM    1  C   UNL     1      43.563 -14.162   2.187  1.00  0.00     0.372 C 
ENDROOT
BRANCH   1   2
HETATM    2  C   UNL     1      43.038 -13.006   3.038  1.00  0.00     0.250 C 
HETATM    3  N   UNL     1      43.269 -13.181   4.385  1.00  0.00    -0.322 N 
HETATM    4  H   UNL     1      43.546 -14.121   4.652  1.00  0.00     0.169 HD
HETATM    5  O   UNL     1      42.532 -12.025   2.499  1.00  0.00    -0.271 OA
BRANCH   3   6
HETATM    6  C   UNL     1      43.062 -12.258   5.396  1.00  0.00     0.085 A 
HETATM    7  C   UNL     1      41.805 -11.991   5.907  1.00  0.00     0.052 A 
HETATM    8  C   UNL     1      40.450 -12.497   5.590  1.00  0.00     0.072 C 
HETATM    9  N   UNL     1      41.985 -11.035   6.865  1.00  0.00    -0.280 N 
HETATM   10  H   UNL     1      41.281 -10.583   7.438  1.00  0.00     0.189 HD
HETATM   11  N   UNL     1      43.260 -10.686   7.050  1.00  0.00    -0.177 NA
HETATM   12  C   UNL     1      43.939 -11.430   6.162  1.00  0.00     0.079 A 
HETATM   13  C   UNL     1      45.419 -11.315   6.150  1.00  0.00     0.075 C 
ENDBRANCH   3   6
ENDBRANCH   1   2
BRANCH   1  14
HETATM   14  N   UNL     1      42.653 -15.306   2.087  1.00  0.00     0.101 N 
HETATM   15  H   UNL     1      41.826 -14.982   1.586  1.00  0.00     0.317 HD
BRANCH  14  16
HETATM   16  C   UNL     1      42.207 -15.999   3.320  1.00  0.00     0.259 C 
BRANCH  16  17
HETATM   17  C   UNL     1      40.666 -16.141   3.614  1.00  0.00     0.015 C 
HETATM   18  C   UNL     1      40.369 -16.118   5.132  1.00  0.00     0.012 C 
HETATM   19  C   UNL     1      39.814 -15.014   3.005  1.00  0.00     0.012 C 
ENDBRANCH  16  17
BRANCH  16  20
HETATM   20  C   UNL     1      42.896 -17.378   3.279  1.00  0.00    -0.003 A 
HETATM   21  C   UNL     1      43.832 -17.802   4.237  1.00  0.00     0.042 A 
HETATM   22 CL   UNL     1      44.282 -16.832   5.593  1.00  0.00    -0.084 Cl
HETATM   23  C   UNL     1      44.444 -19.058   4.132  1.00  0.00     0.024 A 
HETATM   24  C   UNL     1      44.132 -19.913   3.076  1.00  0.00     0.002 A 
HETATM   25  C   UNL     1      43.206 -19.516   2.118  1.00  0.00     0.001 A 
HETATM   26  C   UNL     1      42.598 -18.264   2.217  1.00  0.00     0.011 A 
ENDBRANCH  16  20
ENDBRANCH  14  16
ENDBRANCH   1  14
TORSDOF 6
ENDMDL
MODEL 7
REMARK VINA RESULT:      -7.1      1.945      2.853
REMARK  6 active torsions:
REMARK  status: ('A' for Active; 'I' for Inactive)
REMARK    1  A    between atoms: C_8  and  N_9 
REMARK       I    between atoms: N_9  and  C_10 
REMARK    2  A    between atoms: C_10  and  C_11 
REMARK    3  A    between atoms: C_11  and  N_12 
REMARK    4  A    between atoms: N_12  and  C_13 
REMARK    5  A    between atoms: C_13  and  C_14 
REMARK    6  A    between atoms: C_13  and  C_17 
ROOT
HETATM    1  C   UNL     1      39.843 -15.705   2.603  1.00  0.00     0.372 C 
ENDROOT
BRANCH   1   2
HETATM    2  C   UNL     1      39.860 -14.245   2.149  1.00  0.00     0.250 C 
HETATM    3  N   UNL     1      40.755 -14.008   1.129  1.00  0.00    -0.322 N 
HETATM    4  H   UNL     1      41.425 -14.755   0.968  1.00  0.00     0.169 HD
HETATM    5  O   UNL     1      39.079 -13.437   2.646  1.00  0.00    -0.271 OA
BRANCH   3   6
HETATM    6  C   UNL     1      40.899 -12.843   0.396  1.00  0.00     0.085 A 
HETATM    7  C   UNL     1      40.574 -12.771  -0.947  1.00  0.00     0.052 A 
HETATM    8  C   UNL     1      40.063 -13.758  -1.924  1.00  0.00     0.072 C 
HETATM    9  N   UNL     1      40.854 -11.490  -1.330  1.00  0.00    -0.280 N 
HETATM   10  H   UNL     1      40.758 -11.078  -2.252  1.00  0.00     0.189 HD
HETATM   11  N   UNL     1      41.295 -10.711  -0.341  1.00  0.00    -0.177 NA
HETATM   12  C   UNL     1      41.324 -11.521   0.730  1.00  0.00     0.079 A 
HETATM   13  C   UNL     1      41.728 -10.933   2.032  1.00  0.00     0.075 C 
ENDBRANCH   3   6
ENDBRANCH   1   2
BRANCH   1  14
HETATM   14  N   UNL     1      40.386 -15.931   3.945  1.00  0.00     0.101 N 
HETATM   15  H   UNL     1      39.706 -15.554   4.606  1.00  0.00     0.317 HD
BRANCH  14  16
HETATM   16  C   UNL     1      41.722 -15.394   4.297  1.00  0.00     0.259 C 
BRANCH  16  17
HETATM   17  C   UNL     1      41.867 -14.420   5.527  1.00  0.00     0.015 C 
HETATM   18  C   UNL     1      42.780 -13.216   5.199  1.00  0.00     0.012 C 
HETATM   19  C   UNL     1      40.533 -13.816   5.997  1.00  0.00     0.012 C 
ENDBRANCH  16  17
BRANCH  16  20
HETATM   20  C   UNL     1      42.626 -16.633   4.458  1.00  0.00    -0.003 A 
HETATM   21  C   UNL     1      43.291 -17.248   3.383  1.00  0.00     0.042 A 
HETATM   22 CL   UNL     1      43.199 -16.652   1.766  1.00  0.00    -0.084 Cl
HETATM   23  C   UNL     1      44.079 -18.388   3.590  1.00  0.00     0.024 A 
HETATM   24  C   UNL     1      44.220 -18.932   4.866  1.00  0.00     0.002 A 
HETATM   25  C   UNL     1      43.574 -18.339   5.943  1.00  0.00     0.001 A 
HETATM   26  C   UNL     1      42.785 -17.205   5.742  1.00  0.00     0.011 A 
ENDBRANCH  16  20
ENDBRANCH  14  16
ENDBRANCH   1  14
TORSDOF 6
ENDMDL
MODEL 8
REMARK VINA RESULT:      -7.0     14.571     16.573
REMARK  6 active torsions:
REMARK  status: ('A' for Active; 'I' for Inactive)
REMARK    1  A    between atoms: C_8  and  N_9 
REMARK       I    between atoms: N_9  and  C_10 
REMARK    2  A    between atoms: C_10  and  C_11 
REMARK    3  A    between atoms: C_11  and  N_12 
REMARK    4  A    between atoms: N_12  and  C_13 
REMARK    5  A    between atoms: C_13  and  C_14 
REMARK    6  A    between atoms: C_13  and  C_17 
ROOT
HETATM    1  C   UNL     1      45.807 -28.853   2.268  1.00  0.00     0.372 C 
ENDROOT
BRANCH   1   2
HETATM    2  C   UNL     1      47.309 -28.840   1.983  1.00  0.00     0.250 C 
HETATM    3  N   UNL     1      47.705 -29.851   1.136  1.00  0.00    -0.322 N 
HETATM    4  H   UNL     1      47.014 -30.583   0.992  1.00  0.00     0.169 HD
HETATM    5  O   UNL     1      48.016 -27.948   2.446  1.00  0.00    -0.271 OA
BRANCH   3   6
HETATM    6  C   UNL     1      48.953 -30.022   0.562  1.00  0.00     0.085 A 
HETATM    7  C   UNL     1      49.165 -29.889  -0.798  1.00  0.00     0.052 A 
HETATM    8  C   UNL     1      48.274 -29.589  -1.942  1.00  0.00     0.072 C 
HETATM    9  N   UNL     1      50.493 -30.136  -0.995  1.00  0.00    -0.280 N 
HETATM   10  H   UNL     1      51.005 -30.146  -1.871  1.00  0.00     0.189 HD
HETATM   11  N   UNL     1      51.173 -30.379   0.127  1.00  0.00    -0.177 NA
HETATM   12  C   UNL     1      50.247 -30.307   1.097  1.00  0.00     0.079 A 
HETATM   13  C   UNL     1      50.698 -30.481   2.500  1.00  0.00     0.075 C 
ENDBRANCH   3   6
ENDBRANCH   1   2
BRANCH   1  14
HETATM   14  N   UNL     1      44.963 -28.626   1.093  1.00  0.00     0.101 N 
HETATM   15  H   UNL     1      44.234 -27.969   1.375  1.00  0.00     0.317 HD
BRANCH  14  16
HETATM   16  C   UNL     1      44.314 -29.777   0.421  1.00  0.00     0.259 C 
BRANCH  16  17
HETATM   17  C   UNL     1      42.822 -30.139   0.771  1.00  0.00     0.015 C 
HETATM   18  C   UNL     1      42.732 -31.398   1.664  1.00  0.00     0.012 C 
HETATM   19  C   UNL     1      42.080 -29.030   1.537  1.00  0.00     0.012 C 
ENDBRANCH  16  17
BRANCH  16  20
HETATM   20  C   UNL     1      44.484 -29.512  -1.088  1.00  0.00    -0.003 A 
HETATM   21  C   UNL     1      44.324 -30.505  -2.070  1.00  0.00     0.042 A 
HETATM   22 CL   UNL     1      43.876 -32.128  -1.689  1.00  0.00    -0.084 Cl
HETATM   23  C   UNL     1      44.516 -30.208  -3.425  1.00  0.00     0.024 A 
HETATM   24  C   UNL     1      44.867 -28.919  -3.826  1.00  0.00     0.002 A 
HETATM   25  C   UNL     1      45.028 -27.921  -2.874  1.00  0.00     0.001 A 
HETATM   26  C   UNL     1      44.842 -28.214  -1.521  1.00  0.00     0.011 A 
ENDBRANCH  16  20
ENDBRANCH  14  16
ENDBRANCH   1  14
TORSDOF 6
ENDMDL
MODEL 9
REMARK VINA RESULT:      -6.8      3.075      6.493
REMARK  6 active torsions:
REMARK  status: ('A' for Active; 'I' for Inactive)
REMARK    1  A    between atoms: C_8  and  N_9 
REMARK       I    between atoms: N_9  and  C_10 
REMARK    2  A    between atoms: C_10  and  C_11 
REMARK    3  A    between atoms: C_11  and  N_12 
REMARK    4  A    between atoms: N_12  and  C_13 
REMARK    5  A    between atoms: C_13  and  C_14 
REMARK    6  A    between atoms: C_13  and  C_17 
ROOT
HETATM    1  C   UNL     1      39.291 -12.874   3.373  1.00  0.00     0.372 C 
ENDROOT
BRANCH   1   2
HETATM    2  C   UNL     1      39.909 -13.041   4.762  1.00  0.00     0.250 C 
HETATM    3  N   UNL     1      41.252 -13.347   4.721  1.00  0.00    -0.322 N 
HETATM    4  H   UNL     1      41.597 -13.633   3.809  1.00  0.00     0.169 HD
HETATM    5  O   UNL     1      39.230 -12.842   5.766  1.00  0.00    -0.271 OA
BRANCH   3   6
HETATM    6  C   UNL     1      42.130 -13.407   5.789  1.00  0.00     0.085 A 
HETATM    7  C   UNL     1      42.175 -14.489   6.648  1.00  0.00     0.052 A 
HETATM    8  C   UNL     1      41.409 -15.754   6.733  1.00  0.00     0.072 C 
HETATM    9  N   UNL     1      43.137 -14.194   7.571  1.00  0.00    -0.280 N 
HETATM   10  H   UNL     1      43.432 -14.750   8.367  1.00  0.00     0.189 HD
HETATM   11  N   UNL     1      43.751 -13.028   7.362  1.00  0.00    -0.177 NA
HETATM   12  C   UNL     1      43.152 -12.531   6.268  1.00  0.00     0.079 A 
HETATM   13  C   UNL     1      43.652 -11.240   5.731  1.00  0.00     0.075 C 
ENDBRANCH   3   6
ENDBRANCH   1   2
BRANCH   1  14
HETATM   14  N   UNL     1      39.385 -14.061   2.519  1.00  0.00     0.101 N 
HETATM   15  H   UNL     1      39.215 -14.869   3.119  1.00  0.00     0.317 HD
BRANCH  14  16
HETATM   16  C   UNL     1      40.623 -14.311   1.743  1.00  0.00     0.259 C 
BRANCH  16  17
HETATM   17  C   UNL     1      41.295 -15.735   1.793  1.00  0.00     0.015 C 
HETATM   18  C   UNL     1      42.819 -15.658   1.545  1.00  0.00     0.012 C 
HETATM   19  C   UNL     1      41.128 -16.450   3.145  1.00  0.00     0.012 C 
ENDBRANCH  16  17
BRANCH  16  20
HETATM   20  C   UNL     1      40.279 -13.908   0.295  1.00  0.00    -0.003 A 
HETATM   21  C   UNL     1      40.535 -12.630  -0.232  1.00  0.00     0.042 A 
HETATM   22 CL   UNL     1      41.304 -11.383   0.680  1.00  0.00    -0.084 Cl
HETATM   23  C   UNL     1      40.176 -12.316  -1.549  1.00  0.00     0.024 A 
HETATM   24  C   UNL     1      39.561 -13.266  -2.364  1.00  0.00     0.002 A 
HETATM   25  C   UNL     1      39.301 -14.536  -1.865  1.00  0.00     0.001 A 
HETATM   26  C   UNL     1      39.653 -14.853  -0.551  1.00  0.00     0.011 A 
ENDBRANCH  16  20
ENDBRANCH  14  16
ENDBRANCH   1  14
TORSDOF 6
ENDMDL
MODEL 10
REMARK VINA RESULT:      -6.7      3.400      7.285
REMARK  6 active torsions:
REMARK  status: ('A' for Active; 'I' for Inactive)
REMARK    1  A    between atoms: C_8  and  N_9 
REMARK       I    between atoms: N_9  and  C_10 
REMARK    2  A    between atoms: C_10  and  C_11 
REMARK    3  A    between atoms: C_11  and  N_12 
REMARK    4  A    between atoms: N_12  and  C_13 
REMARK    5  A    between atoms: C_13  and  C_14 
REMARK    6  A    between atoms: C_13  and  C_17 
ROOT
HETATM    1  C   UNL     1      42.017 -14.989   1.463  1.00  0.00     0.372 C 
ENDROOT
BRANCH   1   2
HETATM    2  C   UNL     1      42.006 -16.224   2.365  1.00  0.00     0.250 C 
HETATM    3  N   UNL     1      43.208 -16.896   2.371  1.00  0.00    -0.322 N 
HETATM    4  H   UNL     1      43.852 -16.627   1.632  1.00  0.00     0.169 HD
HETATM    5  O   UNL     1      41.011 -16.488   3.034  1.00  0.00    -0.271 OA
BRANCH   3   6
HETATM    6  C   UNL     1      43.574 -17.949   3.192  1.00  0.00     0.085 A 
HETATM    7  C   UNL     1      43.922 -17.765   4.518  1.00  0.00     0.052 A 
HETATM    8  C   UNL     1      44.032 -16.569   5.384  1.00  0.00     0.072 C 
HETATM    9  N   UNL     1      44.230 -19.005   4.999  1.00  0.00    -0.280 N 
HETATM   10  H   UNL     1      44.545 -19.254   5.930  1.00  0.00     0.189 HD
HETATM   11  N   UNL     1      44.073 -19.987   4.110  1.00  0.00    -0.177 NA
HETATM   12  C   UNL     1      43.664 -19.361   2.995  1.00  0.00     0.079 A 
HETATM   13  C   UNL     1      43.343 -20.196   1.810  1.00  0.00     0.075 C 
ENDBRANCH   3   6
ENDBRANCH   1   2
BRANCH   1  14
HETATM   14  N   UNL     1      40.807 -14.816   0.654  1.00  0.00     0.101 N 
HETATM   15  H   UNL     1      40.989 -15.260  -0.246  1.00  0.00     0.317 HD
BRANCH  14  16
HETATM   16  C   UNL     1      40.281 -13.453   0.403  1.00  0.00     0.259 C 
BRANCH  16  17
HETATM   17  C   UNL     1      41.287 -12.251   0.247  1.00  0.00     0.015 C 
HETATM   18  C   UNL     1      41.161 -11.575  -1.138  1.00  0.00     0.012 C 
HETATM   19  C   UNL     1      41.074 -11.130   1.279  1.00  0.00     0.012 C 
ENDBRANCH  16  17
BRANCH  16  20
HETATM   20  C   UNL     1      39.381 -13.591  -0.841  1.00  0.00    -0.003 A 
HETATM   21  C   UNL     1      38.237 -12.804  -1.058  1.00  0.00     0.042 A 
HETATM   22 CL   UNL     1      37.738 -11.564   0.035  1.00  0.00    -0.084 Cl
HETATM   23  C   UNL     1      37.444 -12.995  -2.197  1.00  0.00     0.024 A 
HETATM   24  C   UNL     1      37.777 -13.967  -3.140  1.00  0.00     0.002 A 
HETATM   25  C   UNL     1      38.906 -14.754  -2.948  1.00  0.00     0.001 A 
HETATM   26  C   UNL     1      39.697 -14.571  -1.812  1.00  0.00     0.011 A 
ENDBRANCH  16  20
ENDBRANCH  14  16
ENDBRANCH   1  14
TORSDOF 6
ENDMDL
