MODEL 1
REMARK VINA RESULT:      -8.6      0.000      0.000
REMARK  7 active torsions:
REMARK  status: ('A' for Active; 'I' for Inactive)
REMARK    1  A    between atoms: C_3  and  N_4 
REMARK       I    between atoms: N_4  and  C_5 
REMARK    2  A    between atoms: C_5  and  C_6 
REMARK    3  A    between atoms: C_7  and  C_8 
REMARK    4  A    between atoms: C_19  and  C_20 
REMARK    5  A    between atoms: C_20  and  C_21 
REMARK    6  A    between atoms: C_21  and  C_22 
REMARK    7  A    between atoms: C_22  and  O_23 
ROOT
HETATM    1  C   UNL     1      40.845 -12.242   3.229  1.00  0.00     0.062 A 
HETATM    2  C   UNL     1      42.338 -12.561   3.226  1.00  0.00     0.202 A 
HETATM    3  N   UNL     1      43.014 -12.007   4.405  1.00  0.00    -0.083 N 
HETATM    4  C   UNL     1      42.388 -11.260   5.365  1.00  0.00     0.726 A 
HETATM    5  N   UNL     1      41.069 -11.019   5.257  1.00  0.00    -0.192 N 
HETATM    6  N   UNL     1      44.348 -12.051   4.611  1.00  0.00    -0.140 NA
HETATM    7  C   UNL     1      44.442 -11.392   5.775  1.00  0.00     0.166 A 
HETATM    8  N   UNL     1      43.262 -10.880   6.261  1.00  0.00    -0.046 NA
HETATM    9  C   UNL     1      40.282 -11.505   4.219  1.00  0.00     0.037 A 
HETATM   10  C   UNL     1      38.819 -11.137   4.284  1.00  0.00     0.070 C 
HETATM   11  H   UNL     1      40.609 -10.483   5.987  1.00  0.00     0.184 HD
ENDROOT
BRANCH   1  12
HETATM   12  C   UNL     1      40.005 -12.888   2.178  1.00  0.00     0.256 C 
HETATM   13  N   UNL     1      40.028 -12.220   0.975  1.00  0.00    -0.323 N 
HETATM   14  H   UNL     1      40.285 -11.243   1.014  1.00  0.00     0.169 HD
HETATM   15  O   UNL     1      39.360 -13.890   2.453  1.00  0.00    -0.267 OA
BRANCH  13  16
HETATM   16  C   UNL     1      39.524 -12.654  -0.275  1.00  0.00     0.041 A 
HETATM   17  C   UNL     1      38.376 -12.171  -0.930  1.00  0.00    -0.035 A 
HETATM   18  C   UNL     1      37.421 -11.150  -0.372  1.00  0.00     0.050 C 
HETATM   19  C   UNL     1      38.044 -12.698  -2.197  1.00  0.00     0.009 A 
HETATM   20  C   UNL     1      38.787 -13.722  -2.778  1.00  0.00     0.001 A 
HETATM   21  C   UNL     1      39.879 -14.244  -2.101  1.00  0.00     0.002 A 
HETATM   22  C   UNL     1      40.239 -13.716  -0.860  1.00  0.00     0.030 A 
ENDBRANCH  13  16
ENDBRANCH   1  12
BRANCH   2  23
HETATM   23  C   UNL     1      42.649 -14.049   3.084  1.00  0.00    -0.028 A 
HETATM   24  C   UNL     1      43.158 -14.541   1.868  1.00  0.00     0.011 A 
HETATM   25  C   UNL     1      43.421 -15.903   1.707  1.00  0.00     0.024 A 
HETATM   26  C   UNL     1      43.181 -16.784   2.757  1.00  0.00     0.034 A 
HETATM   27 CL   UNL     1      43.496 -18.462   2.552  1.00  0.00    -0.084 Cl
HETATM   28  C   UNL     1      42.686 -16.314   3.972  1.00  0.00     0.024 A 
HETATM   29  C   UNL     1      42.423 -14.951   4.137  1.00  0.00     0.011 A 
ENDBRANCH   2  23
BRANCH   7  30
HETATM   30  C   UNL     1      45.731 -11.190   6.485  1.00  0.00     0.085 C 
BRANCH  30  31
HETATM   31  C   UNL     1      45.560 -10.801   7.951  1.00  0.00     0.034 C 
BRANCH  31  32
HETATM   32  C   UNL     1      45.881  -9.335   8.222  1.00  0.00     0.164 C 
BRANCH  32  33
HETATM   33  O   UNL     1      47.002  -8.940   7.436  1.00  0.00    -0.401 OA
HETATM   34  H   UNL     1      46.781  -8.091   7.017  1.00  0.00     0.209 HD
ENDBRANCH  32  33
ENDBRANCH  31  32
ENDBRANCH  30  31
ENDBRANCH   7  30
TORSDOF 7
ENDMDL
MODEL 2
REMARK VINA RESULT:      -8.3      3.457      6.645
REMARK  7 active torsions:
REMARK  status: ('A' for Active; 'I' for Inactive)
REMARK    1  A    between atoms: C_3  and  N_4 
REMARK       I    between atoms: N_4  and  C_5 
REMARK    2  A    between atoms: C_5  and  C_6 
REMARK    3  A    between atoms: C_7  and  C_8 
REMARK    4  A    between atoms: C_19  and  C_20 
REMARK    5  A    between atoms: C_20  and  C_21 
REMARK    6  A    between atoms: C_21  and  C_22 
REMARK    7  A    between atoms: C_22  and  O_23 
ROOT
HETATM    1  C   UNL     1      41.591 -13.923   1.849  1.00  0.00     0.062 A 
HETATM    2  C   UNL     1      41.911 -12.471   2.198  1.00  0.00     0.202 A 
HETATM    3  N   UNL     1      40.733 -11.607   2.052  1.00  0.00    -0.083 N 
HETATM    4  C   UNL     1      39.513 -12.044   1.616  1.00  0.00     0.726 A 
HETATM    5  N   UNL     1      39.346 -13.344   1.314  1.00  0.00    -0.192 N 
HETATM    6  N   UNL     1      40.749 -10.264   2.198  1.00  0.00    -0.140 NA
HETATM    7  C   UNL     1      39.469  -9.969   1.931  1.00  0.00     0.166 A 
HETATM    8  N   UNL     1      38.684 -11.034   1.557  1.00  0.00    -0.046 NA
HETATM    9  C   UNL     1      40.354 -14.294   1.434  1.00  0.00     0.037 A 
HETATM   10  C   UNL     1      39.966 -15.705   1.059  1.00  0.00     0.070 C 
HETATM   11  H   UNL     1      38.430 -13.662   1.014  1.00  0.00     0.184 HD
ENDROOT
BRANCH   1  12
HETATM   12  C   UNL     1      42.650 -14.940   2.116  1.00  0.00     0.256 C 
HETATM   13  N   UNL     1      42.291 -15.864   3.070  1.00  0.00    -0.323 N 
HETATM   14  H   UNL     1      41.564 -15.578   3.713  1.00  0.00     0.169 HD
HETATM   15  O   UNL     1      43.720 -14.866   1.527  1.00  0.00    -0.267 OA
BRANCH  13  16
HETATM   16  C   UNL     1      42.954 -17.066   3.416  1.00  0.00     0.041 A 
HETATM   17  C   UNL     1      43.664 -17.321   4.604  1.00  0.00    -0.035 A 
HETATM   18  C   UNL     1      43.918 -16.319   5.697  1.00  0.00     0.050 C 
HETATM   19  C   UNL     1      44.232 -18.599   4.796  1.00  0.00     0.009 A 
HETATM   20  C   UNL     1      44.159 -19.584   3.814  1.00  0.00     0.001 A 
HETATM   21  C   UNL     1      43.517 -19.309   2.616  1.00  0.00     0.002 A 
HETATM   22  C   UNL     1      42.925 -18.061   2.420  1.00  0.00     0.030 A 
ENDBRANCH  13  16
ENDBRANCH   1  12
BRANCH   2  23
HETATM   23  C   UNL     1      42.535 -12.293   3.579  1.00  0.00    -0.028 A 
HETATM   24  C   UNL     1      41.825 -12.703   4.722  1.00  0.00     0.011 A 
HETATM   25  C   UNL     1      42.363 -12.523   5.997  1.00  0.00     0.024 A 
HETATM   26  C   UNL     1      43.616 -11.934   6.143  1.00  0.00     0.034 A 
HETATM   27 CL   UNL     1      44.273 -11.704   7.715  1.00  0.00    -0.084 Cl
HETATM   28  C   UNL     1      44.339 -11.531   5.022  1.00  0.00     0.024 A 
HETATM   29  C   UNL     1      43.804 -11.711   3.744  1.00  0.00     0.011 A 
ENDBRANCH   2  23
BRANCH   7  30
HETATM   30  C   UNL     1      38.931  -8.587   1.996  1.00  0.00     0.085 C 
BRANCH  30  31
HETATM   31  C   UNL     1      37.831  -8.414   3.041  1.00  0.00     0.034 C 
BRANCH  31  32
HETATM   32  C   UNL     1      38.265  -8.833   4.441  1.00  0.00     0.164 C 
BRANCH  32  33
HETATM   33  O   UNL     1      37.120  -8.946   5.281  1.00  0.00    -0.401 OA
HETATM   34  H   UNL     1      36.928  -8.060   5.635  1.00  0.00     0.209 HD
ENDBRANCH  32  33
ENDBRANCH  31  32
ENDBRANCH  30  31
ENDBRANCH   7  30
TORSDOF 7
ENDMDL
MODEL 3
REMARK VINA RESULT:      -8.1      2.221      7.638
REMARK  7 active torsions:
REMARK  status: ('A' for Active; 'I' for Inactive)
REMARK    1  A    between atoms: C_3  and  N_4 
REMARK       I    between atoms: N_4  and  C_5 
REMARK    2  A    between atoms: C_5  and  C_6 
REMARK    3  A    between atoms: C_7  and  C_8 
REMARK    4  A    between atoms: C_19  and  C_20 
REMARK    5  A    between atoms: C_20  and  C_21 
REMARK    6  A    between atoms: C_21  and  C_22 
REMARK    7  A    between atoms: C_22  and  O_23 
ROOT
HETATM    1  C   UNL     1      40.503 -12.498   2.363  1.00  0.00     0.062 A 
HETATM    2  C   UNL     1      40.144 -13.856   1.765  1.00  0.00     0.202 A 
HETATM    3  N   UNL     1      39.961 -13.777   0.310  1.00  0.00    -0.083 N 
HETATM    4  C   UNL     1      40.058 -12.619  -0.411  1.00  0.00     0.726 A 
HETATM    5  N   UNL     1      40.358 -11.471   0.221  1.00  0.00    -0.192 N 
HETATM    6  N   UNL     1      39.542 -14.802  -0.463  1.00  0.00    -0.140 NA
HETATM    7  C   UNL     1      39.507 -14.210  -1.666  1.00  0.00     0.166 A 
HETATM    8  N   UNL     1      39.804 -12.867  -1.670  1.00  0.00    -0.046 NA
HETATM    9  C   UNL     1      40.597 -11.387   1.588  1.00  0.00     0.037 A 
HETATM   10  C   UNL     1      40.933 -10.010   2.108  1.00  0.00     0.070 C 
HETATM   11  H   UNL     1      40.451 -10.621  -0.327  1.00  0.00     0.184 HD
ENDROOT
BRANCH   1  12
HETATM   12  C   UNL     1      40.885 -12.464   3.805  1.00  0.00     0.256 C 
HETATM   13  N   UNL     1      42.246 -12.471   4.009  1.00  0.00    -0.323 N 
HETATM   14  H   UNL     1      42.806 -12.843   3.254  1.00  0.00     0.169 HD
HETATM   15  O   UNL     1      40.011 -12.469   4.661  1.00  0.00    -0.267 OA
BRANCH  13  16
HETATM   16  C   UNL     1      42.950 -12.242   5.216  1.00  0.00     0.041 A 
HETATM   17  C   UNL     1      43.494 -13.221   6.069  1.00  0.00    -0.035 A 
HETATM   18  C   UNL     1      43.351 -14.708   5.889  1.00  0.00     0.050 C 
HETATM   19  C   UNL     1      44.201 -12.804   7.218  1.00  0.00     0.009 A 
HETATM   20  C   UNL     1      44.315 -11.458   7.555  1.00  0.00     0.001 A 
HETATM   21  C   UNL     1      43.721 -10.498   6.749  1.00  0.00     0.002 A 
HETATM   22  C   UNL     1      43.042 -10.889   5.594  1.00  0.00     0.030 A 
ENDBRANCH  13  16
ENDBRANCH   1  12
BRANCH   2  23
HETATM   23  C   UNL     1      41.132 -14.964   2.117  1.00  0.00    -0.028 A 
HETATM   24  C   UNL     1      42.386 -15.009   1.479  1.00  0.00     0.011 A 
HETATM   25  C   UNL     1      43.293 -16.030   1.764  1.00  0.00     0.024 A 
HETATM   26  C   UNL     1      42.960 -17.015   2.690  1.00  0.00     0.034 A 
HETATM   27 CL   UNL     1      44.075 -18.278   3.032  1.00  0.00    -0.084 Cl
HETATM   28  C   UNL     1      41.727 -16.982   3.340  1.00  0.00     0.024 A 
HETATM   29  C   UNL     1      40.817 -15.960   3.058  1.00  0.00     0.011 A 
ENDBRANCH   2  23
BRANCH   7  30
HETATM   30  C   UNL     1      39.141 -14.933  -2.909  1.00  0.00     0.085 C 
BRANCH  30  31
HETATM   31  C   UNL     1      38.049 -14.234  -3.716  1.00  0.00     0.034 C 
BRANCH  31  32
HETATM   32  C   UNL     1      37.055 -13.474  -2.844  1.00  0.00     0.164 C 
BRANCH  32  33
HETATM   33  O   UNL     1      37.139 -12.081  -3.130  1.00  0.00    -0.401 OA
HETATM   34  H   UNL     1      36.517 -11.623  -2.539  1.00  0.00     0.209 HD
ENDBRANCH  32  33
ENDBRANCH  31  32
ENDBRANCH  30  31
ENDBRANCH   7  30
TORSDOF 7
ENDMDL
MODEL 4
REMARK VINA RESULT:      -7.9      3.765      6.862
REMARK  7 active torsions:
REMARK  status: ('A' for Active; 'I' for Inactive)
REMARK    1  A    between atoms: C_3  and  N_4 
REMARK       I    between atoms: N_4  and  C_5 
REMARK    2  A    between atoms: C_5  and  C_6 
REMARK    3  A    between atoms: C_7  and  C_8 
REMARK    4  A    between atoms: C_19  and  C_20 
REMARK    5  A    between atoms: C_20  and  C_21 
REMARK    6  A    between atoms: C_21  and  C_22 
REMARK    7  A    between atoms: C_22  and  O_23 
ROOT
HETATM    1  C   UNL     1      41.050 -13.214   0.486  1.00  0.00     0.062 A 
HETATM    2  C   UNL     1      41.794 -11.929   0.842  1.00  0.00     0.202 A 
HETATM    3  N   UNL     1      41.507 -10.853  -0.115  1.00  0.00    -0.083 N 
HETATM    4  C   UNL     1      40.705 -11.001  -1.214  1.00  0.00     0.726 A 
HETATM    5  N   UNL     1      40.115 -12.187  -1.446  1.00  0.00    -0.192 N 
HETATM    6  N   UNL     1      42.102  -9.642  -0.103  1.00  0.00    -0.140 NA
HETATM    7  C   UNL     1      41.531  -9.071  -1.173  1.00  0.00     0.166 A 
HETATM    8  N   UNL     1      40.678  -9.880  -1.887  1.00  0.00    -0.046 NA
HETATM    9  C   UNL     1      40.258 -13.291  -0.614  1.00  0.00     0.037 A 
HETATM   10  C   UNL     1      39.504 -14.529  -1.038  1.00  0.00     0.070 C 
HETATM   11  H   UNL     1      39.503 -12.279  -2.251  1.00  0.00     0.184 HD
ENDROOT
BRANCH   1  12
HETATM   12  C   UNL     1      41.116 -14.337   1.466  1.00  0.00     0.256 C 
HETATM   13  N   UNL     1      42.359 -14.923   1.541  1.00  0.00    -0.323 N 
HETATM   14  H   UNL     1      42.956 -14.802   0.734  1.00  0.00     0.169 HD
HETATM   15  O   UNL     1      40.108 -14.665   2.077  1.00  0.00    -0.267 OA
BRANCH  13  16
HETATM   16  C   UNL     1      42.827 -15.860   2.494  1.00  0.00     0.041 A 
HETATM   17  C   UNL     1      43.037 -15.629   3.866  1.00  0.00    -0.035 A 
HETATM   18  C   UNL     1      42.876 -14.302   4.558  1.00  0.00     0.050 C 
HETATM   19  C   UNL     1      43.474 -16.698   4.677  1.00  0.00     0.009 A 
HETATM   20  C   UNL     1      43.761 -17.950   4.140  1.00  0.00     0.001 A 
HETATM   21  C   UNL     1      43.618 -18.159   2.776  1.00  0.00     0.002 A 
HETATM   22  C   UNL     1      43.160 -17.121   1.963  1.00  0.00     0.030 A 
ENDBRANCH  13  16
ENDBRANCH   1  12
BRANCH   2  23
HETATM   23  C   UNL     1      41.548 -11.451   2.270  1.00  0.00    -0.028 A 
HETATM   24  C   UNL     1      42.640 -11.113   3.090  1.00  0.00     0.011 A 
HETATM   25  C   UNL     1      42.440 -10.703   4.409  1.00  0.00     0.024 A 
HETATM   26  C   UNL     1      41.148 -10.623   4.920  1.00  0.00     0.034 A 
HETATM   27 CL   UNL     1      40.904 -10.126   6.549  1.00  0.00    -0.084 Cl
HETATM   28  C   UNL     1      40.053 -10.944   4.121  1.00  0.00     0.024 A 
HETATM   29  C   UNL     1      40.250 -11.354   2.800  1.00  0.00     0.011 A 
ENDBRANCH   2  23
BRANCH   7  30
HETATM   30  C   UNL     1      41.816  -7.675  -1.591  1.00  0.00     0.085 C 
BRANCH  30  31
HETATM   31  C   UNL     1      43.307  -7.358  -1.665  1.00  0.00     0.034 C 
BRANCH  31  32
HETATM   32  C   UNL     1      43.649  -5.965  -1.149  1.00  0.00     0.164 C 
BRANCH  32  33
HETATM   33  O   UNL     1      44.849  -5.509  -1.767  1.00  0.00    -0.401 OA
HETATM   34  H   UNL     1      45.581  -5.688  -1.153  1.00  0.00     0.209 HD
ENDBRANCH  32  33
ENDBRANCH  31  32
ENDBRANCH  30  31
ENDBRANCH   7  30
TORSDOF 7
ENDMDL
MODEL 5
REMARK VINA RESULT:      -7.9      3.366      5.883
REMARK  7 active torsions:
REMARK  status: ('A' for Active; 'I' for Inactive)
REMARK    1  A    between atoms: C_3  and  N_4 
REMARK       I    between atoms: N_4  and  C_5 
REMARK    2  A    between atoms: C_5  and  C_6 
REMARK    3  A    between atoms: C_7  and  C_8 
REMARK    4  A    between atoms: C_19  and  C_20 
REMARK    5  A    between atoms: C_20  and  C_21 
REMARK    6  A    between atoms: C_21  and  C_22 
REMARK    7  A    between atoms: C_22  and  O_23 
ROOT
HETATM    1  C   UNL     1      41.612 -13.599   5.665  1.00  0.00     0.062 A 
HETATM    2  C   UNL     1      40.627 -12.611   5.043  1.00  0.00     0.202 A 
HETATM    3  N   UNL     1      40.883 -11.236   5.490  1.00  0.00    -0.083 N 
HETATM    4  C   UNL     1      41.857 -10.892   6.387  1.00  0.00     0.726 A 
HETATM    5  N   UNL     1      42.656 -11.849   6.892  1.00  0.00    -0.192 N 
HETATM    6  N   UNL     1      40.108 -10.176   5.178  1.00  0.00    -0.140 NA
HETATM    7  C   UNL     1      40.739  -9.200   5.847  1.00  0.00     0.166 A 
HETATM    8  N   UNL     1      41.808  -9.605   6.611  1.00  0.00    -0.046 NA
HETATM    9  C   UNL     1      42.564 -13.190   6.541  1.00  0.00     0.037 A 
HETATM   10  C   UNL     1      43.562 -14.108   7.206  1.00  0.00     0.070 C 
HETATM   11  H   UNL     1      43.391 -11.580   7.540  1.00  0.00     0.184 HD
ENDROOT
BRANCH   1  12
HETATM   12  C   UNL     1      41.576 -15.005   5.168  1.00  0.00     0.256 C 
HETATM   13  N   UNL     1      42.617 -15.310   4.321  1.00  0.00    -0.323 N 
HETATM   14  H   UNL     1      43.058 -14.527   3.859  1.00  0.00     0.169 HD
HETATM   15  O   UNL     1      40.655 -15.740   5.499  1.00  0.00    -0.267 OA
BRANCH  13  16
HETATM   16  C   UNL     1      43.005 -16.583   3.836  1.00  0.00     0.041 A 
HETATM   17  C   UNL     1      42.524 -17.223   2.679  1.00  0.00    -0.035 A 
HETATM   18  C   UNL     1      41.437 -16.695   1.782  1.00  0.00     0.050 C 
HETATM   19  C   UNL     1      43.057 -18.482   2.327  1.00  0.00     0.009 A 
HETATM   20  C   UNL     1      43.993 -19.128   3.130  1.00  0.00     0.001 A 
HETATM   21  C   UNL     1      44.417 -18.526   4.306  1.00  0.00     0.002 A 
HETATM   22  C   UNL     1      43.923 -17.269   4.655  1.00  0.00     0.030 A 
ENDBRANCH  13  16
ENDBRANCH   1  12
BRANCH   2  23
HETATM   23  C   UNL     1      40.573 -12.674   3.519  1.00  0.00    -0.028 A 
HETATM   24  C   UNL     1      41.671 -12.222   2.764  1.00  0.00     0.011 A 
HETATM   25  C   UNL     1      41.631 -12.242   1.368  1.00  0.00     0.024 A 
HETATM   26  C   UNL     1      40.498 -12.716   0.715  1.00  0.00     0.034 A 
HETATM   27 CL   UNL     1      40.448 -12.731  -1.005  1.00  0.00    -0.084 Cl
HETATM   28  C   UNL     1      39.405 -13.178   1.445  1.00  0.00     0.024 A 
HETATM   29  C   UNL     1      39.442 -13.160   2.842  1.00  0.00     0.011 A 
ENDBRANCH   2  23
BRANCH   7  30
HETATM   30  C   UNL     1      40.303  -7.781   5.804  1.00  0.00     0.085 C 
BRANCH  30  31
HETATM   31  C   UNL     1      38.899  -7.562   6.362  1.00  0.00     0.034 C 
BRANCH  31  32
HETATM   32  C   UNL     1      37.814  -7.621   5.293  1.00  0.00     0.164 C 
BRANCH  32  33
HETATM   33  O   UNL     1      37.221  -8.916   5.286  1.00  0.00    -0.401 OA
HETATM   34  H   UNL     1      37.140  -9.196   4.358  1.00  0.00     0.209 HD
ENDBRANCH  32  33
ENDBRANCH  31  32
ENDBRANCH  30  31
ENDBRANCH   7  30
TORSDOF 7
ENDMDL
MODEL 6
REMARK VINA RESULT:      -7.9      2.931      5.823
REMARK  7 active torsions:
REMARK  status: ('A' for Active; 'I' for Inactive)
REMARK    1  A    between atoms: C_3  and  N_4 
REMARK       I    between atoms: N_4  and  C_5 
REMARK    2  A    between atoms: C_5  and  C_6 
REMARK    3  A    between atoms: C_7  and  C_8 
REMARK    4  A    between atoms: C_19  and  C_20 
REMARK    5  A    between atoms: C_20  and  C_21 
REMARK    6  A    between atoms: C_21  and  C_22 
REMARK    7  A    between atoms: C_22  and  O_23 
ROOT
HETATM    1  C   UNL     1      42.612 -14.910   5.857  1.00  0.00     0.062 A 
HETATM    2  C   UNL     1      41.668 -13.778   5.459  1.00  0.00     0.202 A 
HETATM    3  N   UNL     1      42.152 -12.476   5.934  1.00  0.00    -0.083 N 
HETATM    4  C   UNL     1      43.286 -12.307   6.680  1.00  0.00     0.726 A 
HETATM    5  N   UNL     1      44.035 -13.379   6.994  1.00  0.00    -0.192 N 
HETATM    6  N   UNL     1      41.469 -11.317   5.812  1.00  0.00    -0.140 NA
HETATM    7  C   UNL     1      42.307 -10.468   6.423  1.00  0.00     0.166 A 
HETATM    8  N   UNL     1      43.426 -11.041   6.980  1.00  0.00    -0.046 NA
HETATM    9  C   UNL     1      43.731 -14.673   6.588  1.00  0.00     0.037 A 
HETATM   10  C   UNL     1      44.703 -15.740   7.031  1.00  0.00     0.070 C 
HETATM   11  H   UNL     1      44.888 -13.239   7.528  1.00  0.00     0.184 HD
ENDROOT
BRANCH   1  12
HETATM   12  C   UNL     1      42.333 -16.263   5.295  1.00  0.00     0.256 C 
HETATM   13  N   UNL     1      43.420 -16.826   4.664  1.00  0.00    -0.323 N 
HETATM   14  H   UNL     1      44.128 -16.181   4.340  1.00  0.00     0.169 HD
HETATM   15  O   UNL     1      41.211 -16.740   5.395  1.00  0.00    -0.267 OA
BRANCH  13  16
HETATM   16  C   UNL     1      43.572 -18.157   4.206  1.00  0.00     0.041 A 
HETATM   17  C   UNL     1      43.339 -18.628   2.901  1.00  0.00    -0.035 A 
HETATM   18  C   UNL     1      42.802 -17.804   1.762  1.00  0.00     0.050 C 
HETATM   19  C   UNL     1      43.582 -19.989   2.616  1.00  0.00     0.009 A 
HETATM   20  C   UNL     1      43.981 -20.882   3.607  1.00  0.00     0.001 A 
HETATM   21  C   UNL     1      44.145 -20.431   4.908  1.00  0.00     0.002 A 
HETATM   22  C   UNL     1      43.938 -19.083   5.203  1.00  0.00     0.030 A 
ENDBRANCH  13  16
ENDBRANCH   1  12
BRANCH   2  23
HETATM   23  C   UNL     1      41.372 -13.722   3.963  1.00  0.00    -0.028 A 
HETATM   24  C   UNL     1      40.041 -13.802   3.513  1.00  0.00     0.011 A 
HETATM   25  C   UNL     1      39.749 -13.783   2.148  1.00  0.00     0.024 A 
HETATM   26  C   UNL     1      40.782 -13.681   1.220  1.00  0.00     0.034 A 
HETATM   27 CL   UNL     1      40.420 -13.668  -0.461  1.00  0.00    -0.084 Cl
HETATM   28  C   UNL     1      42.105 -13.591   1.646  1.00  0.00     0.024 A 
HETATM   29  C   UNL     1      42.401 -13.608   3.012  1.00  0.00     0.011 A 
ENDBRANCH   2  23
BRANCH   7  30
HETATM   30  C   UNL     1      42.041  -9.011   6.530  1.00  0.00     0.085 C 
BRANCH  30  31
HETATM   31  C   UNL     1      41.952  -8.516   7.972  1.00  0.00     0.034 C 
BRANCH  31  32
HETATM   32  C   UNL     1      43.047  -7.517   8.330  1.00  0.00     0.164 C 
BRANCH  32  33
HETATM   33  O   UNL     1      44.320  -8.148   8.228  1.00  0.00    -0.401 OA
HETATM   34  H   UNL     1      44.561  -8.466   9.115  1.00  0.00     0.209 HD
ENDBRANCH  32  33
ENDBRANCH  31  32
ENDBRANCH  30  31
ENDBRANCH   7  30
TORSDOF 7
ENDMDL
MODEL 7
REMARK VINA RESULT:      -7.8      2.940      6.686
REMARK  7 active torsions:
REMARK  status: ('A' for Active; 'I' for Inactive)
REMARK    1  A    between atoms: C_3  and  N_4 
REMARK       I    between atoms: N_4  and  C_5 
REMARK    2  A    between atoms: C_5  and  C_6 
REMARK    3  A    between atoms: C_7  and  C_8 
REMARK    4  A    between atoms: C_19  and  C_20 
REMARK    5  A    between atoms: C_20  and  C_21 
REMARK    6  A    between atoms: C_21  and  C_22 
REMARK    7  A    between atoms: C_22  and  O_23 
ROOT
HETATM    1  C   UNL     1      42.419 -12.691   3.200  1.00  0.00     0.062 A 
HETATM    2  C   UNL     1      40.944 -12.599   2.819  1.00  0.00     0.202 A 
HETATM    3  N   UNL     1      40.416 -11.243   3.013  1.00  0.00    -0.083 N 
HETATM    4  C   UNL     1      41.148 -10.202   3.514  1.00  0.00     0.726 A 
HETATM    5  N   UNL     1      42.438 -10.399   3.840  1.00  0.00    -0.192 N 
HETATM    6  N   UNL     1      39.121 -10.898   2.850  1.00  0.00    -0.140 NA
HETATM    7  C   UNL     1      39.166  -9.598   3.177  1.00  0.00     0.166 A 
HETATM    8  N   UNL     1      40.391  -9.139   3.603  1.00  0.00    -0.046 NA
HETATM    9  C   UNL     1      43.093 -11.615   3.682  1.00  0.00     0.037 A 
HETATM   10  C   UNL     1      44.546 -11.631   4.092  1.00  0.00     0.070 C 
HETATM   11  H   UNL     1      42.979  -9.614   4.190  1.00  0.00     0.184 HD
ENDROOT
BRANCH   1  12
HETATM   12  C   UNL     1      43.128 -13.967   2.893  1.00  0.00     0.256 C 
HETATM   13  N   UNL     1      42.888 -14.959   3.817  1.00  0.00    -0.323 N 
HETATM   14  H   UNL     1      42.586 -14.651   4.731  1.00  0.00     0.169 HD
HETATM   15  O   UNL     1      43.861 -14.031   1.916  1.00  0.00    -0.267 OA
BRANCH  13  16
HETATM   16  C   UNL     1      43.224 -16.332   3.731  1.00  0.00     0.041 A 
HETATM   17  C   UNL     1      43.962 -17.076   4.670  1.00  0.00    -0.035 A 
HETATM   18  C   UNL     1      44.604 -16.517   5.911  1.00  0.00     0.050 C 
HETATM   19  C   UNL     1      44.168 -18.453   4.437  1.00  0.00     0.009 A 
HETATM   20  C   UNL     1      43.715 -19.071   3.274  1.00  0.00     0.001 A 
HETATM   21  C   UNL     1      43.047 -18.322   2.317  1.00  0.00     0.002 A 
HETATM   22  C   UNL     1      42.808 -16.966   2.544  1.00  0.00     0.030 A 
ENDBRANCH  13  16
ENDBRANCH   1  12
BRANCH   2  23
HETATM   23  C   UNL     1      40.642 -13.091   1.406  1.00  0.00    -0.028 A 
HETATM   24  C   UNL     1      40.899 -12.251   0.306  1.00  0.00     0.011 A 
HETATM   25  C   UNL     1      40.602 -12.669  -0.992  1.00  0.00     0.024 A 
HETATM   26  C   UNL     1      40.051 -13.929  -1.206  1.00  0.00     0.034 A 
HETATM   27 CL   UNL     1      39.678 -14.437  -2.806  1.00  0.00    -0.084 Cl
HETATM   28  C   UNL     1      39.799 -14.779  -0.131  1.00  0.00     0.024 A 
HETATM   29  C   UNL     1      40.096 -14.364   1.170  1.00  0.00     0.011 A 
ENDBRANCH   2  23
BRANCH   7  30
HETATM   30  C   UNL     1      37.977  -8.711   3.123  1.00  0.00     0.085 C 
BRANCH  30  31
HETATM   31  C   UNL     1      37.837  -7.968   1.797  1.00  0.00     0.034 C 
BRANCH  31  32
HETATM   32  C   UNL     1      37.114  -8.782   0.728  1.00  0.00     0.164 C 
BRANCH  32  33
HETATM   33  O   UNL     1      36.442  -9.879   1.339  1.00  0.00    -0.401 OA
HETATM   34  H   UNL     1      35.554  -9.935   0.944  1.00  0.00     0.209 HD
ENDBRANCH  32  33
ENDBRANCH  31  32
ENDBRANCH  30  31
ENDBRANCH   7  30
TORSDOF 7
ENDMDL
MODEL 8
REMARK VINA RESULT:      -7.5      2.210      7.747
REMARK  7 active torsions:
REMARK  status: ('A' for Active; 'I' for Inactive)
REMARK    1  A    between atoms: C_3  and  N_4 
REMARK       I    between atoms: N_4  and  C_5 
REMARK    2  A    between atoms: C_5  and  C_6 
REMARK    3  A    between atoms: C_7  and  C_8 
REMARK    4  A    between atoms: C_19  and  C_20 
REMARK    5  A    between atoms: C_20  and  C_21 
REMARK    6  A    between atoms: C_21  and  C_22 
REMARK    7  A    between atoms: C_22  and  O_23 
ROOT
HETATM    1  C   UNL     1      40.747 -12.123   3.488  1.00  0.00     0.062 A 
HETATM    2  C   UNL     1      40.343 -13.529   3.049  1.00  0.00     0.202 A 
HETATM    3  N   UNL     1      40.210 -13.625   1.590  1.00  0.00    -0.083 N 
HETATM    4  C   UNL     1      40.385 -12.571   0.735  1.00  0.00     0.726 A 
HETATM    5  N   UNL     1      40.719 -11.367   1.232  1.00  0.00    -0.192 N 
HETATM    6  N   UNL     1      39.769 -14.719   0.934  1.00  0.00    -0.140 NA
HETATM    7  C   UNL     1      39.801 -14.281  -0.333  1.00  0.00     0.166 A 
HETATM    8  N   UNL     1      40.161 -12.963  -0.492  1.00  0.00    -0.046 NA
HETATM    9  C   UNL     1      40.917 -11.123   2.587  1.00  0.00     0.037 A 
HETATM   10  C   UNL     1      41.302  -9.708   2.945  1.00  0.00     0.070 C 
HETATM   11  H   UNL     1      40.870 -10.597   0.587  1.00  0.00     0.184 HD
ENDROOT
BRANCH   1  12
HETATM   12  C   UNL     1      41.083 -11.927   4.928  1.00  0.00     0.256 C 
HETATM   13  N   UNL     1      42.374 -11.498   5.133  1.00  0.00    -0.323 N 
HETATM   14  H   UNL     1      43.031 -11.696   4.391  1.00  0.00     0.169 HD
HETATM   15  O   UNL     1      40.245 -12.180   5.784  1.00  0.00    -0.267 OA
BRANCH  13  16
HETATM   16  C   UNL     1      42.957 -11.021   6.332  1.00  0.00     0.041 A 
HETATM   17  C   UNL     1      42.580  -9.870   7.049  1.00  0.00    -0.035 A 
HETATM   18  C   UNL     1      41.528  -8.883   6.619  1.00  0.00     0.050 C 
HETATM   19  C   UNL     1      43.253  -9.568   8.253  1.00  0.00     0.009 A 
HETATM   20  C   UNL     1      44.316 -10.344   8.708  1.00  0.00     0.001 A 
HETATM   21  C   UNL     1      44.731 -11.439   7.965  1.00  0.00     0.002 A 
HETATM   22  C   UNL     1      44.059 -11.769   6.788  1.00  0.00     0.030 A 
ENDBRANCH  13  16
ENDBRANCH   1  12
BRANCH   2  23
HETATM   23  C   UNL     1      41.266 -14.626   3.573  1.00  0.00    -0.028 A 
HETATM   24  C   UNL     1      40.782 -15.553   4.514  1.00  0.00     0.011 A 
HETATM   25  C   UNL     1      41.617 -16.546   5.030  1.00  0.00     0.024 A 
HETATM   26  C   UNL     1      42.941 -16.625   4.608  1.00  0.00     0.034 A 
HETATM   27 CL   UNL     1      43.971 -17.843   5.251  1.00  0.00    -0.084 Cl
HETATM   28  C   UNL     1      43.436 -15.722   3.668  1.00  0.00     0.024 A 
HETATM   29  C   UNL     1      42.602 -14.728   3.150  1.00  0.00     0.011 A 
ENDBRANCH   2  23
BRANCH   7  30
HETATM   30  C   UNL     1      39.441 -15.137  -1.491  1.00  0.00     0.085 C 
BRANCH  30  31
HETATM   31  C   UNL     1      39.346 -14.368  -2.806  1.00  0.00     0.034 C 
BRANCH  31  32
HETATM   32  C   UNL     1      37.946 -14.389  -3.412  1.00  0.00     0.164 C 
BRANCH  32  33
HETATM   33  O   UNL     1      37.997 -14.977  -4.708  1.00  0.00    -0.401 OA
HETATM   34  H   UNL     1      38.387 -15.863  -4.612  1.00  0.00     0.209 HD
ENDBRANCH  32  33
ENDBRANCH  31  32
ENDBRANCH  30  31
ENDBRANCH   7  30
TORSDOF 7
ENDMDL
MODEL 9
REMARK VINA RESULT:      -7.5     17.040     19.689
REMARK  7 active torsions:
REMARK  status: ('A' for Active; 'I' for Inactive)
REMARK    1  A    between atoms: C_3  and  N_4 
REMARK       I    between atoms: N_4  and  C_5 
REMARK    2  A    between atoms: C_5  and  C_6 
REMARK    3  A    between atoms: C_7  and  C_8 
REMARK    4  A    between atoms: C_19  and  C_20 
REMARK    5  A    between atoms: C_20  and  C_21 
REMARK    6  A    between atoms: C_21  and  C_22 
REMARK    7  A    between atoms: C_22  and  O_23 
ROOT
HETATM    1  C   UNL     1      46.453 -29.788  -0.145  1.00  0.00     0.062 A 
HETATM    2  C   UNL     1      45.305 -30.749  -0.446  1.00  0.00     0.202 A 
HETATM    3  N   UNL     1      44.163 -30.527   0.451  1.00  0.00    -0.083 N 
HETATM    4  C   UNL     1      44.150 -29.602   1.458  1.00  0.00     0.726 A 
HETATM    5  N   UNL     1      45.228 -28.820   1.650  1.00  0.00    -0.192 N 
HETATM    6  N   UNL     1      43.053 -31.295   0.477  1.00  0.00    -0.140 NA
HETATM    7  C   UNL     1      42.365 -30.706   1.466  1.00  0.00     0.166 A 
HETATM    8  N   UNL     1      43.013 -29.672   2.101  1.00  0.00    -0.046 NA
HETATM    9  C   UNL     1      46.372 -28.883   0.863  1.00  0.00     0.037 A 
HETATM   10  C   UNL     1      47.468 -27.911   1.228  1.00  0.00     0.070 C 
HETATM   11  H   UNL     1      45.199 -28.120   2.385  1.00  0.00     0.184 HD
ENDROOT
BRANCH   1  12
HETATM   12  C   UNL     1      47.609 -29.787  -1.088  1.00  0.00     0.256 C 
HETATM   13  N   UNL     1      48.477 -30.837  -0.888  1.00  0.00    -0.323 N 
HETATM   14  H   UNL     1      48.459 -31.258   0.031  1.00  0.00     0.169 HD
HETATM   15  O   UNL     1      47.720 -28.885  -1.907  1.00  0.00    -0.267 OA
BRANCH  13  16
HETATM   16  C   UNL     1      49.547 -31.256  -1.715  1.00  0.00     0.041 A 
HETATM   17  C   UNL     1      49.516 -32.293  -2.665  1.00  0.00    -0.035 A 
HETATM   18  C   UNL     1      48.348 -33.208  -2.917  1.00  0.00     0.050 C 
HETATM   19  C   UNL     1      50.675 -32.548  -3.431  1.00  0.00     0.009 A 
HETATM   20  C   UNL     1      51.856 -31.842  -3.222  1.00  0.00     0.001 A 
HETATM   21  C   UNL     1      51.905 -30.866  -2.239  1.00  0.00     0.002 A 
HETATM   22  C   UNL     1      50.762 -30.581  -1.491  1.00  0.00     0.030 A 
ENDBRANCH  13  16
ENDBRANCH   1  12
BRANCH   2  23
HETATM   23  C   UNL     1      44.850 -30.728  -1.902  1.00  0.00    -0.028 A 
HETATM   24  C   UNL     1      44.996 -31.881  -2.694  1.00  0.00     0.011 A 
HETATM   25  C   UNL     1      44.615 -31.875  -4.037  1.00  0.00     0.024 A 
HETATM   26  C   UNL     1      44.082 -30.720  -4.600  1.00  0.00     0.034 A 
HETATM   27 CL   UNL     1      43.622 -30.712  -6.258  1.00  0.00    -0.084 Cl
HETATM   28  C   UNL     1      43.920 -29.570  -3.830  1.00  0.00     0.024 A 
HETATM   29  C   UNL     1      44.299 -29.573  -2.485  1.00  0.00     0.011 A 
ENDBRANCH   2  23
BRANCH   7  30
HETATM   30  C   UNL     1      41.012 -31.152   1.882  1.00  0.00     0.085 C 
BRANCH  30  31
HETATM   31  C   UNL     1      41.000 -31.881   3.224  1.00  0.00     0.034 C 
BRANCH  31  32
HETATM   32  C   UNL     1      40.577 -30.989   4.386  1.00  0.00     0.164 C 
BRANCH  32  33
HETATM   33  O   UNL     1      41.685 -30.201   4.810  1.00  0.00    -0.401 OA
HETATM   34  H   UNL     1      41.337 -29.343   5.108  1.00  0.00     0.209 HD
ENDBRANCH  32  33
ENDBRANCH  31  32
ENDBRANCH  30  31
ENDBRANCH   7  30
TORSDOF 7
ENDMDL
MODEL 10
REMARK VINA RESULT:      -7.5      3.355      6.643
REMARK  7 active torsions:
REMARK  status: ('A' for Active; 'I' for Inactive)
REMARK    1  A    between atoms: C_3  and  N_4 
REMARK       I    between atoms: N_4  and  C_5 
REMARK    2  A    between atoms: C_5  and  C_6 
REMARK    3  A    between atoms: C_7  and  C_8 
REMARK    4  A    between atoms: C_19  and  C_20 
REMARK    5  A    between atoms: C_20  and  C_21 
REMARK    6  A    between atoms: C_21  and  C_22 
REMARK    7  A    between atoms: C_22  and  O_23 
ROOT
HETATM    1  C   UNL     1      41.615 -13.912   1.836  1.00  0.00     0.062 A 
HETATM    2  C   UNL     1      41.909 -12.435   2.086  1.00  0.00     0.202 A 
HETATM    3  N   UNL     1      40.750 -11.590   1.774  1.00  0.00    -0.083 N 
HETATM    4  C   UNL     1      39.567 -12.068   1.279  1.00  0.00     0.726 A 
HETATM    5  N   UNL     1      39.423 -13.389   1.074  1.00  0.00    -0.192 N 
HETATM    6  N   UNL     1      40.757 -10.241   1.807  1.00  0.00    -0.140 NA
HETATM    7  C   UNL     1      39.504  -9.974   1.413  1.00  0.00     0.166 A 
HETATM    8  N   UNL     1      38.748 -11.070   1.067  1.00  0.00    -0.046 NA
HETATM    9  C   UNL     1      40.414 -14.322   1.355  1.00  0.00     0.037 A 
HETATM   10  C   UNL     1      40.055 -15.761   1.070  1.00  0.00     0.070 C 
HETATM   11  H   UNL     1      38.532 -13.735   0.728  1.00  0.00     0.184 HD
ENDROOT
BRANCH   1  12
HETATM   12  C   UNL     1      42.646 -14.898   2.272  1.00  0.00     0.256 C 
HETATM   13  N   UNL     1      42.296 -15.584   3.412  1.00  0.00    -0.323 N 
HETATM   14  H   UNL     1      41.611 -15.138   4.007  1.00  0.00     0.169 HD
HETATM   15  O   UNL     1      43.690 -14.999   1.642  1.00  0.00    -0.267 OA
BRANCH  13  16
HETATM   16  C   UNL     1      42.929 -16.717   3.980  1.00  0.00     0.041 A 
HETATM   17  C   UNL     1      43.187 -17.943   3.339  1.00  0.00    -0.035 A 
HETATM   18  C   UNL     1      42.758 -18.301   1.942  1.00  0.00     0.050 C 
HETATM   19  C   UNL     1      43.867 -18.954   4.054  1.00  0.00     0.009 A 
HETATM   20  C   UNL     1      44.226 -18.787   5.388  1.00  0.00     0.001 A 
HETATM   21  C   UNL     1      43.911 -17.603   6.039  1.00  0.00     0.002 A 
HETATM   22  C   UNL     1      43.265 -16.582   5.341  1.00  0.00     0.030 A 
ENDBRANCH  13  16
ENDBRANCH   1  12
BRANCH   2  23
HETATM   23  C   UNL     1      42.420 -12.139   3.493  1.00  0.00    -0.028 A 
HETATM   24  C   UNL     1      43.748 -11.712   3.677  1.00  0.00     0.011 A 
HETATM   25  C   UNL     1      44.245 -11.464   4.958  1.00  0.00     0.024 A 
HETATM   26  C   UNL     1      43.421 -11.638   6.066  1.00  0.00     0.034 A 
HETATM   27 CL   UNL     1      44.039 -11.342   7.643  1.00  0.00    -0.084 Cl
HETATM   28  C   UNL     1      42.100 -12.051   5.904  1.00  0.00     0.024 A 
HETATM   29  C   UNL     1      41.599 -12.298   4.623  1.00  0.00     0.011 A 
ENDBRANCH   2  23
BRANCH   7  30
HETATM   30  C   UNL     1      38.966  -8.593   1.318  1.00  0.00     0.085 C 
BRANCH  30  31
HETATM   31  C   UNL     1      40.030  -7.550   0.989  1.00  0.00     0.034 C 
BRANCH  31  32
HETATM   32  C   UNL     1      40.396  -6.672   2.181  1.00  0.00     0.164 C 
BRANCH  32  33
HETATM   33  O   UNL     1      41.241  -7.400   3.067  1.00  0.00    -0.401 OA
HETATM   34  H   UNL     1      41.800  -7.984   2.525  1.00  0.00     0.209 HD
ENDBRANCH  32  33
ENDBRANCH  31  32
ENDBRANCH  30  31
ENDBRANCH   7  30
TORSDOF 7
ENDMDL
