MODEL 1
REMARK VINA RESULT:      -9.2      0.000      0.000
REMARK  6 active torsions:
REMARK  status: ('A' for Active; 'I' for Inactive)
REMARK    1  A    between atoms: C_4  and  N_5 
REMARK       I    between atoms: N_5  and  C_6 
REMARK    2  A    between atoms: C_6  and  C_7 
REMARK    3  A    between atoms: C_9  and  N_10 
REMARK       I    between atoms: N_10  and  C_11 
REMARK    4  A    between atoms: C_11  and  C_12 
REMARK    5  A    between atoms: C_12  and  O_13 
REMARK    6  A    between atoms: O_13  and  C_14 
ROOT
HETATM    1  C   UNL     1      42.958 -14.495   4.564  1.00  0.00     0.034 A 
HETATM    2  C   UNL     1      43.329 -13.778   5.708  1.00  0.00     0.046 A 
HETATM    3  C   UNL     1      43.519 -12.397   5.673  1.00  0.00     0.035 A 
HETATM    4  C   UNL     1      43.444 -11.741   4.441  1.00  0.00     0.029 A 
HETATM    5  C   UNL     1      43.132 -12.458   3.277  1.00  0.00     0.003 A 
HETATM    6  C   UNL     1      42.879 -13.832   3.339  1.00  0.00     0.017 A 
ENDROOT
BRANCH   3   7
HETATM    7  N   UNL     1      43.795 -11.651   6.839  1.00  0.00    -0.325 N 
HETATM    8  C   UNL     1      45.036 -11.141   7.192  1.00  0.00     0.246 C 
HETATM    9  O   UNL     1      46.092 -11.332   6.589  1.00  0.00    -0.271 OA
HETATM   10  H   UNL     1      43.071 -11.583   7.548  1.00  0.00     0.169 HD
BRANCH   8  11
HETATM   11  C   UNL     1      45.015 -10.228   8.413  1.00  0.00     0.278 C 
BRANCH  11  12
HETATM   12  O   UNL     1      44.981 -10.935   9.647  1.00  0.00    -0.342 OA
BRANCH  12  13
HETATM   13  C   UNL     1      44.236 -10.339  10.635  1.00  0.00     0.069 A 
HETATM   14  C   UNL     1      44.108  -8.952  10.527  1.00  0.00     0.037 A 
HETATM   15  C   UNL     1      43.364  -8.234  11.466  1.00  0.00     0.003 A 
HETATM   16  C   UNL     1      42.746  -8.899  12.523  1.00  0.00     0.000 A 
HETATM   17  C   UNL     1      42.878 -10.280  12.644  1.00  0.00     0.003 A 
HETATM   18  C   UNL     1      43.623 -10.999  11.706  1.00  0.00     0.037 A 
ENDBRANCH  12  13
ENDBRANCH  11  12
ENDBRANCH   8  11
ENDBRANCH   3   7
BRANCH   1  19
HETATM   19  C   UNL     1      42.673 -15.962   4.654  1.00  0.00     0.257 C 
HETATM   20  N   UNL     1      43.809 -16.745   4.648  1.00  0.00    -0.307 N 
HETATM   21  H   UNL     1      44.702 -16.282   4.726  1.00  0.00     0.170 HD
HETATM   22  O   UNL     1      41.507 -16.324   4.740  1.00  0.00    -0.267 OA
BRANCH  20  23
HETATM   23  C   UNL     1      43.872 -18.133   4.484  1.00  0.00     0.130 A 
HETATM   24  C   UNL     1      43.745 -18.606   3.177  1.00  0.00     0.057 A 
HETATM   25  C   UNL     1      43.719 -19.983   2.937  1.00  0.00    -0.057 A 
HETATM   26  C   UNL     1      43.578 -20.515   1.543  1.00  0.00     0.048 C 
HETATM   27  C   UNL     1      43.869 -20.841   4.022  1.00  0.00     0.026 A 
HETATM   28  C   UNL     1      44.000 -20.287   5.286  1.00  0.00     0.119 A 
HETATM   29  N   UNL     1      43.994 -18.960   5.533  1.00  0.00    -0.243 NA
ENDBRANCH  20  23
ENDBRANCH   1  19
TORSDOF 6
ENDMDL
MODEL 2
REMARK VINA RESULT:      -8.8      2.286     10.199
REMARK  6 active torsions:
REMARK  status: ('A' for Active; 'I' for Inactive)
REMARK    1  A    between atoms: C_4  and  N_5 
REMARK       I    between atoms: N_5  and  C_6 
REMARK    2  A    between atoms: C_6  and  C_7 
REMARK    3  A    between atoms: C_9  and  N_10 
REMARK       I    between atoms: N_10  and  C_11 
REMARK    4  A    between atoms: C_11  and  C_12 
REMARK    5  A    between atoms: C_12  and  O_13 
REMARK    6  A    between atoms: O_13  and  C_14 
ROOT
HETATM    1  C   UNL     1      44.164 -10.150   8.347  1.00  0.00     0.034 A 
HETATM    2  C   UNL     1      43.504 -10.987   7.438  1.00  0.00     0.046 A 
HETATM    3  C   UNL     1      44.210 -11.779   6.532  1.00  0.00     0.035 A 
HETATM    4  C   UNL     1      45.599 -11.642   6.464  1.00  0.00     0.029 A 
HETATM    5  C   UNL     1      46.266 -10.764   7.329  1.00  0.00     0.003 A 
HETATM    6  C   UNL     1      45.551 -10.024   8.276  1.00  0.00     0.017 A 
ENDROOT
BRANCH   3   7
HETATM    7  N   UNL     1      43.561 -12.699   5.682  1.00  0.00    -0.325 N 
HETATM    8  C   UNL     1      43.187 -13.989   6.030  1.00  0.00     0.246 C 
HETATM    9  O   UNL     1      43.437 -14.549   7.097  1.00  0.00    -0.271 OA
HETATM   10  H   UNL     1      43.471 -12.462   4.698  1.00  0.00     0.169 HD
BRANCH   8  11
HETATM   11  C   UNL     1      42.350 -14.705   4.975  1.00  0.00     0.278 C 
BRANCH  11  12
HETATM   12  O   UNL     1      43.094 -15.089   3.826  1.00  0.00    -0.342 OA
BRANCH  12  13
HETATM   13  C   UNL     1      43.354 -16.434   3.727  1.00  0.00     0.069 A 
HETATM   14  C   UNL     1      42.930 -17.034   2.539  1.00  0.00     0.037 A 
HETATM   15  C   UNL     1      43.149 -18.396   2.316  1.00  0.00     0.003 A 
HETATM   16  C   UNL     1      43.789 -19.167   3.283  1.00  0.00     0.000 A 
HETATM   17  C   UNL     1      44.206 -18.579   4.475  1.00  0.00     0.003 A 
HETATM   18  C   UNL     1      43.986 -17.217   4.699  1.00  0.00     0.037 A 
ENDBRANCH  12  13
ENDBRANCH  11  12
ENDBRANCH   8  11
ENDBRANCH   3   7
BRANCH   1  19
HETATM   19  C   UNL     1      43.381  -9.381   9.367  1.00  0.00     0.257 C 
HETATM   20  N   UNL     1      43.589  -9.814  10.661  1.00  0.00    -0.307 N 
HETATM   21  H   UNL     1      44.325 -10.485  10.822  1.00  0.00     0.170 HD
HETATM   22  O   UNL     1      42.668  -8.464   8.982  1.00  0.00    -0.267 OA
BRANCH  20  23
HETATM   23  C   UNL     1      42.843  -9.468  11.792  1.00  0.00     0.130 A 
HETATM   24  C   UNL     1      43.325  -8.395  12.544  1.00  0.00     0.057 A 
HETATM   25  C   UNL     1      42.681  -8.036  13.732  1.00  0.00    -0.057 A 
HETATM   26  C   UNL     1      43.183  -6.892  14.558  1.00  0.00     0.048 C 
HETATM   27  C   UNL     1      41.541  -8.744  14.101  1.00  0.00     0.026 A 
HETATM   28  C   UNL     1      41.125  -9.789  13.291  1.00  0.00     0.119 A 
HETATM   29  N   UNL     1      41.757 -10.165  12.158  1.00  0.00    -0.243 NA
ENDBRANCH  20  23
ENDBRANCH   1  19
TORSDOF 6
ENDMDL
MODEL 3
REMARK VINA RESULT:      -8.7      4.620      8.722
REMARK  6 active torsions:
REMARK  status: ('A' for Active; 'I' for Inactive)
REMARK    1  A    between atoms: C_4  and  N_5 
REMARK       I    between atoms: N_5  and  C_6 
REMARK    2  A    between atoms: C_6  and  C_7 
REMARK    3  A    between atoms: C_9  and  N_10 
REMARK       I    between atoms: N_10  and  C_11 
REMARK    4  A    between atoms: C_11  and  C_12 
REMARK    5  A    between atoms: C_12  and  O_13 
REMARK    6  A    between atoms: O_13  and  C_14 
ROOT
HETATM    1  C   UNL     1      39.722 -13.082   3.519  1.00  0.00     0.034 A 
HETATM    2  C   UNL     1      40.442 -14.244   3.822  1.00  0.00     0.046 A 
HETATM    3  C   UNL     1      40.726 -14.602   5.140  1.00  0.00     0.035 A 
HETATM    4  C   UNL     1      40.376 -13.718   6.165  1.00  0.00     0.029 A 
HETATM    5  C   UNL     1      39.707 -12.522   5.868  1.00  0.00     0.003 A 
HETATM    6  C   UNL     1      39.371 -12.208   4.548  1.00  0.00     0.017 A 
ENDROOT
BRANCH   3   7
HETATM    7  N   UNL     1      41.363 -15.819   5.463  1.00  0.00    -0.325 N 
HETATM    8  C   UNL     1      42.716 -15.971   5.733  1.00  0.00     0.246 C 
HETATM    9  O   UNL     1      43.571 -15.090   5.650  1.00  0.00    -0.271 OA
HETATM   10  H   UNL     1      40.831 -16.679   5.368  1.00  0.00     0.169 HD
BRANCH   8  11
HETATM   11  C   UNL     1      43.105 -17.363   6.221  1.00  0.00     0.278 C 
BRANCH  11  12
HETATM   12  O   UNL     1      44.250 -17.892   5.566  1.00  0.00    -0.342 OA
BRANCH  12  13
HETATM   13  C   UNL     1      43.981 -18.668   4.465  1.00  0.00     0.069 A 
HETATM   14  C   UNL     1      44.156 -20.041   4.650  1.00  0.00     0.037 A 
HETATM   15  C   UNL     1      43.901 -20.934   3.606  1.00  0.00     0.003 A 
HETATM   16  C   UNL     1      43.475 -20.458   2.369  1.00  0.00     0.000 A 
HETATM   17  C   UNL     1      43.309 -19.089   2.173  1.00  0.00     0.003 A 
HETATM   18  C   UNL     1      43.564 -18.195   3.216  1.00  0.00     0.037 A 
ENDBRANCH  12  13
ENDBRANCH  11  12
ENDBRANCH   8  11
ENDBRANCH   3   7
BRANCH   1  19
HETATM   19  C   UNL     1      39.355 -12.773   2.100  1.00  0.00     0.257 C 
HETATM   20  N   UNL     1      40.095 -13.479   1.174  1.00  0.00    -0.307 N 
HETATM   21  H   UNL     1      40.694 -14.218   1.511  1.00  0.00     0.170 HD
HETATM   22  O   UNL     1      38.457 -11.967   1.894  1.00  0.00    -0.267 OA
BRANCH  20  23
HETATM   23  C   UNL     1      40.158 -13.248  -0.204  1.00  0.00     0.130 A 
HETATM   24  C   UNL     1      39.367 -14.073  -1.006  1.00  0.00     0.057 A 
HETATM   25  C   UNL     1      39.432 -13.958  -2.397  1.00  0.00    -0.057 A 
HETATM   26  C   UNL     1      38.596 -14.836  -3.277  1.00  0.00     0.048 C 
HETATM   27  C   UNL     1      40.261 -12.979  -2.937  1.00  0.00     0.026 A 
HETATM   28  C   UNL     1      41.005 -12.196  -2.069  1.00  0.00     0.119 A 
HETATM   29  N   UNL     1      40.975 -12.320  -0.724  1.00  0.00    -0.243 NA
ENDBRANCH  20  23
ENDBRANCH   1  19
TORSDOF 6
ENDMDL
MODEL 4
REMARK VINA RESULT:      -8.5      1.885     10.064
REMARK  6 active torsions:
REMARK  status: ('A' for Active; 'I' for Inactive)
REMARK    1  A    between atoms: C_4  and  N_5 
REMARK       I    between atoms: N_5  and  C_6 
REMARK    2  A    between atoms: C_6  and  C_7 
REMARK    3  A    between atoms: C_9  and  N_10 
REMARK       I    between atoms: N_10  and  C_11 
REMARK    4  A    between atoms: C_11  and  C_12 
REMARK    5  A    between atoms: C_12  and  O_13 
REMARK    6  A    between atoms: O_13  and  C_14 
ROOT
HETATM    1  C   UNL     1      43.526 -11.513   7.008  1.00  0.00     0.034 A 
HETATM    2  C   UNL     1      43.755 -12.891   7.096  1.00  0.00     0.046 A 
HETATM    3  C   UNL     1      43.456 -13.749   6.038  1.00  0.00     0.035 A 
HETATM    4  C   UNL     1      42.811 -13.226   4.914  1.00  0.00     0.029 A 
HETATM    5  C   UNL     1      42.523 -11.856   4.838  1.00  0.00     0.003 A 
HETATM    6  C   UNL     1      42.888 -10.997   5.879  1.00  0.00     0.017 A 
ENDROOT
BRANCH   3   7
HETATM    7  N   UNL     1      43.774 -15.123   6.077  1.00  0.00    -0.325 N 
HETATM    8  C   UNL     1      43.033 -16.101   6.727  1.00  0.00     0.246 C 
HETATM    9  O   UNL     1      42.043 -15.907   7.431  1.00  0.00    -0.271 OA
HETATM   10  H   UNL     1      44.677 -15.417   5.719  1.00  0.00     0.169 HD
BRANCH   8  11
HETATM   11  C   UNL     1      43.510 -17.526   6.464  1.00  0.00     0.278 C 
BRANCH  11  12
HETATM   12  O   UNL     1      44.406 -17.629   5.365  1.00  0.00    -0.342 OA
BRANCH  12  13
HETATM   13  C   UNL     1      44.096 -18.610   4.455  1.00  0.00     0.069 A 
HETATM   14  C   UNL     1      43.666 -18.149   3.209  1.00  0.00     0.037 A 
HETATM   15  C   UNL     1      43.333 -19.052   2.196  1.00  0.00     0.003 A 
HETATM   16  C   UNL     1      43.424 -20.423   2.425  1.00  0.00     0.000 A 
HETATM   17  C   UNL     1      43.841 -20.891   3.669  1.00  0.00     0.003 A 
HETATM   18  C   UNL     1      44.173 -19.989   4.683  1.00  0.00     0.037 A 
ENDBRANCH  12  13
ENDBRANCH  11  12
ENDBRANCH   8  11
ENDBRANCH   3   7
BRANCH   1  19
HETATM   19  C   UNL     1      43.943 -10.607   8.126  1.00  0.00     0.257 C 
HETATM   20  N   UNL     1      42.990 -10.482   9.117  1.00  0.00    -0.307 N 
HETATM   21  H   UNL     1      42.189 -11.094   9.082  1.00  0.00     0.170 HD
HETATM   22  O   UNL     1      45.052 -10.092   8.075  1.00  0.00    -0.267 OA
BRANCH  20  23
HETATM   23  C   UNL     1      42.977  -9.545  10.155  1.00  0.00     0.130 A 
HETATM   24  C   UNL     1      42.772  -8.215   9.784  1.00  0.00     0.057 A 
HETATM   25  C   UNL     1      42.822  -7.209  10.752  1.00  0.00    -0.057 A 
HETATM   26  C   UNL     1      42.610  -5.774  10.376  1.00  0.00     0.048 C 
HETATM   27  C   UNL     1      43.032  -7.582  12.076  1.00  0.00     0.026 A 
HETATM   28  C   UNL     1      43.216  -8.926  12.360  1.00  0.00     0.119 A 
HETATM   29  N   UNL     1      43.202  -9.903  11.428  1.00  0.00    -0.243 NA
ENDBRANCH  20  23
ENDBRANCH   1  19
TORSDOF 6
ENDMDL
MODEL 5
REMARK VINA RESULT:      -8.4      2.873      4.632
REMARK  6 active torsions:
REMARK  status: ('A' for Active; 'I' for Inactive)
REMARK    1  A    between atoms: C_4  and  N_5 
REMARK       I    between atoms: N_5  and  C_6 
REMARK    2  A    between atoms: C_6  and  C_7 
REMARK    3  A    between atoms: C_9  and  N_10 
REMARK       I    between atoms: N_10  and  C_11 
REMARK    4  A    between atoms: C_11  and  C_12 
REMARK    5  A    between atoms: C_12  and  O_13 
REMARK    6  A    between atoms: O_13  and  C_14 
ROOT
HETATM    1  C   UNL     1      44.361 -11.416   5.866  1.00  0.00     0.034 A 
HETATM    2  C   UNL     1      43.466 -11.099   6.895  1.00  0.00     0.046 A 
HETATM    3  C   UNL     1      43.910 -10.590   8.116  1.00  0.00     0.035 A 
HETATM    4  C   UNL     1      45.286 -10.505   8.345  1.00  0.00     0.029 A 
HETATM    5  C   UNL     1      46.194 -10.875   7.343  1.00  0.00     0.003 A 
HETATM    6  C   UNL     1      45.733 -11.321   6.100  1.00  0.00     0.017 A 
ENDROOT
BRANCH   3   7
HETATM    7  N   UNL     1      43.013 -10.174   9.122  1.00  0.00    -0.325 N 
HETATM    8  C   UNL     1      43.133 -10.461  10.475  1.00  0.00     0.246 C 
HETATM    9  O   UNL     1      43.986 -11.187  10.984  1.00  0.00    -0.271 OA
HETATM   10  H   UNL     1      42.140  -9.741   8.837  1.00  0.00     0.169 HD
BRANCH   8  11
HETATM   11  C   UNL     1      42.120  -9.743  11.360  1.00  0.00     0.278 C 
BRANCH  11  12
HETATM   12  O   UNL     1      42.268 -10.039  12.743  1.00  0.00    -0.342 OA
BRANCH  12  13
HETATM   13  C   UNL     1      42.337  -8.941  13.566  1.00  0.00     0.069 A 
HETATM   14  C   UNL     1      41.378  -8.897  14.579  1.00  0.00     0.037 A 
HETATM   15  C   UNL     1      41.355  -7.836  15.487  1.00  0.00     0.003 A 
HETATM   16  C   UNL     1      42.289  -6.808  15.383  1.00  0.00     0.000 A 
HETATM   17  C   UNL     1      43.243  -6.838  14.369  1.00  0.00     0.003 A 
HETATM   18  C   UNL     1      43.266  -7.899  13.459  1.00  0.00     0.037 A 
ENDBRANCH  12  13
ENDBRANCH  11  12
ENDBRANCH   8  11
ENDBRANCH   3   7
BRANCH   1  19
HETATM   19  C   UNL     1      43.847 -11.874   4.536  1.00  0.00     0.257 C 
HETATM   20  N   UNL     1      42.822 -12.793   4.628  1.00  0.00    -0.307 N 
HETATM   21  H   UNL     1      42.422 -12.964   5.539  1.00  0.00     0.170 HD
HETATM   22  O   UNL     1      44.348 -11.401   3.524  1.00  0.00    -0.267 OA
BRANCH  20  23
HETATM   23  C   UNL     1      42.298 -13.575   3.594  1.00  0.00     0.130 A 
HETATM   24  C   UNL     1      42.942 -14.790   3.352  1.00  0.00     0.057 A 
HETATM   25  C   UNL     1      42.530 -15.593   2.285  1.00  0.00    -0.057 A 
HETATM   26  C   UNL     1      43.210 -16.898   2.003  1.00  0.00     0.048 C 
HETATM   27  C   UNL     1      41.448 -15.166   1.522  1.00  0.00     0.026 A 
HETATM   28  C   UNL     1      40.859 -13.952   1.837  1.00  0.00     0.119 A 
HETATM   29  N   UNL     1      41.269 -13.152   2.845  1.00  0.00    -0.243 NA
ENDBRANCH  20  23
ENDBRANCH   1  19
TORSDOF 6
ENDMDL
MODEL 6
REMARK VINA RESULT:      -8.2      2.767     10.181
REMARK  6 active torsions:
REMARK  status: ('A' for Active; 'I' for Inactive)
REMARK    1  A    between atoms: C_4  and  N_5 
REMARK       I    between atoms: N_5  and  C_6 
REMARK    2  A    between atoms: C_6  and  C_7 
REMARK    3  A    between atoms: C_9  and  N_10 
REMARK       I    between atoms: N_10  and  C_11 
REMARK    4  A    between atoms: C_11  and  C_12 
REMARK    5  A    between atoms: C_12  and  O_13 
REMARK    6  A    between atoms: O_13  and  C_14 
ROOT
HETATM    1  C   UNL     1      44.651  -9.768   8.115  1.00  0.00     0.034 A 
HETATM    2  C   UNL     1      43.575 -10.628   7.860  1.00  0.00     0.046 A 
HETATM    3  C   UNL     1      43.748 -11.827   7.169  1.00  0.00     0.035 A 
HETATM    4  C   UNL     1      45.005 -12.113   6.629  1.00  0.00     0.029 A 
HETATM    5  C   UNL     1      46.077 -11.231   6.827  1.00  0.00     0.003 A 
HETATM    6  C   UNL     1      45.904 -10.064   7.577  1.00  0.00     0.017 A 
ENDROOT
BRANCH   3   7
HETATM    7  N   UNL     1      42.693 -12.747   6.993  1.00  0.00    -0.325 N 
HETATM    8  C   UNL     1      41.820 -12.772   5.915  1.00  0.00     0.246 C 
HETATM    9  O   UNL     1      41.782 -11.950   4.999  1.00  0.00    -0.271 OA
HETATM   10  H   UNL     1      42.459 -13.362   7.766  1.00  0.00     0.169 HD
BRANCH   8  11
HETATM   11  C   UNL     1      40.885 -13.976   5.893  1.00  0.00     0.278 C 
BRANCH  11  12
HETATM   12  O   UNL     1      41.157 -14.885   4.834  1.00  0.00    -0.342 OA
BRANCH  12  13
HETATM   13  C   UNL     1      42.040 -15.890   5.147  1.00  0.00     0.069 A 
HETATM   14  C   UNL     1      42.783 -16.382   4.072  1.00  0.00     0.037 A 
HETATM   15  C   UNL     1      43.723 -17.397   4.267  1.00  0.00     0.003 A 
HETATM   16  C   UNL     1      43.921 -17.931   5.538  1.00  0.00     0.000 A 
HETATM   17  C   UNL     1      43.176 -17.453   6.613  1.00  0.00     0.003 A 
HETATM   18  C   UNL     1      42.235 -16.439   6.419  1.00  0.00     0.037 A 
ENDBRANCH  12  13
ENDBRANCH  11  12
ENDBRANCH   8  11
ENDBRANCH   3   7
BRANCH   1  19
HETATM   19  C   UNL     1      44.448  -8.533   8.937  1.00  0.00     0.257 C 
HETATM   20  N   UNL     1      43.692  -8.744  10.072  1.00  0.00    -0.307 N 
HETATM   21  H   UNL     1      43.470  -9.697  10.321  1.00  0.00     0.170 HD
HETATM   22  O   UNL     1      44.963  -7.490   8.556  1.00  0.00    -0.267 OA
BRANCH  20  23
HETATM   23  C   UNL     1      43.137  -7.768  10.905  1.00  0.00     0.130 A 
HETATM   24  C   UNL     1      43.288  -7.970  12.279  1.00  0.00     0.057 A 
HETATM   25  C   UNL     1      42.695  -7.082  13.180  1.00  0.00    -0.057 A 
HETATM   26  C   UNL     1      42.840  -7.280  14.658  1.00  0.00     0.048 C 
HETATM   27  C   UNL     1      42.003  -5.989  12.666  1.00  0.00     0.026 A 
HETATM   28  C   UNL     1      41.910  -5.858  11.289  1.00  0.00     0.119 A 
HETATM   29  N   UNL     1      42.452  -6.727  10.409  1.00  0.00    -0.243 NA
ENDBRANCH  20  23
ENDBRANCH   1  19
TORSDOF 6
ENDMDL
MODEL 7
REMARK VINA RESULT:      -7.9      3.404     10.207
REMARK  6 active torsions:
REMARK  status: ('A' for Active; 'I' for Inactive)
REMARK    1  A    between atoms: C_4  and  N_5 
REMARK       I    between atoms: N_5  and  C_6 
REMARK    2  A    between atoms: C_6  and  C_7 
REMARK    3  A    between atoms: C_9  and  N_10 
REMARK       I    between atoms: N_10  and  C_11 
REMARK    4  A    between atoms: C_11  and  C_12 
REMARK    5  A    between atoms: C_12  and  O_13 
REMARK    6  A    between atoms: O_13  and  C_14 
ROOT
HETATM    1  C   UNL     1      44.193  -9.830   8.688  1.00  0.00     0.034 A 
HETATM    2  C   UNL     1      43.633 -10.770   7.814  1.00  0.00     0.046 A 
HETATM    3  C   UNL     1      44.424 -11.503   6.929  1.00  0.00     0.035 A 
HETATM    4  C   UNL     1      45.787 -11.205   6.844  1.00  0.00     0.029 A 
HETATM    5  C   UNL     1      46.349 -10.224   7.673  1.00  0.00     0.003 A 
HETATM    6  C   UNL     1      45.556  -9.543   8.601  1.00  0.00     0.017 A 
ENDROOT
BRANCH   3   7
HETATM    7  N   UNL     1      43.885 -12.522   6.115  1.00  0.00    -0.325 N 
HETATM    8  C   UNL     1      43.442 -13.758   6.563  1.00  0.00     0.246 C 
HETATM    9  O   UNL     1      43.528 -14.180   7.716  1.00  0.00    -0.271 OA
HETATM   10  H   UNL     1      43.939 -12.410   5.107  1.00  0.00     0.169 HD
BRANCH   8  11
HETATM   11  C   UNL     1      42.749 -14.600   5.497  1.00  0.00     0.278 C 
BRANCH  11  12
HETATM   12  O   UNL     1      42.779 -14.011   4.203  1.00  0.00    -0.342 OA
BRANCH  12  13
HETATM   13  C   UNL     1      41.899 -14.555   3.299  1.00  0.00     0.069 A 
HETATM   14  C   UNL     1      42.314 -14.509   1.967  1.00  0.00     0.037 A 
HETATM   15  C   UNL     1      41.510 -15.041   0.956  1.00  0.00     0.003 A 
HETATM   16  C   UNL     1      40.283 -15.619   1.272  1.00  0.00     0.000 A 
HETATM   17  C   UNL     1      39.857 -15.659   2.597  1.00  0.00     0.003 A 
HETATM   18  C   UNL     1      40.660 -15.125   3.608  1.00  0.00     0.037 A 
ENDBRANCH  12  13
ENDBRANCH  11  12
ENDBRANCH   8  11
ENDBRANCH   3   7
BRANCH   1  19
HETATM   19  C   UNL     1      43.330  -9.125   9.688  1.00  0.00     0.257 C 
HETATM   20  N   UNL     1      43.453  -9.623  10.970  1.00  0.00    -0.307 N 
HETATM   21  H   UNL     1      44.186 -10.292  11.148  1.00  0.00     0.170 HD
HETATM   22  O   UNL     1      42.632  -8.196   9.303  1.00  0.00    -0.267 OA
BRANCH  20  23
HETATM   23  C   UNL     1      42.624  -9.345  12.062  1.00  0.00     0.130 A 
HETATM   24  C   UNL     1      43.075  -8.361  12.944  1.00  0.00     0.057 A 
HETATM   25  C   UNL     1      42.344  -8.080  14.101  1.00  0.00    -0.057 A 
HETATM   26  C   UNL     1      42.811  -7.032  15.065  1.00  0.00     0.048 C 
HETATM   27  C   UNL     1      41.154  -8.770  14.310  1.00  0.00     0.026 A 
HETATM   28  C   UNL     1      40.774  -9.723  13.379  1.00  0.00     0.119 A 
HETATM   29  N   UNL     1      41.489 -10.026  12.274  1.00  0.00    -0.243 NA
ENDBRANCH  20  23
ENDBRANCH   1  19
TORSDOF 6
ENDMDL
MODEL 8
REMARK VINA RESULT:      -7.8      2.478      3.901
REMARK  6 active torsions:
REMARK  status: ('A' for Active; 'I' for Inactive)
REMARK    1  A    between atoms: C_4  and  N_5 
REMARK       I    between atoms: N_5  and  C_6 
REMARK    2  A    between atoms: C_6  and  C_7 
REMARK    3  A    between atoms: C_9  and  N_10 
REMARK       I    between atoms: N_10  and  C_11 
REMARK    4  A    between atoms: C_11  and  C_12 
REMARK    5  A    between atoms: C_12  and  O_13 
REMARK    6  A    between atoms: O_13  and  C_14 
ROOT
HETATM    1  C   UNL     1      42.547 -10.775   5.019  1.00  0.00     0.034 A 
HETATM    2  C   UNL     1      42.904 -10.991   6.356  1.00  0.00     0.046 A 
HETATM    3  C   UNL     1      42.523 -10.105   7.363  1.00  0.00     0.035 A 
HETATM    4  C   UNL     1      41.868  -8.923   7.004  1.00  0.00     0.029 A 
HETATM    5  C   UNL     1      41.557  -8.668   5.661  1.00  0.00     0.003 A 
HETATM    6  C   UNL     1      41.888  -9.597   4.669  1.00  0.00     0.017 A 
ENDROOT
BRANCH   3   7
HETATM    7  N   UNL     1      42.790 -10.362   8.725  1.00  0.00    -0.325 N 
HETATM    8  C   UNL     1      44.024 -10.219   9.343  1.00  0.00     0.246 C 
HETATM    9  O   UNL     1      45.081  -9.929   8.783  1.00  0.00    -0.271 OA
HETATM   10  H   UNL     1      42.067 -10.811   9.279  1.00  0.00     0.169 HD
BRANCH   8  11
HETATM   11  C   UNL     1      43.992 -10.399  10.857  1.00  0.00     0.278 C 
BRANCH  11  12
HETATM   12  O   UNL     1      42.703 -10.199  11.423  1.00  0.00    -0.342 OA
BRANCH  12  13
HETATM   13  C   UNL     1      42.659  -9.301  12.461  1.00  0.00     0.069 A 
HETATM   14  C   UNL     1      41.742  -9.604  13.470  1.00  0.00     0.037 A 
HETATM   15  C   UNL     1      41.615  -8.771  14.585  1.00  0.00     0.003 A 
HETATM   16  C   UNL     1      42.401  -7.627  14.695  1.00  0.00     0.000 A 
HETATM   17  C   UNL     1      43.310  -7.312  13.688  1.00  0.00     0.003 A 
HETATM   18  C   UNL     1      43.437  -8.143  12.572  1.00  0.00     0.037 A 
ENDBRANCH  12  13
ENDBRANCH  11  12
ENDBRANCH   8  11
ENDBRANCH   3   7
BRANCH   1  19
HETATM   19  C   UNL     1      42.893 -11.791   3.974  1.00  0.00     0.257 C 
HETATM   20  N   UNL     1      42.248 -12.999   4.146  1.00  0.00    -0.307 N 
HETATM   21  H   UNL     1      41.519 -13.050   4.842  1.00  0.00     0.170 HD
HETATM   22  O   UNL     1      43.673 -11.471   3.087  1.00  0.00    -0.267 OA
BRANCH  20  23
HETATM   23  C   UNL     1      42.531 -14.203   3.492  1.00  0.00     0.130 A 
HETATM   24  C   UNL     1      42.985 -15.250   4.297  1.00  0.00     0.057 A 
HETATM   25  C   UNL     1      43.364 -16.460   3.711  1.00  0.00    -0.057 A 
HETATM   26  C   UNL     1      43.859 -17.596   4.553  1.00  0.00     0.048 C 
HETATM   27  C   UNL     1      43.228 -16.593   2.332  1.00  0.00     0.026 A 
HETATM   28  C   UNL     1      42.760 -15.508   1.609  1.00  0.00     0.119 A 
HETATM   29  N   UNL     1      42.421 -14.322   2.161  1.00  0.00    -0.243 NA
ENDBRANCH  20  23
ENDBRANCH   1  19
TORSDOF 6
ENDMDL
MODEL 9
REMARK VINA RESULT:      -7.8      4.155      7.935
REMARK  6 active torsions:
REMARK  status: ('A' for Active; 'I' for Inactive)
REMARK    1  A    between atoms: C_4  and  N_5 
REMARK       I    between atoms: N_5  and  C_6 
REMARK    2  A    between atoms: C_6  and  C_7 
REMARK    3  A    between atoms: C_9  and  N_10 
REMARK       I    between atoms: N_10  and  C_11 
REMARK    4  A    between atoms: C_11  and  C_12 
REMARK    5  A    between atoms: C_12  and  O_13 
REMARK    6  A    between atoms: O_13  and  C_14 
ROOT
HETATM    1  C   UNL     1      42.684 -14.153   4.301  1.00  0.00     0.034 A 
HETATM    2  C   UNL     1      42.198 -13.470   3.178  1.00  0.00     0.046 A 
HETATM    3  C   UNL     1      42.410 -12.102   3.009  1.00  0.00     0.035 A 
HETATM    4  C   UNL     1      43.025 -11.387   4.041  1.00  0.00     0.029 A 
HETATM    5  C   UNL     1      43.463 -12.049   5.196  1.00  0.00     0.003 A 
HETATM    6  C   UNL     1      43.302 -13.433   5.323  1.00  0.00     0.017 A 
ENDROOT
BRANCH   3   7
HETATM    7  N   UNL     1      42.014 -11.424   1.837  1.00  0.00    -0.325 N 
HETATM    8  C   UNL     1      40.760 -10.872   1.613  1.00  0.00     0.246 C 
HETATM    9  O   UNL     1      39.788 -10.965   2.362  1.00  0.00    -0.271 OA
HETATM   10  H   UNL     1      42.638 -11.445   1.036  1.00  0.00     0.169 HD
BRANCH   8  11
HETATM   11  C   UNL     1      40.657 -10.048   0.334  1.00  0.00     0.278 C 
BRANCH  11  12
HETATM   12  O   UNL     1      39.577 -10.438  -0.505  1.00  0.00    -0.342 OA
BRANCH  12  13
HETATM   13  C   UNL     1      39.801 -11.573  -1.246  1.00  0.00     0.069 A 
HETATM   14  C   UNL     1      38.963 -12.650  -0.949  1.00  0.00     0.037 A 
HETATM   15  C   UNL     1      39.085 -13.855  -1.645  1.00  0.00     0.003 A 
HETATM   16  C   UNL     1      40.050 -13.992  -2.640  1.00  0.00     0.000 A 
HETATM   17  C   UNL     1      40.897 -12.926  -2.935  1.00  0.00     0.003 A 
HETATM   18  C   UNL     1      40.776 -11.721  -2.238  1.00  0.00     0.037 A 
ENDBRANCH  12  13
ENDBRANCH  11  12
ENDBRANCH   8  11
ENDBRANCH   3   7
BRANCH   1  19
HETATM   19  C   UNL     1      42.518 -15.637   4.409  1.00  0.00     0.257 C 
HETATM   20  N   UNL     1      43.491 -16.350   3.739  1.00  0.00    -0.307 N 
HETATM   21  H   UNL     1      44.280 -15.841   3.370  1.00  0.00     0.170 HD
HETATM   22  O   UNL     1      41.583 -16.072   5.068  1.00  0.00    -0.267 OA
BRANCH  20  23
HETATM   23  C   UNL     1      43.484 -17.720   3.454  1.00  0.00     0.130 A 
HETATM   24  C   UNL     1      43.916 -18.565   4.478  1.00  0.00     0.057 A 
HETATM   25  C   UNL     1      44.013 -19.940   4.248  1.00  0.00    -0.057 A 
HETATM   26  C   UNL     1      44.480 -20.866   5.329  1.00  0.00     0.048 C 
HETATM   27  C   UNL     1      43.625 -20.426   3.002  1.00  0.00     0.026 A 
HETATM   28  C   UNL     1      43.197 -19.519   2.046  1.00  0.00     0.119 A 
HETATM   29  N   UNL     1      43.131 -18.185   2.247  1.00  0.00    -0.243 NA
ENDBRANCH  20  23
ENDBRANCH   1  19
TORSDOF 6
ENDMDL
MODEL 10
REMARK VINA RESULT:      -7.8      6.340     10.537
REMARK  6 active torsions:
REMARK  status: ('A' for Active; 'I' for Inactive)
REMARK    1  A    between atoms: C_4  and  N_5 
REMARK       I    between atoms: N_5  and  C_6 
REMARK    2  A    between atoms: C_6  and  C_7 
REMARK    3  A    between atoms: C_9  and  N_10 
REMARK       I    between atoms: N_10  and  C_11 
REMARK    4  A    between atoms: C_11  and  C_12 
REMARK    5  A    between atoms: C_12  and  O_13 
REMARK    6  A    between atoms: O_13  and  C_14 
ROOT
HETATM    1  C   UNL     1      40.459 -12.197  -1.697  1.00  0.00     0.034 A 
HETATM    2  C   UNL     1      40.763 -12.788  -0.464  1.00  0.00     0.046 A 
HETATM    3  C   UNL     1      40.342 -14.081  -0.152  1.00  0.00     0.035 A 
HETATM    4  C   UNL     1      39.506 -14.748  -1.052  1.00  0.00     0.029 A 
HETATM    5  C   UNL     1      39.146 -14.143  -2.264  1.00  0.00     0.003 A 
HETATM    6  C   UNL     1      39.629 -12.872  -2.592  1.00  0.00     0.017 A 
ENDROOT
BRANCH   3   7
HETATM    7  N   UNL     1      40.726 -14.723   1.043  1.00  0.00    -0.325 N 
HETATM    8  C   UNL     1      40.144 -14.522   2.287  1.00  0.00     0.246 C 
HETATM    9  O   UNL     1      39.268 -13.698   2.547  1.00  0.00    -0.271 OA
HETATM   10  H   UNL     1      41.575 -15.281   1.038  1.00  0.00     0.169 HD
BRANCH   8  11
HETATM   11  C   UNL     1      40.639 -15.472   3.372  1.00  0.00     0.278 C 
BRANCH  11  12
HETATM   12  O   UNL     1      42.049 -15.442   3.551  1.00  0.00    -0.342 OA
BRANCH  12  13
HETATM   13  C   UNL     1      42.672 -16.662   3.442  1.00  0.00     0.069 A 
HETATM   14  C   UNL     1      43.510 -16.996   4.509  1.00  0.00     0.037 A 
HETATM   15  C   UNL     1      44.190 -18.217   4.519  1.00  0.00     0.003 A 
HETATM   16  C   UNL     1      44.040 -19.108   3.459  1.00  0.00     0.000 A 
HETATM   17  C   UNL     1      43.215 -18.777   2.387  1.00  0.00     0.003 A 
HETATM   18  C   UNL     1      42.535 -17.556   2.375  1.00  0.00     0.037 A 
ENDBRANCH  12  13
ENDBRANCH  11  12
ENDBRANCH   8  11
ENDBRANCH   3   7
BRANCH   1  19
HETATM   19  C   UNL     1      41.003 -10.843  -2.036  1.00  0.00     0.257 C 
HETATM   20  N   UNL     1      41.621 -10.215  -0.974  1.00  0.00    -0.307 N 
HETATM   21  H   UNL     1      41.778 -10.752  -0.135  1.00  0.00     0.170 HD
HETATM   22  O   UNL     1      40.871 -10.435  -3.183  1.00  0.00    -0.267 OA
BRANCH  20  23
HETATM   23  C   UNL     1      42.012  -8.874  -0.903  1.00  0.00     0.130 A 
HETATM   24  C   UNL     1      41.067  -7.982  -0.394  1.00  0.00     0.057 A 
HETATM   25  C   UNL     1      41.351  -6.614  -0.362  1.00  0.00    -0.057 A 
HETATM   26  C   UNL     1      40.350  -5.637   0.175  1.00  0.00     0.048 C 
HETATM   27  C   UNL     1      42.601  -6.193  -0.805  1.00  0.00     0.026 A 
HETATM   28  C   UNL     1      43.485  -7.146  -1.285  1.00  0.00     0.119 A 
HETATM   29  N   UNL     1      43.209  -8.467  -1.351  1.00  0.00    -0.243 NA
ENDBRANCH  20  23
ENDBRANCH   1  19
TORSDOF 6
ENDMDL
