MODEL 1
REMARK VINA RESULT:      -9.6      0.000      0.000
REMARK  5 active torsions:
REMARK  status: ('A' for Active; 'I' for Inactive)
REMARK    1  A    between atoms: C_2  and  C_3 
REMARK    2  A    between atoms: C_8  and  C_9 
REMARK       I    between atoms: C_9  and  N_10 
REMARK    3  A    between atoms: N_10  and  C_11 
REMARK    4  A    between atoms: C_11  and  C_12 
REMARK    5  A    between atoms: C_19  and  C_20 
ROOT
HETATM    1  C   UNL     1      42.353 -15.223   2.783  1.00  0.00     0.118 C 
HETATM    2  N   UNL     1      43.188 -14.080   3.129  1.00  0.00    -0.366 N 
HETATM    3  C   UNL     1      42.904 -13.269   4.171  1.00  0.00     0.123 A 
HETATM    4  N   UNL     1      41.746 -13.393   4.887  1.00  0.00    -0.240 N 
HETATM    5  N   UNL     1      41.600 -12.468   5.851  1.00  0.00    -0.165 NA
HETATM    6  C   UNL     1      42.755 -11.765   5.796  1.00  0.00     0.148 A 
HETATM    7  C   UNL     1      43.588 -12.229   4.742  1.00  0.00     0.088 A 
HETATM    8  C   UNL     1      40.723 -14.385   4.623  1.00  0.00     0.221 C 
HETATM    9  C   UNL     1      40.893 -14.977   3.210  1.00  0.00     0.066 C 
HETATM   10  H   UNL     1      44.096 -14.040   2.669  1.00  0.00     0.161 HD
ENDROOT
BRANCH   6  11
HETATM   11  C   UNL     1      43.056 -10.673   6.737  1.00  0.00     0.272 C 
HETATM   12  N   UNL     1      44.109 -10.954   7.577  1.00  0.00    -0.353 N 
HETATM   13  H   UNL     1      44.448 -11.911   7.553  1.00  0.00     0.162 HD
HETATM   14  O   UNL     1      42.431  -9.618   6.760  1.00  0.00    -0.266 OA
BRANCH  12  15
HETATM   15  C   UNL     1      44.532 -10.062   8.633  1.00  0.00     0.155 C 
BRANCH  15  16
HETATM   16  C   UNL     1      43.591 -10.088   9.839  1.00  0.00     0.139 C 
HETATM   17  O   UNL     1      43.832 -11.256  10.649  1.00  0.00    -0.384 OA
HETATM   18  C   UNL     1      43.531 -10.922  12.012  1.00  0.00     0.168 C 
HETATM   19  C   UNL     1      43.225  -9.438  12.066  1.00  0.00     0.029 C 
HETATM   20  C   UNL     1      43.812  -8.916  10.779  1.00  0.00     0.035 C 
ENDBRANCH  15  16
ENDBRANCH  12  15
ENDBRANCH   6  11
BRANCH   8  21
HETATM   21  C   UNL     1      40.703 -15.427   5.719  1.00  0.00     0.409 C 
HETATM   22  F   UNL     1      41.863 -15.463   6.414  1.00  0.00    -0.169 F 
HETATM   23  F   UNL     1      39.732 -15.126   6.623  1.00  0.00    -0.169 F 
HETATM   24  F   UNL     1      40.453 -16.674   5.280  1.00  0.00    -0.169 F 
ENDBRANCH   8  21
BRANCH   1  25
HETATM   25  C   UNL     1      42.949 -16.545   3.241  1.00  0.00    -0.034 A 
HETATM   26  C   UNL     1      43.668 -16.590   4.448  1.00  0.00     0.011 A 
HETATM   27  C   UNL     1      44.214 -17.790   4.917  1.00  0.00     0.026 A 
HETATM   28  C   UNL     1      44.051 -18.971   4.190  1.00  0.00     0.055 A 
HETATM   29  C   UNL     1      43.337 -18.949   2.990  1.00  0.00     0.056 A 
HETATM   30 CL   UNL     1      44.747 -20.414   4.833  1.00  0.00    -0.083 Cl
HETATM   31  C   UNL     1      42.788 -17.746   2.527  1.00  0.00     0.034 A 
HETATM   32 CL   UNL     1      43.094 -20.367   2.032  1.00  0.00    -0.083 Cl
ENDBRANCH   1  25
TORSDOF 5
ENDMDL
MODEL 2
REMARK VINA RESULT:      -9.2      5.442      7.907
REMARK  5 active torsions:
REMARK  status: ('A' for Active; 'I' for Inactive)
REMARK    1  A    between atoms: C_2  and  C_3 
REMARK    2  A    between atoms: C_8  and  C_9 
REMARK       I    between atoms: C_9  and  N_10 
REMARK    3  A    between atoms: N_10  and  C_11 
REMARK    4  A    between atoms: C_11  and  C_12 
REMARK    5  A    between atoms: C_19  and  C_20 
ROOT
HETATM    1  C   UNL     1      40.070 -15.279   2.886  1.00  0.00     0.118 C 
HETATM    2  N   UNL     1      39.770 -15.294   1.461  1.00  0.00    -0.366 N 
HETATM    3  C   UNL     1      40.145 -14.294   0.635  1.00  0.00     0.123 A 
HETATM    4  N   UNL     1      40.716 -13.145   1.106  1.00  0.00    -0.240 N 
HETATM    5  N   UNL     1      40.972 -12.233   0.153  1.00  0.00    -0.165 NA
HETATM    6  C   UNL     1      40.616 -12.860  -0.992  1.00  0.00     0.148 A 
HETATM    7  C   UNL     1      40.076 -14.147  -0.725  1.00  0.00     0.088 A 
HETATM    8  C   UNL     1      40.984 -12.879   2.505  1.00  0.00     0.221 C 
HETATM    9  C   UNL     1      40.172 -13.832   3.404  1.00  0.00     0.066 C 
HETATM   10  H   UNL     1      39.438 -16.182   1.087  1.00  0.00     0.161 HD
ENDROOT
BRANCH   6  11
HETATM   11  C   UNL     1      40.793 -12.240  -2.316  1.00  0.00     0.272 C 
HETATM   12  N   UNL     1      40.801 -10.865  -2.276  1.00  0.00    -0.353 N 
HETATM   13  H   UNL     1      40.542 -10.449  -1.386  1.00  0.00     0.162 HD
HETATM   14  O   UNL     1      40.925 -12.891  -3.348  1.00  0.00    -0.266 OA
BRANCH  12  15
HETATM   15  C   UNL     1      40.884 -10.043  -3.463  1.00  0.00     0.155 C 
BRANCH  15  16
HETATM   16  C   UNL     1      41.238  -8.588  -3.149  1.00  0.00     0.139 C 
HETATM   17  O   UNL     1      42.143  -8.514  -2.029  1.00  0.00    -0.384 OA
HETATM   18  C   UNL     1      42.977  -7.361  -2.207  1.00  0.00     0.168 C 
HETATM   19  C   UNL     1      42.669  -6.774  -3.571  1.00  0.00     0.029 C 
HETATM   20  C   UNL     1      41.978  -7.908  -4.286  1.00  0.00     0.035 C 
ENDBRANCH  15  16
ENDBRANCH  12  15
ENDBRANCH   6  11
BRANCH   8  21
HETATM   21  C   UNL     1      42.472 -12.912   2.773  1.00  0.00     0.409 C 
HETATM   22  F   UNL     1      43.050 -11.700   2.608  1.00  0.00    -0.169 F 
HETATM   23  F   UNL     1      42.699 -13.266   4.067  1.00  0.00    -0.169 F 
HETATM   24  F   UNL     1      43.143 -13.790   2.005  1.00  0.00    -0.169 F 
ENDBRANCH   8  21
BRANCH   1  25
HETATM   25  C   UNL     1      41.239 -16.182   3.249  1.00  0.00    -0.034 A 
HETATM   26  C   UNL     1      41.917 -16.868   2.227  1.00  0.00     0.011 A 
HETATM   27  C   UNL     1      43.012 -17.691   2.513  1.00  0.00     0.026 A 
HETATM   28  C   UNL     1      43.453 -17.844   3.830  1.00  0.00     0.055 A 
HETATM   29  C   UNL     1      42.796 -17.169   4.860  1.00  0.00     0.056 A 
HETATM   30 CL   UNL     1      44.813 -18.871   4.108  1.00  0.00    -0.083 Cl
HETATM   31  C   UNL     1      41.704 -16.341   4.567  1.00  0.00     0.034 A 
HETATM   32 CL   UNL     1      43.280 -17.307   6.514  1.00  0.00    -0.083 Cl
ENDBRANCH   1  25
TORSDOF 5
ENDMDL
MODEL 3
REMARK VINA RESULT:      -9.0      3.703      4.968
REMARK  5 active torsions:
REMARK  status: ('A' for Active; 'I' for Inactive)
REMARK    1  A    between atoms: C_2  and  C_3 
REMARK    2  A    between atoms: C_8  and  C_9 
REMARK       I    between atoms: C_9  and  N_10 
REMARK    3  A    between atoms: N_10  and  C_11 
REMARK    4  A    between atoms: C_11  and  C_12 
REMARK    5  A    between atoms: C_19  and  C_20 
ROOT
HETATM    1  C   UNL     1      39.767 -14.849   2.152  1.00  0.00     0.118 C 
HETATM    2  N   UNL     1      39.913 -13.984   3.315  1.00  0.00    -0.366 N 
HETATM    3  C   UNL     1      41.005 -14.020   4.108  1.00  0.00     0.123 A 
HETATM    4  N   UNL     1      41.985 -14.960   3.944  1.00  0.00    -0.240 N 
HETATM    5  N   UNL     1      42.969 -14.886   4.857  1.00  0.00    -0.165 NA
HETATM    6  C   UNL     1      42.640 -13.799   5.593  1.00  0.00     0.148 A 
HETATM    7  C   UNL     1      41.405 -13.243   5.162  1.00  0.00     0.088 A 
HETATM    8  C   UNL     1      41.967 -15.990   2.926  1.00  0.00     0.221 C 
HETATM    9  C   UNL     1      40.547 -16.162   2.351  1.00  0.00     0.066 C 
HETATM   10  H   UNL     1      39.243 -13.220   3.386  1.00  0.00     0.161 HD
ENDROOT
BRANCH   6  11
HETATM   11  C   UNL     1      43.493 -13.301   6.684  1.00  0.00     0.272 C 
HETATM   12  N   UNL     1      44.156 -12.138   6.370  1.00  0.00    -0.353 N 
HETATM   13  H   UNL     1      44.099 -11.847   5.398  1.00  0.00     0.162 HD
HETATM   14  O   UNL     1      43.594 -13.870   7.768  1.00  0.00    -0.266 OA
BRANCH  12  15
HETATM   15  C   UNL     1      45.108 -11.509   7.258  1.00  0.00     0.155 C 
BRANCH  15  16
HETATM   16  C   UNL     1      44.440 -10.585   8.279  1.00  0.00     0.139 C 
HETATM   17  O   UNL     1      44.566 -11.122   9.611  1.00  0.00    -0.384 OA
HETATM   18  C   UNL     1      44.621 -10.022  10.530  1.00  0.00     0.168 C 
HETATM   19  C   UNL     1      44.675  -8.743   9.717  1.00  0.00     0.029 C 
HETATM   20  C   UNL     1      45.099  -9.220   8.351  1.00  0.00     0.035 C 
ENDBRANCH  15  16
ENDBRANCH  12  15
ENDBRANCH   6  11
BRANCH   8  21
HETATM   21  C   UNL     1      43.018 -15.710   1.874  1.00  0.00     0.409 C 
HETATM   22  F   UNL     1      43.507 -14.452   1.960  1.00  0.00    -0.169 F 
HETATM   23  F   UNL     1      44.080 -16.541   2.052  1.00  0.00    -0.169 F 
HETATM   24  F   UNL     1      42.587 -15.893   0.612  1.00  0.00    -0.169 F 
ENDBRANCH   8  21
BRANCH   1  25
HETATM   25  C   UNL     1      40.042 -14.124   0.844  1.00  0.00    -0.034 A 
HETATM   26  C   UNL     1      40.784 -12.930   0.865  1.00  0.00     0.011 A 
HETATM   27  C   UNL     1      41.079 -12.243  -0.317  1.00  0.00     0.026 A 
HETATM   28  C   UNL     1      40.638 -12.735  -1.548  1.00  0.00     0.055 A 
HETATM   29  C   UNL     1      39.901 -13.921  -1.592  1.00  0.00     0.056 A 
HETATM   30 CL   UNL     1      41.043 -11.837  -2.966  1.00  0.00    -0.083 Cl
HETATM   31  C   UNL     1      39.614 -14.609  -0.406  1.00  0.00     0.034 A 
HETATM   32 CL   UNL     1      39.319 -14.594  -3.074  1.00  0.00    -0.083 Cl
ENDBRANCH   1  25
TORSDOF 5
ENDMDL
MODEL 4
REMARK VINA RESULT:      -9.0      2.124      2.647
REMARK  5 active torsions:
REMARK  status: ('A' for Active; 'I' for Inactive)
REMARK    1  A    between atoms: C_2  and  C_3 
REMARK    2  A    between atoms: C_8  and  C_9 
REMARK       I    between atoms: C_9  and  N_10 
REMARK    3  A    between atoms: N_10  and  C_11 
REMARK    4  A    between atoms: C_11  and  C_12 
REMARK    5  A    between atoms: C_19  and  C_20 
ROOT
HETATM    1  C   UNL     1      43.432 -14.954   2.968  1.00  0.00     0.118 C 
HETATM    2  N   UNL     1      43.308 -14.020   4.080  1.00  0.00    -0.366 N 
HETATM    3  C   UNL     1      42.119 -13.498   4.453  1.00  0.00     0.123 A 
HETATM    4  N   UNL     1      40.979 -13.712   3.732  1.00  0.00    -0.240 N 
HETATM    5  N   UNL     1      39.900 -13.071   4.213  1.00  0.00    -0.165 NA
HETATM    6  C   UNL     1      40.359 -12.478   5.340  1.00  0.00     0.148 A 
HETATM    7  C   UNL     1      41.751 -12.710   5.511  1.00  0.00     0.088 A 
HETATM    8  C   UNL     1      40.913 -14.508   2.522  1.00  0.00     0.221 C 
HETATM    9  C   UNL     1      42.321 -14.711   1.929  1.00  0.00     0.066 C 
HETATM   10  H   UNL     1      44.127 -13.933   4.679  1.00  0.00     0.161 HD
ENDROOT
BRANCH   6  11
HETATM   11  C   UNL     1      39.481 -11.708   6.237  1.00  0.00     0.272 C 
HETATM   12  N   UNL     1      40.161 -10.812   7.028  1.00  0.00    -0.353 N 
HETATM   13  H   UNL     1      41.175 -10.890   7.009  1.00  0.00     0.162 HD
HETATM   14  O   UNL     1      38.262 -11.852   6.267  1.00  0.00    -0.266 OA
BRANCH  12  15
HETATM   15  C   UNL     1      39.516 -10.005   8.038  1.00  0.00     0.155 C 
BRANCH  15  16
HETATM   16  C   UNL     1      40.507  -9.152   8.833  1.00  0.00     0.139 C 
HETATM   17  O   UNL     1      40.517  -9.542  10.221  1.00  0.00    -0.384 OA
HETATM   18  C   UNL     1      41.834  -9.307  10.739  1.00  0.00     0.168 C 
HETATM   19  C   UNL     1      42.717  -8.884   9.581  1.00  0.00     0.029 C 
HETATM   20  C   UNL     1      41.941  -9.338   8.370  1.00  0.00     0.035 C 
ENDBRANCH  15  16
ENDBRANCH  12  15
ENDBRANCH   6  11
BRANCH   8  21
HETATM   21  C   UNL     1      40.171 -15.800   2.780  1.00  0.00     0.409 C 
HETATM   22  F   UNL     1      40.590 -16.802   1.974  1.00  0.00    -0.169 F 
HETATM   23  F   UNL     1      40.404 -16.219   4.054  1.00  0.00    -0.169 F 
HETATM   24  F   UNL     1      38.836 -15.699   2.641  1.00  0.00    -0.169 F 
ENDBRANCH   8  21
BRANCH   1  25
HETATM   25  C   UNL     1      43.586 -16.395   3.428  1.00  0.00    -0.034 A 
HETATM   26  C   UNL     1      43.809 -16.659   4.791  1.00  0.00     0.011 A 
HETATM   27  C   UNL     1      43.934 -17.971   5.260  1.00  0.00     0.026 A 
HETATM   28  C   UNL     1      43.838 -19.048   4.376  1.00  0.00     0.055 A 
HETATM   29  C   UNL     1      43.615 -18.809   3.019  1.00  0.00     0.056 A 
HETATM   30 CL   UNL     1      43.998 -20.639   5.027  1.00  0.00    -0.083 Cl
HETATM   31  C   UNL     1      43.484 -17.493   2.555  1.00  0.00     0.034 A 
HETATM   32 CL   UNL     1      43.486 -20.087   1.863  1.00  0.00    -0.083 Cl
ENDBRANCH   1  25
TORSDOF 5
ENDMDL
MODEL 5
REMARK VINA RESULT:      -8.8      5.747      8.566
REMARK  5 active torsions:
REMARK  status: ('A' for Active; 'I' for Inactive)
REMARK    1  A    between atoms: C_2  and  C_3 
REMARK    2  A    between atoms: C_8  and  C_9 
REMARK       I    between atoms: C_9  and  N_10 
REMARK    3  A    between atoms: N_10  and  C_11 
REMARK    4  A    between atoms: C_11  and  C_12 
REMARK    5  A    between atoms: C_19  and  C_20 
ROOT
HETATM    1  C   UNL     1      40.058 -15.319   2.937  1.00  0.00     0.118 C 
HETATM    2  N   UNL     1      39.742 -15.370   1.515  1.00  0.00    -0.366 N 
HETATM    3  C   UNL     1      40.108 -14.391   0.660  1.00  0.00     0.123 A 
HETATM    4  N   UNL     1      40.684 -13.231   1.096  1.00  0.00    -0.240 N 
HETATM    5  N   UNL     1      40.930 -12.343   0.117  1.00  0.00    -0.165 NA
HETATM    6  C   UNL     1      40.562 -12.999  -1.008  1.00  0.00     0.148 A 
HETATM    7  C   UNL     1      40.024 -14.280  -0.702  1.00  0.00     0.088 A 
HETATM    8  C   UNL     1      40.967 -12.929   2.484  1.00  0.00     0.221 C 
HETATM    9  C   UNL     1      40.165 -13.859   3.416  1.00  0.00     0.066 C 
HETATM   10  H   UNL     1      39.406 -16.267   1.168  1.00  0.00     0.161 HD
ENDROOT
BRANCH   6  11
HETATM   11  C   UNL     1      40.724 -12.413  -2.349  1.00  0.00     0.272 C 
HETATM   12  N   UNL     1      40.662 -11.039  -2.354  1.00  0.00    -0.353 N 
HETATM   13  H   UNL     1      40.370 -10.609  -1.481  1.00  0.00     0.162 HD
HETATM   14  O   UNL     1      40.903 -13.089  -3.358  1.00  0.00    -0.266 OA
BRANCH  12  15
HETATM   15  C   UNL     1      40.717 -10.253  -3.566  1.00  0.00     0.155 C 
BRANCH  15  16
HETATM   16  C   UNL     1      39.490  -9.357  -3.744  1.00  0.00     0.139 C 
HETATM   17  O   UNL     1      39.361  -8.936  -5.116  1.00  0.00    -0.384 OA
HETATM   18  C   UNL     1      37.965  -8.764  -5.400  1.00  0.00     0.168 C 
HETATM   19  C   UNL     1      37.186  -9.238  -4.188  1.00  0.00     0.029 C 
HETATM   20  C   UNL     1      38.190 -10.079  -3.440  1.00  0.00     0.035 C 
ENDBRANCH  15  16
ENDBRANCH  12  15
ENDBRANCH   6  11
BRANCH   8  21
HETATM   21  C   UNL     1      42.458 -12.956   2.737  1.00  0.00     0.409 C 
HETATM   22  F   UNL     1      42.759 -13.357   3.993  1.00  0.00    -0.169 F 
HETATM   23  F   UNL     1      43.051 -13.853   1.903  1.00  0.00    -0.169 F 
HETATM   24  F   UNL     1      43.066 -11.773   2.531  1.00  0.00    -0.169 F 
ENDBRANCH   8  21
BRANCH   1  25
HETATM   25  C   UNL     1      41.231 -16.212   3.309  1.00  0.00    -0.034 A 
HETATM   26  C   UNL     1      41.907 -16.913   2.296  1.00  0.00     0.011 A 
HETATM   27  C   UNL     1      43.005 -17.728   2.592  1.00  0.00     0.026 A 
HETATM   28  C   UNL     1      43.451 -17.859   3.909  1.00  0.00     0.055 A 
HETATM   29  C   UNL     1      42.796 -17.169   4.931  1.00  0.00     0.056 A 
HETATM   30 CL   UNL     1      44.815 -18.877   4.199  1.00  0.00    -0.083 Cl
HETATM   31  C   UNL     1      41.701 -16.349   4.629  1.00  0.00     0.034 A 
HETATM   32 CL   UNL     1      43.286 -17.280   6.584  1.00  0.00    -0.083 Cl
ENDBRANCH   1  25
TORSDOF 5
ENDMDL
MODEL 6
REMARK VINA RESULT:      -8.8      2.019      2.893
REMARK  5 active torsions:
REMARK  status: ('A' for Active; 'I' for Inactive)
REMARK    1  A    between atoms: C_2  and  C_3 
REMARK    2  A    between atoms: C_8  and  C_9 
REMARK       I    between atoms: C_9  and  N_10 
REMARK    3  A    between atoms: N_10  and  C_11 
REMARK    4  A    between atoms: C_11  and  C_12 
REMARK    5  A    between atoms: C_19  and  C_20 
ROOT
HETATM    1  C   UNL     1      43.012 -12.346   3.137  1.00  0.00     0.118 C 
HETATM    2  N   UNL     1      44.120 -11.923   3.983  1.00  0.00    -0.366 N 
HETATM    3  C   UNL     1      43.943 -11.549   5.268  1.00  0.00     0.123 A 
HETATM    4  N   UNL     1      42.698 -11.421   5.818  1.00  0.00    -0.240 N 
HETATM    5  N   UNL     1      42.705 -10.984   7.089  1.00  0.00    -0.165 NA
HETATM    6  C   UNL     1      44.021 -10.901   7.390  1.00  0.00     0.148 A 
HETATM    7  C   UNL     1      44.826 -11.231   6.265  1.00  0.00     0.088 A 
HETATM    8  C   UNL     1      41.460 -11.672   5.106  1.00  0.00     0.221 C 
HETATM    9  C   UNL     1      41.700 -11.673   3.584  1.00  0.00     0.066 C 
HETATM   10  H   UNL     1      45.052 -12.109   3.618  1.00  0.00     0.161 HD
ENDROOT
BRANCH   6  11
HETATM   11  C   UNL     1      44.500 -10.518   8.728  1.00  0.00     0.272 C 
HETATM   12  N   UNL     1      43.650 -10.900   9.740  1.00  0.00    -0.353 N 
HETATM   13  H   UNL     1      42.747 -11.259   9.444  1.00  0.00     0.162 HD
HETATM   14  O   UNL     1      45.555  -9.921   8.916  1.00  0.00    -0.266 OA
BRANCH  12  15
HETATM   15  C   UNL     1      43.875 -10.562  11.128  1.00  0.00     0.155 C 
BRANCH  15  16
HETATM   16  C   UNL     1      42.828  -9.591  11.675  1.00  0.00     0.139 C 
HETATM   17  O   UNL     1      42.036 -10.222  12.702  1.00  0.00    -0.384 OA
HETATM   18  C   UNL     1      41.631  -9.210  13.636  1.00  0.00     0.168 C 
HETATM   19  C   UNL     1      42.323  -7.918  13.245  1.00  0.00     0.029 C 
HETATM   20  C   UNL     1      43.448  -8.384  12.355  1.00  0.00     0.035 C 
ENDBRANCH  15  16
ENDBRANCH  12  15
ENDBRANCH   6  11
BRANCH   8  21
HETATM   21  C   UNL     1      40.803 -12.934   5.619  1.00  0.00     0.409 C 
HETATM   22  F   UNL     1      41.673 -13.733   6.279  1.00  0.00    -0.169 F 
HETATM   23  F   UNL     1      39.830 -12.616   6.514  1.00  0.00    -0.169 F 
HETATM   24  F   UNL     1      40.222 -13.674   4.657  1.00  0.00    -0.169 F 
ENDBRANCH   8  21
BRANCH   1  25
HETATM   25  C   UNL     1      42.943 -13.856   2.972  1.00  0.00    -0.034 A 
HETATM   26  C   UNL     1      42.483 -14.393   1.757  1.00  0.00     0.011 A 
HETATM   27  C   UNL     1      42.426 -15.776   1.555  1.00  0.00     0.026 A 
HETATM   28  C   UNL     1      42.828 -16.653   2.565  1.00  0.00     0.055 A 
HETATM   29  C   UNL     1      43.290 -16.142   3.779  1.00  0.00     0.056 A 
HETATM   30 CL   UNL     1      42.734 -18.347   2.244  1.00  0.00    -0.083 Cl
HETATM   31  C   UNL     1      43.352 -14.756   3.974  1.00  0.00     0.034 A 
HETATM   32 CL   UNL     1      43.804 -17.161   5.077  1.00  0.00    -0.083 Cl
ENDBRANCH   1  25
TORSDOF 5
ENDMDL
MODEL 7
REMARK VINA RESULT:      -8.6      2.740      3.362
REMARK  5 active torsions:
REMARK  status: ('A' for Active; 'I' for Inactive)
REMARK    1  A    between atoms: C_2  and  C_3 
REMARK    2  A    between atoms: C_8  and  C_9 
REMARK       I    between atoms: C_9  and  N_10 
REMARK    3  A    between atoms: N_10  and  C_11 
REMARK    4  A    between atoms: C_11  and  C_12 
REMARK    5  A    between atoms: C_19  and  C_20 
ROOT
HETATM    1  C   UNL     1      43.431 -15.044   2.899  1.00  0.00     0.118 C 
HETATM    2  N   UNL     1      43.329 -14.097   4.002  1.00  0.00    -0.366 N 
HETATM    3  C   UNL     1      42.149 -13.567   4.391  1.00  0.00     0.123 A 
HETATM    4  N   UNL     1      40.995 -13.785   3.691  1.00  0.00    -0.240 N 
HETATM    5  N   UNL     1      39.928 -13.134   4.184  1.00  0.00    -0.165 NA
HETATM    6  C   UNL     1      40.408 -12.532   5.296  1.00  0.00     0.148 A 
HETATM    7  C   UNL     1      41.802 -12.767   5.446  1.00  0.00     0.088 A 
HETATM    8  C   UNL     1      40.906 -14.593   2.491  1.00  0.00     0.221 C 
HETATM    9  C   UNL     1      42.304 -14.808   1.876  1.00  0.00     0.066 C 
HETATM   10  H   UNL     1      44.158 -14.008   4.587  1.00  0.00     0.161 HD
ENDROOT
BRANCH   6  11
HETATM   11  C   UNL     1      39.548 -11.749   6.200  1.00  0.00     0.272 C 
HETATM   12  N   UNL     1      40.242 -10.828   6.950  1.00  0.00    -0.353 N 
HETATM   13  H   UNL     1      41.255 -10.897   6.904  1.00  0.00     0.162 HD
HETATM   14  O   UNL     1      38.332 -11.903   6.268  1.00  0.00    -0.266 OA
BRANCH  12  15
HETATM   15  C   UNL     1      39.618 -10.003   7.960  1.00  0.00     0.155 C 
BRANCH  15  16
HETATM   16  C   UNL     1      39.983  -8.524   7.821  1.00  0.00     0.139 C 
HETATM   17  O   UNL     1      41.367  -8.374   7.444  1.00  0.00    -0.384 OA
HETATM   18  C   UNL     1      41.486  -7.182   6.656  1.00  0.00     0.168 C 
HETATM   19  C   UNL     1      40.088  -6.645   6.416  1.00  0.00     0.029 C 
HETATM   20  C   UNL     1      39.207  -7.831   6.716  1.00  0.00     0.035 C 
ENDBRANCH  15  16
ENDBRANCH  12  15
ENDBRANCH   6  11
BRANCH   8  21
HETATM   21  C   UNL     1      40.164 -15.880   2.776  1.00  0.00     0.409 C 
HETATM   22  F   UNL     1      40.556 -16.888   1.964  1.00  0.00    -0.169 F 
HETATM   23  F   UNL     1      40.429 -16.293   4.044  1.00  0.00    -0.169 F 
HETATM   24  F   UNL     1      38.827 -15.771   2.672  1.00  0.00    -0.169 F 
ENDBRANCH   8  21
BRANCH   1  25
HETATM   25  C   UNL     1      43.588 -16.481   3.372  1.00  0.00    -0.034 A 
HETATM   26  C   UNL     1      43.797 -16.733   4.739  1.00  0.00     0.011 A 
HETATM   27  C   UNL     1      43.923 -18.041   5.219  1.00  0.00     0.026 A 
HETATM   28  C   UNL     1      43.843 -19.125   4.342  1.00  0.00     0.055 A 
HETATM   29  C   UNL     1      43.633 -18.897   2.981  1.00  0.00     0.056 A 
HETATM   30 CL   UNL     1      44.004 -20.710   5.007  1.00  0.00    -0.083 Cl
HETATM   31  C   UNL     1      43.501 -17.586   2.506  1.00  0.00     0.034 A 
HETATM   32 CL   UNL     1      43.524 -20.185   1.833  1.00  0.00    -0.083 Cl
ENDBRANCH   1  25
TORSDOF 5
ENDMDL
MODEL 8
REMARK VINA RESULT:      -8.5      2.757      3.376
REMARK  5 active torsions:
REMARK  status: ('A' for Active; 'I' for Inactive)
REMARK    1  A    between atoms: C_2  and  C_3 
REMARK    2  A    between atoms: C_8  and  C_9 
REMARK       I    between atoms: C_9  and  N_10 
REMARK    3  A    between atoms: N_10  and  C_11 
REMARK    4  A    between atoms: C_11  and  C_12 
REMARK    5  A    between atoms: C_19  and  C_20 
ROOT
HETATM    1  C   UNL     1      43.102 -12.781   3.078  1.00  0.00     0.118 C 
HETATM    2  N   UNL     1      43.045 -12.296   4.451  1.00  0.00    -0.366 N 
HETATM    3  C   UNL     1      41.902 -11.842   5.008  1.00  0.00     0.123 A 
HETATM    4  N   UNL     1      40.755 -11.689   4.279  1.00  0.00    -0.240 N 
HETATM    5  N   UNL     1      39.731 -11.171   4.977  1.00  0.00    -0.165 NA
HETATM    6  C   UNL     1      40.224 -11.058   6.232  1.00  0.00     0.148 A 
HETATM    7  C   UNL     1      41.589 -11.453   6.283  1.00  0.00     0.088 A 
HETATM    8  C   UNL     1      40.637 -11.995   2.867  1.00  0.00     0.221 C 
HETATM    9  C   UNL     1      42.029 -12.092   2.214  1.00  0.00     0.066 C 
HETATM   10  H   UNL     1      43.861 -12.497   5.026  1.00  0.00     0.161 HD
ENDROOT
BRANCH   6  11
HETATM   11  C   UNL     1      39.405 -10.586   7.360  1.00  0.00     0.272 C 
HETATM   12  N   UNL     1      40.098  -9.785   8.239  1.00  0.00    -0.353 N 
HETATM   13  H   UNL     1      41.102  -9.738   8.092  1.00  0.00     0.162 HD
HETATM   14  O   UNL     1      38.220 -10.876   7.495  1.00  0.00    -0.266 OA
BRANCH  12  15
HETATM   15  C   UNL     1      39.519  -9.271   9.459  1.00  0.00     0.155 C 
BRANCH  15  16
HETATM   16  C   UNL     1      40.176  -9.851  10.713  1.00  0.00     0.139 C 
HETATM   17  O   UNL     1      41.596  -9.599  10.709  1.00  0.00    -0.384 OA
HETATM   18  C   UNL     1      42.029  -9.471  12.070  1.00  0.00     0.168 C 
HETATM   19  C   UNL     1      40.795  -9.506  12.952  1.00  0.00     0.029 C 
HETATM   20  C   UNL     1      39.674  -9.203  11.990  1.00  0.00     0.035 C 
ENDBRANCH  15  16
ENDBRANCH  12  15
ENDBRANCH   6  11
BRANCH   8  21
HETATM   21  C   UNL     1      39.783 -13.227   2.665  1.00  0.00     0.409 C 
HETATM   22  F   UNL     1      39.930 -14.123   3.667  1.00  0.00    -0.169 F 
HETATM   23  F   UNL     1      38.468 -12.880   2.657  1.00  0.00    -0.169 F 
HETATM   24  F   UNL     1      40.023 -13.870   1.507  1.00  0.00    -0.169 F 
ENDBRANCH   8  21
BRANCH   1  25
HETATM   25  C   UNL     1      43.126 -14.299   2.994  1.00  0.00    -0.034 A 
HETATM   26  C   UNL     1      43.240 -14.914   1.735  1.00  0.00     0.011 A 
HETATM   27  C   UNL     1      43.289 -16.306   1.614  1.00  0.00     0.026 A 
HETATM   28  C   UNL     1      43.226 -17.116   2.751  1.00  0.00     0.055 A 
HETATM   29  C   UNL     1      43.115 -16.526   4.012  1.00  0.00     0.056 A 
HETATM   30 CL   UNL     1      43.296 -18.826   2.526  1.00  0.00    -0.083 Cl
HETATM   31  C   UNL     1      43.073 -15.131   4.128  1.00  0.00     0.034 A 
HETATM   32 CL   UNL     1      43.030 -17.458   5.464  1.00  0.00    -0.083 Cl
ENDBRANCH   1  25
TORSDOF 5
ENDMDL
MODEL 9
REMARK VINA RESULT:      -8.5      2.422      3.390
REMARK  5 active torsions:
REMARK  status: ('A' for Active; 'I' for Inactive)
REMARK    1  A    between atoms: C_2  and  C_3 
REMARK    2  A    between atoms: C_8  and  C_9 
REMARK       I    between atoms: C_9  and  N_10 
REMARK    3  A    between atoms: N_10  and  C_11 
REMARK    4  A    between atoms: C_11  and  C_12 
REMARK    5  A    between atoms: C_19  and  C_20 
ROOT
HETATM    1  C   UNL     1      42.813 -11.692   3.123  1.00  0.00     0.118 C 
HETATM    2  N   UNL     1      43.955 -11.521   4.011  1.00  0.00    -0.366 N 
HETATM    3  C   UNL     1      43.811 -11.270   5.330  1.00  0.00     0.123 A 
HETATM    4  N   UNL     1      42.587 -11.033   5.890  1.00  0.00    -0.240 N 
HETATM    5  N   UNL     1      42.635 -10.743   7.202  1.00  0.00    -0.165 NA
HETATM    6  C   UNL     1      43.945 -10.876   7.510  1.00  0.00     0.148 A 
HETATM    7  C   UNL     1      44.715 -11.188   6.356  1.00  0.00     0.088 A 
HETATM    8  C   UNL     1      41.338 -11.031   5.155  1.00  0.00     0.221 C 
HETATM    9  C   UNL     1      41.599 -10.898   3.642  1.00  0.00     0.066 C 
HETATM   10  H   UNL     1      44.859 -11.793   3.628  1.00  0.00     0.161 HD
ENDROOT
BRANCH   6  11
HETATM   11  C   UNL     1      44.451 -10.711   8.883  1.00  0.00     0.272 C 
HETATM   12  N   UNL     1      43.453 -10.526   9.812  1.00  0.00    -0.353 N 
HETATM   13  H   UNL     1      42.521 -10.380   9.434  1.00  0.00     0.162 HD
HETATM   14  O   UNL     1      45.645 -10.742   9.165  1.00  0.00    -0.266 OA
BRANCH  12  15
HETATM   15  C   UNL     1      43.716 -10.266  11.210  1.00  0.00     0.155 C 
BRANCH  15  16
HETATM   16  C   UNL     1      42.677  -9.338  11.842  1.00  0.00     0.139 C 
HETATM   17  O   UNL     1      41.801 -10.076  12.717  1.00  0.00    -0.384 OA
HETATM   18  C   UNL     1      41.381  -9.197  13.770  1.00  0.00     0.168 C 
HETATM   19  C   UNL     1      42.146  -7.896  13.618  1.00  0.00     0.029 C 
HETATM   20  C   UNL     1      43.302  -8.277  12.729  1.00  0.00     0.035 C 
ENDBRANCH  15  16
ENDBRANCH  12  15
ENDBRANCH   6  11
BRANCH   8  21
HETATM   21  C   UNL     1      40.507 -12.239   5.525  1.00  0.00     0.409 C 
HETATM   22  F   UNL     1      41.269 -13.287   5.912  1.00  0.00    -0.169 F 
HETATM   23  F   UNL     1      39.708 -11.942   6.585  1.00  0.00    -0.169 F 
HETATM   24  F   UNL     1      39.700 -12.667   4.537  1.00  0.00    -0.169 F 
ENDBRANCH   8  21
BRANCH   1  25
HETATM   25  C   UNL     1      42.541 -13.151   2.792  1.00  0.00    -0.034 A 
HETATM   26  C   UNL     1      43.320 -14.149   3.403  1.00  0.00     0.011 A 
HETATM   27  C   UNL     1      43.089 -15.504   3.144  1.00  0.00     0.026 A 
HETATM   28  C   UNL     1      42.072 -15.891   2.269  1.00  0.00     0.055 A 
HETATM   29  C   UNL     1      41.283 -14.916   1.653  1.00  0.00     0.056 A 
HETATM   30 CL   UNL     1      41.840 -17.581   2.001  1.00  0.00    -0.083 Cl
HETATM   31  C   UNL     1      41.515 -13.561   1.920  1.00  0.00     0.034 A 
HETATM   32 CL   UNL     1      40.008 -15.314   0.557  1.00  0.00    -0.083 Cl
ENDBRANCH   1  25
TORSDOF 5
ENDMDL
MODEL 10
REMARK VINA RESULT:      -8.2      2.113      2.800
REMARK  5 active torsions:
REMARK  status: ('A' for Active; 'I' for Inactive)
REMARK    1  A    between atoms: C_2  and  C_3 
REMARK    2  A    between atoms: C_8  and  C_9 
REMARK       I    between atoms: C_9  and  N_10 
REMARK    3  A    between atoms: N_10  and  C_11 
REMARK    4  A    between atoms: C_11  and  C_12 
REMARK    5  A    between atoms: C_19  and  C_20 
ROOT
HETATM    1  C   UNL     1      43.331 -15.631   1.544  1.00  0.00     0.118 C 
HETATM    2  N   UNL     1      43.872 -14.391   2.086  1.00  0.00    -0.366 N 
HETATM    3  C   UNL     1      43.082 -13.417   2.587  1.00  0.00     0.123 A 
HETATM    4  N   UNL     1      41.720 -13.478   2.500  1.00  0.00    -0.240 N 
HETATM    5  N   UNL     1      41.093 -12.398   2.998  1.00  0.00    -0.165 NA
HETATM    6  C   UNL     1      42.102 -11.645   3.494  1.00  0.00     0.148 A 
HETATM    7  C   UNL     1      43.364 -12.246   3.238  1.00  0.00     0.088 A 
HETATM    8  C   UNL     1      40.987 -14.567   1.885  1.00  0.00     0.221 C 
HETATM    9  C   UNL     1      41.915 -15.404   0.982  1.00  0.00     0.066 C 
HETATM   10  H   UNL     1      44.879 -14.380   2.245  1.00  0.00     0.161 HD
ENDROOT
BRANCH   6  11
HETATM   11  C   UNL     1      41.861 -10.378   4.204  1.00  0.00     0.272 C 
HETATM   12  N   UNL     1      42.209 -10.423   5.534  1.00  0.00    -0.353 N 
HETATM   13  H   UNL     1      42.443 -11.343   5.896  1.00  0.00     0.162 HD
HETATM   14  O   UNL     1      41.401  -9.381   3.655  1.00  0.00    -0.266 OA
BRANCH  12  15
HETATM   15  C   UNL     1      41.989  -9.322   6.444  1.00  0.00     0.155 C 
BRANCH  15  16
HETATM   16  C   UNL     1      42.895  -9.384   7.675  1.00  0.00     0.139 C 
HETATM   17  O   UNL     1      44.157 -10.000   7.348  1.00  0.00    -0.384 OA
HETATM   18  C   UNL     1      45.164  -9.426   8.193  1.00  0.00     0.168 C 
HETATM   19  C   UNL     1      44.520  -8.303   8.981  1.00  0.00     0.029 C 
HETATM   20  C   UNL     1      43.263  -8.009   8.200  1.00  0.00     0.035 C 
ENDBRANCH  15  16
ENDBRANCH  12  15
ENDBRANCH   6  11
BRANCH   8  21
HETATM   21  C   UNL     1      40.268 -15.380   2.937  1.00  0.00     0.409 C 
HETATM   22  F   UNL     1      40.438 -16.711   2.762  1.00  0.00    -0.169 F 
HETATM   23  F   UNL     1      40.775 -15.094   4.167  1.00  0.00    -0.169 F 
HETATM   24  F   UNL     1      38.944 -15.145   2.997  1.00  0.00    -0.169 F 
ENDBRANCH   8  21
BRANCH   1  25
HETATM   25  C   UNL     1      43.467 -16.800   2.507  1.00  0.00    -0.034 A 
HETATM   26  C   UNL     1      43.503 -18.108   1.994  1.00  0.00     0.011 A 
HETATM   27  C   UNL     1      43.650 -19.211   2.842  1.00  0.00     0.026 A 
HETATM   28  C   UNL     1      43.765 -19.029   4.222  1.00  0.00     0.055 A 
HETATM   29  C   UNL     1      43.734 -17.738   4.753  1.00  0.00     0.056 A 
HETATM   30 CL   UNL     1      43.949 -20.436   5.207  1.00  0.00    -0.083 Cl
HETATM   31  C   UNL     1      43.593 -16.636   3.899  1.00  0.00     0.034 A 
HETATM   32 CL   UNL     1      43.869 -17.430   6.448  1.00  0.00    -0.083 Cl
ENDBRANCH   1  25
TORSDOF 5
ENDMDL
