MODEL 1
REMARK VINA RESULT:      -9.5      0.000      0.000
REMARK  7 active torsions:
REMARK  status: ('A' for Active; 'I' for Inactive)
REMARK    1  A    between atoms: N_5  and  C_6 
REMARK    2  A    between atoms: C_14  and  N_15 
REMARK       I    between atoms: N_15  and  C_16 
REMARK    3  A    between atoms: C_16  and  C_17 
REMARK    4  A    between atoms: C_17  and  C_18 
REMARK    5  A    between atoms: C_18  and  C_19 
REMARK    6  A    between atoms: C_19  and  C_20 
REMARK       I    between atoms: C_20  and  N_21 
REMARK    7  A    between atoms: N_24  and  C_25 
ROOT
HETATM    1  C   UNL     1      40.694  -9.495   5.710  1.00  0.00     0.112 C 
ENDROOT
BRANCH   1   2
HETATM    2  C   UNL     1      39.763  -9.713   6.872  1.00  0.00     0.223 C 
HETATM    3  N   UNL     1      40.126  -9.643   8.170  1.00  0.00    -0.321 N 
HETATM    4  H   UNL     1      39.292  -9.831   8.734  1.00  0.00     0.169 HD
HETATM    5  O   UNL     1      38.575  -9.982   6.648  1.00  0.00    -0.273 OA
BRANCH   3   6
HETATM    6  C   UNL     1      41.222  -9.475   8.973  1.00  0.00     0.129 C 
HETATM    7  C   UNL     1      42.563  -9.375   8.903  1.00  0.00     0.057 C 
HETATM    8  C   UNL     1      43.474  -9.349   7.720  1.00  0.00     0.072 C 
HETATM    9  N   UNL     1      43.153  -9.232  10.180  1.00  0.00    -0.289 N 
HETATM   10  C   UNL     1      44.443  -9.828  10.526  1.00  0.00     0.178 C 
HETATM   11  N   UNL     1      42.114  -9.359  11.151  1.00  0.00    -0.217 N 
HETATM   12  C   UNL     1      40.912  -9.371  10.445  1.00  0.00     0.295 C 
HETATM   13  O   UNL     1      39.761  -9.313  10.862  1.00  0.00    -0.264 OA
BRANCH  11  14
HETATM   14  C   UNL     1      42.253  -8.675  12.387  1.00  0.00     0.060 A 
HETATM   15  C   UNL     1      41.923  -9.328  13.581  1.00  0.00     0.031 A 
HETATM   16  C   UNL     1      42.003  -8.661  14.806  1.00  0.00     0.002 A 
HETATM   17  C   UNL     1      42.410  -7.329  14.850  1.00  0.00     0.000 A 
HETATM   18  C   UNL     1      42.725  -6.663  13.668  1.00  0.00     0.002 A 
HETATM   19  C   UNL     1      42.637  -7.328  12.441  1.00  0.00     0.031 A 
ENDBRANCH  11  14
ENDBRANCH   3   6
ENDBRANCH   1   2
BRANCH   1  20
HETATM   20  C   UNL     1      41.188 -10.806   5.023  1.00  0.00    -0.031 C 
HETATM   21  C   UNL     1      40.083 -11.241   4.041  1.00  0.00     0.016 C 
HETATM   22  C   UNL     1      42.457 -10.511   4.190  1.00  0.00     0.016 C 
BRANCH  20  23
HETATM   23  C   UNL     1      41.495 -11.906   6.072  1.00  0.00     0.112 C 
BRANCH  23  24
HETATM   24  C   UNL     1      40.799 -13.248   5.870  1.00  0.00     0.220 C 
HETATM   25  N   UNL     1      41.370 -14.185   5.023  1.00  0.00    -0.349 N 
HETATM   26  C   UNL     1      40.642 -15.445   4.810  1.00  0.00     0.145 C 
HETATM   27  C   UNL     1      42.793 -14.250   4.651  1.00  0.00     0.145 C 
HETATM   28  C   UNL     1      40.843 -15.996   3.386  1.00  0.00     0.143 C 
HETATM   29  N   UNL     1      42.285 -16.122   3.061  1.00  0.00    -0.375 N 
HETATM   30  C   UNL     1      43.021 -14.858   3.252  1.00  0.00     0.143 C 
HETATM   31  O   UNL     1      39.710 -13.448   6.414  1.00  0.00    -0.273 OA
BRANCH  29  32
HETATM   32  C   UNL     1      42.887 -17.357   3.326  1.00  0.00     0.069 A 
HETATM   33  C   UNL     1      43.468 -17.731   4.553  1.00  0.00     0.142 A 
HETATM   34  F   UNL     1      43.446 -16.901   5.609  1.00  0.00    -0.204 F 
HETATM   35  C   UNL     1      44.066 -18.979   4.747  1.00  0.00     0.044 A 
HETATM   36  C   UNL     1      44.124 -19.897   3.705  1.00  0.00     0.003 A 
HETATM   37  C   UNL     1      43.587 -19.557   2.471  1.00  0.00     0.002 A 
HETATM   38  C   UNL     1      42.984 -18.305   2.288  1.00  0.00     0.032 A 
ENDBRANCH  29  32
ENDBRANCH  23  24
ENDBRANCH  20  23
ENDBRANCH   1  20
TORSDOF 7
ENDMDL
MODEL 2
REMARK VINA RESULT:      -9.3      1.892      2.631
REMARK  7 active torsions:
REMARK  status: ('A' for Active; 'I' for Inactive)
REMARK    1  A    between atoms: N_5  and  C_6 
REMARK    2  A    between atoms: C_14  and  N_15 
REMARK       I    between atoms: N_15  and  C_16 
REMARK    3  A    between atoms: C_16  and  C_17 
REMARK    4  A    between atoms: C_17  and  C_18 
REMARK    5  A    between atoms: C_18  and  C_19 
REMARK    6  A    between atoms: C_19  and  C_20 
REMARK       I    between atoms: C_20  and  N_21 
REMARK    7  A    between atoms: N_24  and  C_25 
ROOT
HETATM    1  C   UNL     1      41.632 -12.622   6.361  1.00  0.00     0.112 C 
ENDROOT
BRANCH   1   2
HETATM    2  C   UNL     1      42.979 -11.987   6.144  1.00  0.00     0.223 C 
HETATM    3  N   UNL     1      43.394 -10.848   6.738  1.00  0.00    -0.321 N 
HETATM    4  H   UNL     1      44.345 -10.658   6.407  1.00  0.00     0.169 HD
HETATM    5  O   UNL     1      43.778 -12.524   5.367  1.00  0.00    -0.273 OA
BRANCH   3   6
HETATM    6  C   UNL     1      42.961  -9.846   7.563  1.00  0.00     0.129 C 
HETATM    7  C   UNL     1      42.272  -8.689   7.531  1.00  0.00     0.057 C 
HETATM    8  C   UNL     1      41.572  -8.009   6.401  1.00  0.00     0.072 C 
HETATM    9  N   UNL     1      42.194  -8.080   8.805  1.00  0.00    -0.289 N 
HETATM   10  C   UNL     1      42.231  -6.630   8.991  1.00  0.00     0.178 C 
HETATM   11  N   UNL     1      42.988  -8.856   9.701  1.00  0.00    -0.217 N 
HETATM   12  C   UNL     1      43.355 -10.009   9.010  1.00  0.00     0.295 C 
HETATM   13  O   UNL     1      43.905 -11.024   9.420  1.00  0.00    -0.264 OA
BRANCH  11  14
HETATM   14  C   UNL     1      42.628  -8.887  11.074  1.00  0.00     0.060 A 
HETATM   15  C   UNL     1      43.436  -8.239  12.018  1.00  0.00     0.031 A 
HETATM   16  C   UNL     1      43.130  -8.297  13.380  1.00  0.00     0.002 A 
HETATM   17  C   UNL     1      42.013  -9.006  13.815  1.00  0.00     0.000 A 
HETATM   18  C   UNL     1      41.210  -9.668  12.889  1.00  0.00     0.002 A 
HETATM   19  C   UNL     1      41.521  -9.617  11.526  1.00  0.00     0.031 A 
ENDBRANCH  11  14
ENDBRANCH   3   6
ENDBRANCH   1   2
BRANCH   1  20
HETATM   20  C   UNL     1      40.499 -12.065   5.444  1.00  0.00    -0.031 C 
HETATM   21  C   UNL     1      39.621 -11.150   6.320  1.00  0.00     0.016 C 
HETATM   22  C   UNL     1      41.115 -11.186   4.331  1.00  0.00     0.016 C 
BRANCH  20  23
HETATM   23  C   UNL     1      39.678 -13.216   4.807  1.00  0.00     0.112 C 
BRANCH  23  24
HETATM   24  C   UNL     1      40.272 -13.864   3.561  1.00  0.00     0.220 C 
HETATM   25  N   UNL     1      41.283 -14.803   3.704  1.00  0.00    -0.349 N 
HETATM   26  C   UNL     1      41.870 -15.365   2.478  1.00  0.00     0.145 C 
HETATM   27  C   UNL     1      41.544 -15.604   4.911  1.00  0.00     0.145 C 
HETATM   28  C   UNL     1      43.366 -15.685   2.647  1.00  0.00     0.143 C 
HETATM   29  N   UNL     1      43.597 -16.554   3.826  1.00  0.00    -0.375 N 
HETATM   30  C   UNL     1      43.029 -15.990   5.066  1.00  0.00     0.143 C 
HETATM   31  O   UNL     1      39.887 -13.494   2.449  1.00  0.00    -0.273 OA
BRANCH  29  32
HETATM   32  C   UNL     1      43.610 -17.935   3.601  1.00  0.00     0.069 A 
HETATM   33  C   UNL     1      44.001 -18.907   4.542  1.00  0.00     0.142 A 
HETATM   34  F   UNL     1      44.369 -18.558   5.786  1.00  0.00    -0.204 F 
HETATM   35  C   UNL     1      44.003 -20.274   4.247  1.00  0.00     0.044 A 
HETATM   36  C   UNL     1      43.631 -20.718   2.984  1.00  0.00     0.003 A 
HETATM   37  C   UNL     1      43.264 -19.789   2.019  1.00  0.00     0.002 A 
HETATM   38  C   UNL     1      43.260 -18.422   2.326  1.00  0.00     0.032 A 
ENDBRANCH  29  32
ENDBRANCH  23  24
ENDBRANCH  20  23
ENDBRANCH   1  20
TORSDOF 7
ENDMDL
MODEL 3
REMARK VINA RESULT:      -9.3      2.686     10.472
REMARK  7 active torsions:
REMARK  status: ('A' for Active; 'I' for Inactive)
REMARK    1  A    between atoms: N_5  and  C_6 
REMARK    2  A    between atoms: C_14  and  N_15 
REMARK       I    between atoms: N_15  and  C_16 
REMARK    3  A    between atoms: C_16  and  C_17 
REMARK    4  A    between atoms: C_17  and  C_18 
REMARK    5  A    between atoms: C_18  and  C_19 
REMARK    6  A    between atoms: C_19  and  C_20 
REMARK       I    between atoms: C_20  and  N_21 
REMARK    7  A    between atoms: N_24  and  C_25 
ROOT
HETATM    1  C   UNL     1      43.797 -11.261   5.521  1.00  0.00     0.112 C 
ENDROOT
BRANCH   1   2
HETATM    2  C   UNL     1      44.157 -12.283   6.565  1.00  0.00     0.223 C 
HETATM    3  N   UNL     1      43.920 -13.608   6.457  1.00  0.00    -0.321 N 
HETATM    4  H   UNL     1      44.271 -14.054   7.309  1.00  0.00     0.169 HD
HETATM    5  O   UNL     1      44.705 -11.908   7.610  1.00  0.00    -0.273 OA
BRANCH   3   6
HETATM    6  C   UNL     1      43.323 -14.530   5.641  1.00  0.00     0.129 C 
HETATM    7  C   UNL     1      42.496 -14.608   4.581  1.00  0.00     0.057 C 
HETATM    8  C   UNL     1      41.881 -13.531   3.748  1.00  0.00     0.072 C 
HETATM    9  N   UNL     1      42.228 -15.946   4.211  1.00  0.00    -0.289 N 
HETATM   10  C   UNL     1      40.926 -16.382   3.706  1.00  0.00     0.178 C 
HETATM   11  N   UNL     1      42.849 -16.792   5.179  1.00  0.00    -0.217 N 
HETATM   12  C   UNL     1      43.635 -15.966   5.981  1.00  0.00     0.295 C 
HETATM   13  O   UNL     1      44.459 -16.263   6.838  1.00  0.00    -0.264 OA
BRANCH  11  14
HETATM   14  C   UNL     1      43.286 -18.081   4.774  1.00  0.00     0.060 A 
HETATM   15  C   UNL     1      43.537 -19.062   5.741  1.00  0.00     0.031 A 
HETATM   16  C   UNL     1      44.015 -20.322   5.372  1.00  0.00     0.002 A 
HETATM   17  C   UNL     1      44.251 -20.614   4.030  1.00  0.00     0.000 A 
HETATM   18  C   UNL     1      44.021 -19.641   3.060  1.00  0.00     0.002 A 
HETATM   19  C   UNL     1      43.550 -18.377   3.430  1.00  0.00     0.031 A 
ENDBRANCH  11  14
ENDBRANCH   3   6
ENDBRANCH   1   2
BRANCH   1  20
HETATM   20  C   UNL     1      42.527 -10.418   5.853  1.00  0.00    -0.031 C 
HETATM   21  C   UNL     1      41.993  -9.866   4.517  1.00  0.00     0.016 C 
HETATM   22  C   UNL     1      41.432 -11.335   6.444  1.00  0.00     0.016 C 
BRANCH  20  23
HETATM   23  C   UNL     1      42.856  -9.282   6.856  1.00  0.00     0.112 C 
BRANCH  23  24
HETATM   24  C   UNL     1      41.740  -8.880   7.815  1.00  0.00     0.220 C 
HETATM   25  N   UNL     1      41.892  -9.126   9.171  1.00  0.00    -0.349 N 
HETATM   26  C   UNL     1      40.773  -8.776  10.058  1.00  0.00     0.145 C 
HETATM   27  C   UNL     1      43.175  -9.299   9.872  1.00  0.00     0.145 C 
HETATM   28  C   UNL     1      40.655  -9.742  11.251  1.00  0.00     0.143 C 
HETATM   29  N   UNL     1      41.939  -9.843  11.986  1.00  0.00    -0.375 N 
HETATM   30  C   UNL     1      43.066 -10.213  11.108  1.00  0.00     0.143 C 
HETATM   31  O   UNL     1      40.698  -8.403   7.358  1.00  0.00    -0.273 OA
BRANCH  29  32
HETATM   32  C   UNL     1      42.120  -8.971  13.065  1.00  0.00     0.069 A 
HETATM   33  C   UNL     1      41.307  -8.922  14.214  1.00  0.00     0.142 A 
HETATM   34  F   UNL     1      40.280  -9.773  14.371  1.00  0.00    -0.204 F 
HETATM   35  C   UNL     1      41.536  -8.016  15.254  1.00  0.00     0.044 A 
HETATM   36  C   UNL     1      42.583  -7.105  15.170  1.00  0.00     0.003 A 
HETATM   37  C   UNL     1      43.392  -7.103  14.041  1.00  0.00     0.002 A 
HETATM   38  C   UNL     1      43.157  -8.019  13.007  1.00  0.00     0.032 A 
ENDBRANCH  29  32
ENDBRANCH  23  24
ENDBRANCH  20  23
ENDBRANCH   1  20
TORSDOF 7
ENDMDL
MODEL 4
REMARK VINA RESULT:      -9.2      1.436      1.999
REMARK  7 active torsions:
REMARK  status: ('A' for Active; 'I' for Inactive)
REMARK    1  A    between atoms: N_5  and  C_6 
REMARK    2  A    between atoms: C_14  and  N_15 
REMARK       I    between atoms: N_15  and  C_16 
REMARK    3  A    between atoms: C_16  and  C_17 
REMARK    4  A    between atoms: C_17  and  C_18 
REMARK    5  A    between atoms: C_18  and  C_19 
REMARK    6  A    between atoms: C_19  and  C_20 
REMARK       I    between atoms: C_20  and  N_21 
REMARK    7  A    between atoms: N_24  and  C_25 
ROOT
HETATM    1  C   UNL     1      41.091 -10.566   6.080  1.00  0.00     0.112 C 
ENDROOT
BRANCH   1   2
HETATM    2  C   UNL     1      41.499  -9.144   6.358  1.00  0.00     0.223 C 
HETATM    3  N   UNL     1      42.152  -8.736   7.467  1.00  0.00    -0.321 N 
HETATM    4  H   UNL     1      42.298  -7.726   7.383  1.00  0.00     0.169 HD
HETATM    5  O   UNL     1      41.224  -8.267   5.529  1.00  0.00    -0.273 OA
BRANCH   3   6
HETATM    6  C   UNL     1      42.616  -9.192   8.670  1.00  0.00     0.129 C 
HETATM    7  C   UNL     1      43.607  -9.939   9.193  1.00  0.00     0.057 C 
HETATM    8  C   UNL     1      44.778 -10.593   8.538  1.00  0.00     0.072 C 
HETATM    9  N   UNL     1      43.499 -10.059  10.599  1.00  0.00    -0.289 N 
HETATM   10  C   UNL     1      43.860 -11.279  11.318  1.00  0.00     0.178 C 
HETATM   11  N   UNL     1      42.281  -9.427  10.991  1.00  0.00    -0.217 N 
HETATM   12  C   UNL     1      41.791  -8.773   9.862  1.00  0.00     0.295 C 
HETATM   13  O   UNL     1      40.860  -7.983   9.759  1.00  0.00    -0.264 OA
BRANCH  11  14
HETATM   14  C   UNL     1      42.203  -8.849  12.286  1.00  0.00     0.060 A 
HETATM   15  C   UNL     1      43.127  -7.866  12.663  1.00  0.00     0.031 A 
HETATM   16  C   UNL     1      43.102  -7.318  13.948  1.00  0.00     0.002 A 
HETATM   17  C   UNL     1      42.155  -7.751  14.873  1.00  0.00     0.000 A 
HETATM   18  C   UNL     1      41.240  -8.739  14.516  1.00  0.00     0.002 A 
HETATM   19  C   UNL     1      41.270  -9.293  13.233  1.00  0.00     0.031 A 
ENDBRANCH  11  14
ENDBRANCH   3   6
ENDBRANCH   1   2
BRANCH   1  20
HETATM   20  C   UNL     1      39.564 -10.842   6.234  1.00  0.00    -0.031 C 
HETATM   21  C   UNL     1      39.190 -10.503   7.690  1.00  0.00     0.016 C 
HETATM   22  C   UNL     1      38.766  -9.885   5.318  1.00  0.00     0.016 C 
BRANCH  20  23
HETATM   23  C   UNL     1      39.222 -12.312   5.879  1.00  0.00     0.112 C 
BRANCH  23  24
HETATM   24  C   UNL     1      39.718 -12.815   4.527  1.00  0.00     0.220 C 
HETATM   25  N   UNL     1      40.835 -13.636   4.479  1.00  0.00    -0.349 N 
HETATM   26  C   UNL     1      41.317 -14.055   3.154  1.00  0.00     0.145 C 
HETATM   27  C   UNL     1      41.335 -14.468   5.586  1.00  0.00     0.145 C 
HETATM   28  C   UNL     1      42.848 -14.208   3.117  1.00  0.00     0.143 C 
HETATM   29  N   UNL     1      43.322 -15.109   4.195  1.00  0.00    -0.375 N 
HETATM   30  C   UNL     1      42.861 -14.685   5.531  1.00  0.00     0.143 C 
HETATM   31  O   UNL     1      39.154 -12.431   3.499  1.00  0.00    -0.273 OA
BRANCH  29  32
HETATM   32  C   UNL     1      43.457 -16.464   3.873  1.00  0.00     0.069 A 
HETATM   33  C   UNL     1      44.181 -17.409   4.625  1.00  0.00     0.142 A 
HETATM   34  F   UNL     1      44.787 -17.062   5.772  1.00  0.00    -0.204 F 
HETATM   35  C   UNL     1      44.286 -18.749   4.239  1.00  0.00     0.044 A 
HETATM   36  C   UNL     1      43.683 -19.189   3.067  1.00  0.00     0.003 A 
HETATM   37  C   UNL     1      42.981 -18.282   2.283  1.00  0.00     0.002 A 
HETATM   38  C   UNL     1      42.877 -16.943   2.682  1.00  0.00     0.032 A 
ENDBRANCH  29  32
ENDBRANCH  23  24
ENDBRANCH  20  23
ENDBRANCH   1  20
TORSDOF 7
ENDMDL
MODEL 5
REMARK VINA RESULT:      -9.2      1.367      1.827
REMARK  7 active torsions:
REMARK  status: ('A' for Active; 'I' for Inactive)
REMARK    1  A    between atoms: N_5  and  C_6 
REMARK    2  A    between atoms: C_14  and  N_15 
REMARK       I    between atoms: N_15  and  C_16 
REMARK    3  A    between atoms: C_16  and  C_17 
REMARK    4  A    between atoms: C_17  and  C_18 
REMARK    5  A    between atoms: C_18  and  C_19 
REMARK    6  A    between atoms: C_19  and  C_20 
REMARK       I    between atoms: C_20  and  N_21 
REMARK    7  A    between atoms: N_24  and  C_25 
ROOT
HETATM    1  C   UNL     1      42.328 -10.132   5.405  1.00  0.00     0.112 C 
ENDROOT
BRANCH   1   2
HETATM    2  C   UNL     1      41.162 -10.051   6.353  1.00  0.00     0.223 C 
HETATM    3  N   UNL     1      41.267  -9.837   7.682  1.00  0.00    -0.321 N 
HETATM    4  H   UNL     1      40.318  -9.829   8.068  1.00  0.00     0.169 HD
HETATM    5  O   UNL     1      40.015 -10.193   5.909  1.00  0.00    -0.273 OA
BRANCH   3   6
HETATM    6  C   UNL     1      42.194  -9.697   8.678  1.00  0.00     0.129 C 
HETATM    7  C   UNL     1      43.527  -9.665   8.870  1.00  0.00     0.057 C 
HETATM    8  C   UNL     1      44.649  -9.725   7.887  1.00  0.00     0.072 C 
HETATM    9  N   UNL     1      43.866  -9.508  10.234  1.00  0.00    -0.289 N 
HETATM   10  C   UNL     1      45.029 -10.155  10.839  1.00  0.00     0.178 C 
HETATM   11  N   UNL     1      42.653  -9.550  10.985  1.00  0.00    -0.217 N 
HETATM   12  C   UNL     1      41.611  -9.526  10.059  1.00  0.00     0.295 C 
HETATM   13  O   UNL     1      40.407  -9.397  10.242  1.00  0.00    -0.264 OA
BRANCH  11  14
HETATM   14  C   UNL     1      42.587  -8.832  12.208  1.00  0.00     0.060 A 
HETATM   15  C   UNL     1      42.149  -9.480  13.370  1.00  0.00     0.031 A 
HETATM   16  C   UNL     1      42.028  -8.782  14.574  1.00  0.00     0.002 A 
HETATM   17  C   UNL     1      42.340  -7.426  14.630  1.00  0.00     0.000 A 
HETATM   18  C   UNL     1      42.761  -6.765  13.478  1.00  0.00     0.002 A 
HETATM   19  C   UNL     1      42.874  -7.461  12.270  1.00  0.00     0.031 A 
ENDBRANCH  11  14
ENDBRANCH   3   6
ENDBRANCH   1   2
BRANCH   1  20
HETATM   20  C   UNL     1      42.721 -11.583   4.987  1.00  0.00    -0.031 C 
HETATM   21  C   UNL     1      44.229 -11.565   4.670  1.00  0.00     0.016 C 
HETATM   22  C   UNL     1      42.511 -12.544   6.179  1.00  0.00     0.016 C 
BRANCH  20  23
HETATM   23  C   UNL     1      41.882 -12.062   3.774  1.00  0.00     0.112 C 
BRANCH  23  24
HETATM   24  C   UNL     1      41.134 -13.381   3.946  1.00  0.00     0.220 C 
HETATM   25  N   UNL     1      41.728 -14.556   3.511  1.00  0.00    -0.349 N 
HETATM   26  C   UNL     1      40.954 -15.800   3.642  1.00  0.00     0.145 C 
HETATM   27  C   UNL     1      43.173 -14.770   3.330  1.00  0.00     0.145 C 
HETATM   28  C   UNL     1      41.254 -16.790   2.502  1.00  0.00     0.143 C 
HETATM   29  N   UNL     1      42.709 -17.048   2.386  1.00  0.00    -0.375 N 
HETATM   30  C   UNL     1      43.494 -15.807   2.235  1.00  0.00     0.143 C 
HETATM   31  O   UNL     1      39.991 -13.368   4.409  1.00  0.00    -0.273 OA
BRANCH  29  32
HETATM   32  C   UNL     1      43.217 -18.141   3.097  1.00  0.00     0.069 A 
HETATM   33  C   UNL     1      43.387 -19.438   2.578  1.00  0.00     0.142 A 
HETATM   34  F   UNL     1      43.094 -19.715   1.297  1.00  0.00    -0.204 F 
HETATM   35  C   UNL     1      43.890 -20.492   3.348  1.00  0.00     0.044 A 
HETATM   36  C   UNL     1      44.223 -20.286   4.682  1.00  0.00     0.003 A 
HETATM   37  C   UNL     1      44.044 -19.027   5.240  1.00  0.00     0.002 A 
HETATM   38  C   UNL     1      43.545 -17.977   4.458  1.00  0.00     0.032 A 
ENDBRANCH  29  32
ENDBRANCH  23  24
ENDBRANCH  20  23
ENDBRANCH   1  20
TORSDOF 7
ENDMDL
MODEL 6
REMARK VINA RESULT:      -9.1      2.045      3.414
REMARK  7 active torsions:
REMARK  status: ('A' for Active; 'I' for Inactive)
REMARK    1  A    between atoms: N_5  and  C_6 
REMARK    2  A    between atoms: C_14  and  N_15 
REMARK       I    between atoms: N_15  and  C_16 
REMARK    3  A    between atoms: C_16  and  C_17 
REMARK    4  A    between atoms: C_17  and  C_18 
REMARK    5  A    between atoms: C_18  and  C_19 
REMARK    6  A    between atoms: C_19  and  C_20 
REMARK       I    between atoms: C_20  and  N_21 
REMARK    7  A    between atoms: N_24  and  C_25 
ROOT
HETATM    1  C   UNL     1      38.390  -9.929   5.276  1.00  0.00     0.112 C 
ENDROOT
BRANCH   1   2
HETATM    2  C   UNL     1      38.508  -8.511   5.767  1.00  0.00     0.223 C 
HETATM    3  N   UNL     1      39.336  -8.108   6.755  1.00  0.00    -0.321 N 
HETATM    4  H   UNL     1      39.205  -7.099   6.872  1.00  0.00     0.169 HD
HETATM    5  O   UNL     1      37.804  -7.635   5.249  1.00  0.00    -0.273 OA
BRANCH   3   6
HETATM    6  C   UNL     1      40.223  -8.590   7.678  1.00  0.00     0.129 C 
HETATM    7  C   UNL     1      40.255  -9.177   8.889  1.00  0.00     0.057 C 
HETATM    8  C   UNL     1      39.144  -9.637   9.775  1.00  0.00     0.072 C 
HETATM    9  N   UNL     1      41.578  -9.410   9.334  1.00  0.00    -0.289 N 
HETATM   10  C   UNL     1      41.972  -9.295  10.737  1.00  0.00     0.178 C 
HETATM   11  N   UNL     1      42.461  -8.829   8.375  1.00  0.00    -0.217 N 
HETATM   12  C   UNL     1      41.674  -8.444   7.292  1.00  0.00     0.295 C 
HETATM   13  O   UNL     1      42.011  -8.043   6.184  1.00  0.00    -0.264 OA
BRANCH  11  14
HETATM   14  C   UNL     1      43.748  -9.404   8.202  1.00  0.00     0.060 A 
HETATM   15  C   UNL     1      44.890  -8.636   8.462  1.00  0.00     0.031 A 
HETATM   16  C   UNL     1      46.167  -9.163   8.251  1.00  0.00     0.002 A 
HETATM   17  C   UNL     1      46.316 -10.463   7.774  1.00  0.00     0.000 A 
HETATM   18  C   UNL     1      45.188 -11.231   7.496  1.00  0.00     0.002 A 
HETATM   19  C   UNL     1      43.910 -10.701   7.699  1.00  0.00     0.031 A 
ENDBRANCH  11  14
ENDBRANCH   3   6
ENDBRANCH   1   2
BRANCH   1  20
HETATM   20  C   UNL     1      39.530 -10.375   4.308  1.00  0.00    -0.031 C 
HETATM   21  C   UNL     1      38.868 -11.189   3.179  1.00  0.00     0.016 C 
HETATM   22  C   UNL     1      40.179  -9.130   3.659  1.00  0.00     0.016 C 
BRANCH  20  23
HETATM   23  C   UNL     1      40.610 -11.198   5.056  1.00  0.00     0.112 C 
BRANCH  23  24
HETATM   24  C   UNL     1      40.254 -12.644   5.383  1.00  0.00     0.220 C 
HETATM   25  N   UNL     1      40.836 -13.667   4.648  1.00  0.00    -0.349 N 
HETATM   26  C   UNL     1      40.426 -15.045   4.955  1.00  0.00     0.145 C 
HETATM   27  C   UNL     1      42.102 -13.573   3.903  1.00  0.00     0.145 C 
HETATM   28  C   UNL     1      40.428 -15.942   3.703  1.00  0.00     0.143 C 
HETATM   29  N   UNL     1      41.738 -15.889   3.011  1.00  0.00    -0.375 N 
HETATM   30  C   UNL     1      42.150 -14.511   2.680  1.00  0.00     0.143 C 
HETATM   31  O   UNL     1      39.409 -12.874   6.252  1.00  0.00    -0.273 OA
BRANCH  29  32
HETATM   32  C   UNL     1      42.682 -16.859   3.367  1.00  0.00     0.069 A 
HETATM   33  C   UNL     1      43.482 -16.826   4.525  1.00  0.00     0.142 A 
HETATM   34  F   UNL     1      43.359 -15.834   5.423  1.00  0.00    -0.204 F 
HETATM   35  C   UNL     1      44.417 -17.824   4.816  1.00  0.00     0.044 A 
HETATM   36  C   UNL     1      44.601 -18.887   3.941  1.00  0.00     0.003 A 
HETATM   37  C   UNL     1      43.850 -18.943   2.774  1.00  0.00     0.002 A 
HETATM   38  C   UNL     1      42.911 -17.941   2.494  1.00  0.00     0.032 A 
ENDBRANCH  29  32
ENDBRANCH  23  24
ENDBRANCH  20  23
ENDBRANCH   1  20
TORSDOF 7
ENDMDL
MODEL 7
REMARK VINA RESULT:      -8.9      2.562     10.238
REMARK  7 active torsions:
REMARK  status: ('A' for Active; 'I' for Inactive)
REMARK    1  A    between atoms: N_5  and  C_6 
REMARK    2  A    between atoms: C_14  and  N_15 
REMARK       I    between atoms: N_15  and  C_16 
REMARK    3  A    between atoms: C_16  and  C_17 
REMARK    4  A    between atoms: C_17  and  C_18 
REMARK    5  A    between atoms: C_18  and  C_19 
REMARK    6  A    between atoms: C_19  and  C_20 
REMARK       I    between atoms: C_20  and  N_21 
REMARK    7  A    between atoms: N_24  and  C_25 
ROOT
HETATM    1  C   UNL     1      39.632 -11.562   4.371  1.00  0.00     0.112 C 
ENDROOT
BRANCH   1   2
HETATM    2  C   UNL     1      39.806 -12.640   5.407  1.00  0.00     0.223 C 
HETATM    3  N   UNL     1      40.680 -13.664   5.309  1.00  0.00    -0.321 N 
HETATM    4  H   UNL     1      40.581 -14.234   6.154  1.00  0.00     0.169 HD
HETATM    5  O   UNL     1      39.105 -12.612   6.427  1.00  0.00    -0.273 OA
BRANCH   3   6
HETATM    6  C   UNL     1      41.589 -14.223   4.452  1.00  0.00     0.129 C 
HETATM    7  C   UNL     1      42.613 -13.884   3.647  1.00  0.00     0.057 C 
HETATM    8  C   UNL     1      43.263 -12.561   3.409  1.00  0.00     0.072 C 
HETATM    9  N   UNL     1      43.150 -15.003   2.968  1.00  0.00    -0.289 N 
HETATM   10  C   UNL     1      43.655 -14.929   1.598  1.00  0.00     0.178 C 
HETATM   11  N   UNL     1      42.335 -16.130   3.286  1.00  0.00    -0.217 N 
HETATM   12  C   UNL     1      41.461 -15.718   4.291  1.00  0.00     0.295 C 
HETATM   13  O   UNL     1      40.689 -16.380   4.974  1.00  0.00    -0.264 OA
BRANCH  11  14
HETATM   14  C   UNL     1      42.930 -17.419   3.291  1.00  0.00     0.060 A 
HETATM   15  C   UNL     1      42.675 -18.304   2.236  1.00  0.00     0.031 A 
HETATM   16  C   UNL     1      43.209 -19.596   2.242  1.00  0.00     0.002 A 
HETATM   17  C   UNL     1      44.002 -20.018   3.307  1.00  0.00     0.000 A 
HETATM   18  C   UNL     1      44.251 -19.153   4.370  1.00  0.00     0.002 A 
HETATM   19  C   UNL     1      43.709 -17.863   4.368  1.00  0.00     0.031 A 
ENDBRANCH  11  14
ENDBRANCH   3   6
ENDBRANCH   1   2
BRANCH   1  20
HETATM   20  C   UNL     1      40.088 -10.143   4.832  1.00  0.00    -0.031 C 
HETATM   21  C   UNL     1      41.402 -10.327   5.615  1.00  0.00     0.016 C 
HETATM   22  C   UNL     1      40.406  -9.271   3.595  1.00  0.00     0.016 C 
BRANCH  20  23
HETATM   23  C   UNL     1      38.996  -9.455   5.690  1.00  0.00     0.112 C 
BRANCH  23  24
HETATM   24  C   UNL     1      39.444  -8.263   6.530  1.00  0.00     0.220 C 
HETATM   25  N   UNL     1      39.518  -8.398   7.908  1.00  0.00    -0.349 N 
HETATM   26  C   UNL     1      39.900  -7.212   8.690  1.00  0.00     0.145 C 
HETATM   27  C   UNL     1      39.670  -9.667   8.639  1.00  0.00     0.145 C 
HETATM   28  C   UNL     1      39.206  -7.176  10.064  1.00  0.00     0.143 C 
HETATM   29  N   UNL     1      39.436  -8.435  10.812  1.00  0.00    -0.375 N 
HETATM   30  C   UNL     1      39.037  -9.631  10.044  1.00  0.00     0.143 C 
HETATM   31  O   UNL     1      39.670  -7.186   5.973  1.00  0.00    -0.273 OA
BRANCH  29  32
HETATM   32  C   UNL     1      40.535  -8.466  11.677  1.00  0.00     0.069 A 
HETATM   33  C   UNL     1      40.621  -9.234  12.854  1.00  0.00     0.142 A 
HETATM   34  F   UNL     1      39.621 -10.053  13.219  1.00  0.00    -0.204 F 
HETATM   35  C   UNL     1      41.747  -9.209  13.682  1.00  0.00     0.044 A 
HETATM   36  C   UNL     1      42.827  -8.391  13.370  1.00  0.00     0.003 A 
HETATM   37  C   UNL     1      42.770  -7.597  12.232  1.00  0.00     0.002 A 
HETATM   38  C   UNL     1      41.640  -7.634  11.405  1.00  0.00     0.032 A 
ENDBRANCH  29  32
ENDBRANCH  23  24
ENDBRANCH  20  23
ENDBRANCH   1  20
TORSDOF 7
ENDMDL
MODEL 8
REMARK VINA RESULT:      -8.8      4.640      8.772
REMARK  7 active torsions:
REMARK  status: ('A' for Active; 'I' for Inactive)
REMARK    1  A    between atoms: N_5  and  C_6 
REMARK    2  A    between atoms: C_14  and  N_15 
REMARK       I    between atoms: N_15  and  C_16 
REMARK    3  A    between atoms: C_16  and  C_17 
REMARK    4  A    between atoms: C_17  and  C_18 
REMARK    5  A    between atoms: C_18  and  C_19 
REMARK    6  A    between atoms: C_19  and  C_20 
REMARK       I    between atoms: C_20  and  N_21 
REMARK    7  A    between atoms: N_24  and  C_25 
ROOT
HETATM    1  C   UNL     1      41.112 -12.067   6.359  1.00  0.00     0.112 C 
ENDROOT
BRANCH   1   2
HETATM    2  C   UNL     1      40.191 -13.193   5.976  1.00  0.00     0.223 C 
HETATM    3  N   UNL     1      40.576 -14.476   5.806  1.00  0.00    -0.321 N 
HETATM    4  H   UNL     1      39.743 -15.016   5.553  1.00  0.00     0.169 HD
HETATM    5  O   UNL     1      38.990 -12.952   5.794  1.00  0.00    -0.273 OA
BRANCH   3   6
HETATM    6  C   UNL     1      41.690 -15.271   5.791  1.00  0.00     0.129 C 
HETATM    7  C   UNL     1      42.768 -15.574   6.539  1.00  0.00     0.057 C 
HETATM    8  C   UNL     1      43.163 -15.113   7.903  1.00  0.00     0.072 C 
HETATM    9  N   UNL     1      43.610 -16.515   5.902  1.00  0.00    -0.289 N 
HETATM   10  C   UNL     1      45.067 -16.477   6.018  1.00  0.00     0.178 C 
HETATM   11  N   UNL     1      43.082 -16.751   4.597  1.00  0.00    -0.217 N 
HETATM   12  C   UNL     1      41.842 -16.116   4.550  1.00  0.00     0.295 C 
HETATM   13  O   UNL     1      40.968 -16.171   3.693  1.00  0.00    -0.264 OA
BRANCH  11  14
HETATM   14  C   UNL     1      43.299 -18.019   3.997  1.00  0.00     0.060 A 
HETATM   15  C   UNL     1      43.765 -19.085   4.777  1.00  0.00     0.031 A 
HETATM   16  C   UNL     1      44.034 -20.328   4.200  1.00  0.00     0.002 A 
HETATM   17  C   UNL     1      43.843 -20.520   2.834  1.00  0.00     0.000 A 
HETATM   18  C   UNL     1      43.394 -19.465   2.043  1.00  0.00     0.002 A 
HETATM   19  C   UNL     1      43.133 -18.217   2.619  1.00  0.00     0.031 A 
ENDBRANCH  11  14
ENDBRANCH   3   6
ENDBRANCH   1   2
BRANCH   1  20
HETATM   20  C   UNL     1      41.529 -11.142   5.173  1.00  0.00    -0.031 C 
HETATM   21  C   UNL     1      42.268  -9.936   5.784  1.00  0.00     0.016 C 
HETATM   22  C   UNL     1      42.532 -11.885   4.260  1.00  0.00     0.016 C 
BRANCH  20  23
HETATM   23  C   UNL     1      40.294 -10.703   4.345  1.00  0.00     0.112 C 
BRANCH  23  24
HETATM   24  C   UNL     1      40.546 -10.364   2.879  1.00  0.00     0.220 C 
HETATM   25  N   UNL     1      40.361 -11.344   1.917  1.00  0.00    -0.349 N 
HETATM   26  C   UNL     1      40.668 -10.996   0.521  1.00  0.00     0.145 C 
HETATM   27  C   UNL     1      39.508 -12.536   2.060  1.00  0.00     0.145 C 
HETATM   28  C   UNL     1      41.217 -12.199  -0.268  1.00  0.00     0.143 C 
HETATM   29  N   UNL     1      40.304 -13.364  -0.171  1.00  0.00    -0.375 N 
HETATM   30  C   UNL     1      40.005 -13.734   1.226  1.00  0.00     0.143 C 
HETATM   31  O   UNL     1      40.971  -9.243   2.587  1.00  0.00    -0.273 OA
BRANCH  29  32
HETATM   32  C   UNL     1      39.340 -13.497  -1.175  1.00  0.00     0.069 A 
HETATM   33  C   UNL     1      38.166 -12.727  -1.282  1.00  0.00     0.142 A 
HETATM   34  F   UNL     1      37.902 -11.743  -0.407  1.00  0.00    -0.204 F 
HETATM   35  C   UNL     1      37.235 -12.921  -2.307  1.00  0.00     0.044 A 
HETATM   36  C   UNL     1      37.438 -13.916  -3.257  1.00  0.00     0.003 A 
HETATM   37  C   UNL     1      38.570 -14.715  -3.172  1.00  0.00     0.002 A 
HETATM   38  C   UNL     1      39.499 -14.509  -2.144  1.00  0.00     0.032 A 
ENDBRANCH  29  32
ENDBRANCH  23  24
ENDBRANCH  20  23
ENDBRANCH   1  20
TORSDOF 7
ENDMDL
MODEL 9
REMARK VINA RESULT:      -8.7      2.616      4.442
REMARK  7 active torsions:
REMARK  status: ('A' for Active; 'I' for Inactive)
REMARK    1  A    between atoms: N_5  and  C_6 
REMARK    2  A    between atoms: C_14  and  N_15 
REMARK       I    between atoms: N_15  and  C_16 
REMARK    3  A    between atoms: C_16  and  C_17 
REMARK    4  A    between atoms: C_17  and  C_18 
REMARK    5  A    between atoms: C_18  and  C_19 
REMARK    6  A    between atoms: C_19  and  C_20 
REMARK       I    between atoms: C_20  and  N_21 
REMARK    7  A    between atoms: N_24  and  C_25 
ROOT
HETATM    1  C   UNL     1      43.011 -10.015   9.765  1.00  0.00     0.112 C 
ENDROOT
BRANCH   1   2
HETATM    2  C   UNL     1      43.872  -9.386  10.826  1.00  0.00     0.223 C 
HETATM    3  N   UNL     1      43.403  -8.806  11.951  1.00  0.00    -0.321 N 
HETATM    4  H   UNL     1      44.211  -8.469  12.483  1.00  0.00     0.169 HD
HETATM    5  O   UNL     1      45.101  -9.382  10.678  1.00  0.00    -0.273 OA
BRANCH   3   6
HETATM    6  C   UNL     1      42.236  -8.462  12.577  1.00  0.00     0.129 C 
HETATM    7  C   UNL     1      40.908  -8.675  12.503  1.00  0.00     0.057 C 
HETATM    8  C   UNL     1      40.116  -9.555  11.593  1.00  0.00     0.072 C 
HETATM    9  N   UNL     1      40.198  -7.958  13.494  1.00  0.00    -0.289 N 
HETATM   10  C   UNL     1      38.878  -7.376  13.255  1.00  0.00     0.178 C 
HETATM   11  N   UNL     1      41.138  -7.139  14.188  1.00  0.00    -0.217 N 
HETATM   12  C   UNL     1      42.402  -7.524  13.746  1.00  0.00     0.295 C 
HETATM   13  O   UNL     1      43.508  -7.207  14.169  1.00  0.00    -0.264 OA
BRANCH  11  14
HETATM   14  C   UNL     1      40.884  -6.817  15.548  1.00  0.00     0.060 A 
HETATM   15  C   UNL     1      40.963  -7.819  16.523  1.00  0.00     0.031 A 
HETATM   16  C   UNL     1      40.669  -7.539  17.860  1.00  0.00     0.002 A 
HETATM   17  C   UNL     1      40.287  -6.253  18.236  1.00  0.00     0.000 A 
HETATM   18  C   UNL     1      40.189  -5.251  17.274  1.00  0.00     0.002 A 
HETATM   19  C   UNL     1      40.475  -5.533  15.934  1.00  0.00     0.031 A 
ENDBRANCH  11  14
ENDBRANCH   3   6
ENDBRANCH   1   2
BRANCH   1  20
HETATM   20  C   UNL     1      42.864  -9.167   8.464  1.00  0.00    -0.031 C 
HETATM   21  C   UNL     1      41.412  -9.338   7.977  1.00  0.00     0.016 C 
HETATM   22  C   UNL     1      43.067  -7.669   8.792  1.00  0.00     0.016 C 
BRANCH  20  23
HETATM   23  C   UNL     1      43.890  -9.609   7.388  1.00  0.00     0.112 C 
BRANCH  23  24
HETATM   24  C   UNL     1      44.263 -11.088   7.376  1.00  0.00     0.220 C 
HETATM   25  N   UNL     1      43.522 -11.966   6.599  1.00  0.00    -0.349 N 
HETATM   26  C   UNL     1      43.876 -13.392   6.655  1.00  0.00     0.145 C 
HETATM   27  C   UNL     1      42.715 -11.599   5.424  1.00  0.00     0.145 C 
HETATM   28  C   UNL     1      42.644 -14.301   6.493  1.00  0.00     0.143 C 
HETATM   29  N   UNL     1      41.888 -13.962   5.263  1.00  0.00    -0.375 N 
HETATM   30  C   UNL     1      41.511 -12.536   5.205  1.00  0.00     0.143 C 
HETATM   31  O   UNL     1      45.176 -11.484   8.105  1.00  0.00    -0.273 OA
BRANCH  29  32
HETATM   32  C   UNL     1      42.219 -14.669   4.102  1.00  0.00     0.069 A 
HETATM   33  C   UNL     1      41.857 -16.002   3.832  1.00  0.00     0.142 A 
HETATM   34  F   UNL     1      41.104 -16.703   4.697  1.00  0.00    -0.204 F 
HETATM   35  C   UNL     1      42.231 -16.655   2.654  1.00  0.00     0.044 A 
HETATM   36  C   UNL     1      43.006 -15.997   1.705  1.00  0.00     0.003 A 
HETATM   37  C   UNL     1      43.406 -14.690   1.945  1.00  0.00     0.002 A 
HETATM   38  C   UNL     1      43.021 -14.042   3.127  1.00  0.00     0.032 A 
ENDBRANCH  29  32
ENDBRANCH  23  24
ENDBRANCH  20  23
ENDBRANCH   1  20
TORSDOF 7
ENDMDL
MODEL 10
REMARK VINA RESULT:      -8.7      1.809      2.559
REMARK  7 active torsions:
REMARK  status: ('A' for Active; 'I' for Inactive)
REMARK    1  A    between atoms: N_5  and  C_6 
REMARK    2  A    between atoms: C_14  and  N_15 
REMARK       I    between atoms: N_15  and  C_16 
REMARK    3  A    between atoms: C_16  and  C_17 
REMARK    4  A    between atoms: C_17  and  C_18 
REMARK    5  A    between atoms: C_18  and  C_19 
REMARK    6  A    between atoms: C_19  and  C_20 
REMARK       I    between atoms: C_20  and  N_21 
REMARK    7  A    between atoms: N_24  and  C_25 
ROOT
HETATM    1  C   UNL     1      41.173  -9.873   5.439  1.00  0.00     0.112 C 
ENDROOT
BRANCH   1   2
HETATM    2  C   UNL     1      42.093 -10.503   6.449  1.00  0.00     0.223 C 
HETATM    3  N   UNL     1      42.133 -10.177   7.759  1.00  0.00    -0.321 N 
HETATM    4  H   UNL     1      42.847 -10.765   8.200  1.00  0.00     0.169 HD
HETATM    5  O   UNL     1      42.883 -11.381   6.078  1.00  0.00    -0.273 OA
BRANCH   3   6
HETATM    6  C   UNL     1      41.602  -9.300   8.665  1.00  0.00     0.129 C 
HETATM    7  C   UNL     1      40.574  -8.443   8.812  1.00  0.00     0.057 C 
HETATM    8  C   UNL     1      39.427  -8.140   7.906  1.00  0.00     0.072 C 
HETATM    9  N   UNL     1      40.611  -7.777  10.059  1.00  0.00    -0.289 N 
HETATM   10  C   UNL     1      40.194  -6.385  10.224  1.00  0.00     0.178 C 
HETATM   11  N   UNL     1      41.818  -8.161  10.717  1.00  0.00    -0.217 N 
HETATM   12  C   UNL     1      42.374  -9.189   9.957  1.00  0.00     0.295 C 
HETATM   13  O   UNL     1      43.322  -9.923  10.211  1.00  0.00    -0.264 OA
BRANCH  11  14
HETATM   14  C   UNL     1      41.841  -8.179  12.136  1.00  0.00     0.060 A 
HETATM   15  C   UNL     1      42.835  -7.470  12.822  1.00  0.00     0.031 A 
HETATM   16  C   UNL     1      42.910  -7.513  14.217  1.00  0.00     0.002 A 
HETATM   17  C   UNL     1      41.992  -8.270  14.942  1.00  0.00     0.000 A 
HETATM   18  C   UNL     1      41.008  -8.993  14.271  1.00  0.00     0.002 A 
HETATM   19  C   UNL     1      40.939  -8.956  12.875  1.00  0.00     0.031 A 
ENDBRANCH  11  14
ENDBRANCH   3   6
ENDBRANCH   1   2
BRANCH   1  20
HETATM   20  C   UNL     1      40.032 -10.808   4.932  1.00  0.00    -0.031 C 
HETATM   21  C   UNL     1      39.840 -11.902   6.000  1.00  0.00     0.016 C 
HETATM   22  C   UNL     1      38.708 -10.013   4.842  1.00  0.00     0.016 C 
BRANCH  20  23
HETATM   23  C   UNL     1      40.376 -11.409   3.545  1.00  0.00     0.112 C 
BRANCH  23  24
HETATM   24  C   UNL     1      39.967 -12.861   3.315  1.00  0.00     0.220 C 
HETATM   25  N   UNL     1      40.952 -13.823   3.150  1.00  0.00    -0.349 N 
HETATM   26  C   UNL     1      40.519 -15.201   2.875  1.00  0.00     0.145 C 
HETATM   27  C   UNL     1      42.340 -13.719   3.630  1.00  0.00     0.145 C 
HETATM   28  C   UNL     1      41.506 -15.944   1.956  1.00  0.00     0.143 C 
HETATM   29  N   UNL     1      42.885 -15.890   2.497  1.00  0.00    -0.375 N 
HETATM   30  C   UNL     1      43.337 -14.509   2.759  1.00  0.00     0.143 C 
HETATM   31  O   UNL     1      38.769 -13.139   3.215  1.00  0.00    -0.273 OA
BRANCH  29  32
HETATM   32  C   UNL     1      43.284 -16.949   3.320  1.00  0.00     0.069 A 
HETATM   33  C   UNL     1      43.475 -18.278   2.897  1.00  0.00     0.142 A 
HETATM   34  F   UNL     1      43.315 -18.624   1.609  1.00  0.00    -0.204 F 
HETATM   35  C   UNL     1      43.864 -19.293   3.776  1.00  0.00     0.044 A 
HETATM   36  C   UNL     1      44.056 -19.016   5.124  1.00  0.00     0.003 A 
HETATM   37  C   UNL     1      43.853 -17.722   5.587  1.00  0.00     0.002 A 
HETATM   38  C   UNL     1      43.469 -16.711   4.697  1.00  0.00     0.032 A 
ENDBRANCH  29  32
ENDBRANCH  23  24
ENDBRANCH  20  23
ENDBRANCH   1  20
TORSDOF 7
ENDMDL
