MODEL 1
REMARK VINA RESULT:      -9.8      0.000      0.000
REMARK  5 active torsions:
REMARK  status: ('A' for Active; 'I' for Inactive)
REMARK    1  A    between atoms: C_8  and  N_9 
REMARK    2  A    between atoms: C_12  and  N_13 
REMARK    3  A    between atoms: N_13  and  C_15 
REMARK    4  A    between atoms: C_15  and  C_16 
REMARK    5  A    between atoms: C_17  and  C_18 
ROOT
HETATM    1  N   UNL     1      41.752 -14.985   4.281  1.00  0.00    -0.067 N 
HETATM    2  H   UNL     1      40.941 -14.373   4.127  1.00  0.00     0.280 HD
HETATM    3  C   UNL     1      42.826 -14.118   4.907  1.00  0.00     0.270 C 
ENDROOT
BRANCH   1   4
HETATM    4  C   UNL     1      42.151 -15.652   2.950  1.00  0.00     0.190 C 
HETATM    5  C   UNL     1      40.959 -16.402   2.331  1.00  0.00     0.048 C 
HETATM    6  C   UNL     1      39.953 -15.477   1.645  1.00  0.00     0.099 C 
HETATM    7  N   UNL     1      40.660 -14.635   0.672  1.00  0.00    -0.268 NA
HETATM    8  C   UNL     1      41.709 -13.790   1.248  1.00  0.00     0.099 C 
HETATM    9  C   UNL     1      42.750 -14.687   1.914  1.00  0.00     0.048 C 
BRANCH   7  10
HETATM   10  C   UNL     1      39.823 -13.998  -0.257  1.00  0.00     0.109 A 
HETATM   11  N   UNL     1      39.293 -12.798   0.041  1.00  0.00    -0.224 NA
HETATM   12  C   UNL     1      38.427 -12.239  -0.842  1.00  0.00     0.102 A 
HETATM   13  N   UNL     1      38.070 -12.829  -1.991  1.00  0.00    -0.348 N 
HETATM   14  C   UNL     1      37.808 -10.926  -0.486  1.00  0.00     0.091 C 
HETATM   15  C   UNL     1      38.583 -14.024  -2.321  1.00  0.00     0.009 A 
HETATM   16  H   UNL     1      37.399 -12.367  -2.602  1.00  0.00     0.167 HD
HETATM   17  C   UNL     1      38.158 -14.672  -3.600  1.00  0.00     0.068 C 
HETATM   18  C   UNL     1      39.479 -14.639  -1.443  1.00  0.00     0.069 A 
ENDBRANCH   7  10
ENDBRANCH   1   4
BRANCH   1  19
HETATM   19  C   UNL     1      41.290 -16.033   5.310  1.00  0.00     0.277 C 
BRANCH  19  20
HETATM   20  C   UNL     1      42.261 -16.274   6.407  1.00  0.00     0.016 A 
HETATM   21  C   UNL     1      43.216 -17.330   6.537  1.00  0.00     0.096 A 
HETATM   22  N   UNL     1      43.838 -17.264   7.718  1.00  0.00    -0.174 NA
HETATM   23  N   UNL     1      43.404 -16.133   8.284  1.00  0.00    -0.288 N 
HETATM   24  H   UNL     1      43.802 -15.853   9.178  1.00  0.00     0.188 HD
HETATM   25  C   UNL     1      42.430 -15.518   7.553  1.00  0.00     0.120 A 
BRANCH  21  26
HETATM   26  C   UNL     1      43.507 -18.421   5.613  1.00  0.00    -0.005 A 
HETATM   27  C   UNL     1      43.803 -18.164   4.266  1.00  0.00     0.017 A 
HETATM   28  C   UNL     1      44.079 -19.221   3.395  1.00  0.00     0.043 A 
HETATM   29  C   UNL     1      44.071 -20.527   3.872  1.00  0.00     0.116 A 
HETATM   30  F   UNL     1      44.324 -21.537   3.031  1.00  0.00    -0.206 F 
HETATM   31  C   UNL     1      43.807 -20.798   5.209  1.00  0.00     0.043 A 
HETATM   32  C   UNL     1      43.527 -19.744   6.081  1.00  0.00     0.017 A 
ENDBRANCH  21  26
ENDBRANCH  19  20
ENDBRANCH   1  19
TORSDOF 5
ENDMDL
MODEL 2
REMARK VINA RESULT:      -9.5      1.856      2.492
REMARK  5 active torsions:
REMARK  status: ('A' for Active; 'I' for Inactive)
REMARK    1  A    between atoms: C_8  and  N_9 
REMARK    2  A    between atoms: C_12  and  N_13 
REMARK    3  A    between atoms: N_13  and  C_15 
REMARK    4  A    between atoms: C_15  and  C_16 
REMARK    5  A    between atoms: C_17  and  C_18 
ROOT
HETATM    1  N   UNL     1      42.636 -12.491   4.850  1.00  0.00    -0.067 N 
HETATM    2  H   UNL     1      41.614 -12.471   4.752  1.00  0.00     0.280 HD
HETATM    3  C   UNL     1      42.984 -11.440   5.885  1.00  0.00     0.270 C 
ENDROOT
BRANCH   1   4
HETATM    4  C   UNL     1      43.289 -12.284   3.470  1.00  0.00     0.190 C 
HETATM    5  C   UNL     1      43.125 -13.534   2.589  1.00  0.00     0.048 C 
HETATM    6  C   UNL     1      41.727 -13.668   1.984  1.00  0.00     0.099 C 
HETATM    7  N   UNL     1      41.388 -12.427   1.275  1.00  0.00    -0.268 NA
HETATM    8  C   UNL     1      41.388 -11.227   2.117  1.00  0.00     0.099 C 
HETATM    9  C   UNL     1      42.782 -11.046   2.711  1.00  0.00     0.048 C 
BRANCH   7  10
HETATM   10  C   UNL     1      40.299 -12.542   0.397  1.00  0.00     0.109 A 
HETATM   11  N   UNL     1      39.289 -11.657   0.475  1.00  0.00    -0.224 NA
HETATM   12  C   UNL     1      38.214 -11.835  -0.334  1.00  0.00     0.102 A 
HETATM   13  N   UNL     1      38.109 -12.853  -1.199  1.00  0.00    -0.348 N 
HETATM   14  C   UNL     1      37.075 -10.875  -0.213  1.00  0.00     0.091 C 
HETATM   15  C   UNL     1      39.101 -13.751  -1.305  1.00  0.00     0.009 A 
HETATM   16  H   UNL     1      37.266 -12.943  -1.764  1.00  0.00     0.167 HD
HETATM   17  C   UNL     1      38.955 -14.888  -2.265  1.00  0.00     0.068 C 
HETATM   18  C   UNL     1      40.228 -13.609  -0.493  1.00  0.00     0.069 A 
ENDBRANCH   7  10
ENDBRANCH   1   4
BRANCH   1  19
HETATM   19  C   UNL     1      42.970 -13.883   5.417  1.00  0.00     0.277 C 
BRANCH  19  20
HETATM   20  C   UNL     1      41.780 -14.727   5.693  1.00  0.00     0.016 A 
HETATM   21  C   UNL     1      41.512 -16.060   5.253  1.00  0.00     0.096 A 
HETATM   22  N   UNL     1      40.285 -16.443   5.621  1.00  0.00    -0.174 NA
HETATM   23  N   UNL     1      39.820 -15.450   6.386  1.00  0.00    -0.288 N 
HETATM   24  H   UNL     1      38.909 -15.562   6.828  1.00  0.00     0.188 HD
HETATM   25  C   UNL     1      40.665 -14.380   6.434  1.00  0.00     0.120 A 
BRANCH  21  26
HETATM   26  C   UNL     1      42.348 -16.947   4.452  1.00  0.00    -0.005 A 
HETATM   27  C   UNL     1      42.124 -17.100   3.075  1.00  0.00     0.017 A 
HETATM   28  C   UNL     1      42.934 -17.953   2.323  1.00  0.00     0.043 A 
HETATM   29  C   UNL     1      43.972 -18.641   2.942  1.00  0.00     0.116 A 
HETATM   30  F   UNL     1      44.738 -19.468   2.221  1.00  0.00    -0.206 F 
HETATM   31  C   UNL     1      44.226 -18.481   4.299  1.00  0.00     0.043 A 
HETATM   32  C   UNL     1      43.416 -17.631   5.054  1.00  0.00     0.017 A 
ENDBRANCH  21  26
ENDBRANCH  19  20
ENDBRANCH   1  19
TORSDOF 5
ENDMDL
MODEL 3
REMARK VINA RESULT:      -9.3      1.588      2.047
REMARK  5 active torsions:
REMARK  status: ('A' for Active; 'I' for Inactive)
REMARK    1  A    between atoms: C_8  and  N_9 
REMARK    2  A    between atoms: C_12  and  N_13 
REMARK    3  A    between atoms: N_13  and  C_15 
REMARK    4  A    between atoms: C_15  and  C_16 
REMARK    5  A    between atoms: C_17  and  C_18 
ROOT
HETATM    1  N   UNL     1      41.614 -14.823   4.426  1.00  0.00    -0.067 N 
HETATM    2  H   UNL     1      41.476 -15.432   3.611  1.00  0.00     0.280 HD
HETATM    3  C   UNL     1      40.725 -15.372   5.523  1.00  0.00     0.270 C 
ENDROOT
BRANCH   1   4
HETATM    4  C   UNL     1      41.327 -13.361   4.029  1.00  0.00     0.190 C 
HETATM    5  C   UNL     1      42.360 -12.855   3.007  1.00  0.00     0.048 C 
HETATM    6  C   UNL     1      42.105 -13.363   1.588  1.00  0.00     0.099 C 
HETATM    7  N   UNL     1      40.725 -13.044   1.203  1.00  0.00    -0.268 NA
HETATM    8  C   UNL     1      39.700 -13.634   2.070  1.00  0.00     0.099 C 
HETATM    9  C   UNL     1      39.907 -13.120   3.492  1.00  0.00     0.048 C 
BRANCH   7  10
HETATM   10  C   UNL     1      40.471 -13.141  -0.174  1.00  0.00     0.109 A 
HETATM   11  N   UNL     1      40.849 -12.141  -0.990  1.00  0.00    -0.224 NA
HETATM   12  C   UNL     1      40.525 -12.226  -2.305  1.00  0.00     0.102 A 
HETATM   13  N   UNL     1      39.840 -13.253  -2.826  1.00  0.00    -0.348 N 
HETATM   14  C   UNL     1      40.909 -11.092  -3.200  1.00  0.00     0.091 C 
HETATM   15  C   UNL     1      39.451 -14.269  -2.040  1.00  0.00     0.009 A 
HETATM   16  H   UNL     1      39.609 -13.248  -3.818  1.00  0.00     0.167 HD
HETATM   17  C   UNL     1      38.673 -15.397  -2.639  1.00  0.00     0.068 C 
HETATM   18  C   UNL     1      39.762 -14.226  -0.679  1.00  0.00     0.069 A 
ENDBRANCH   7  10
ENDBRANCH   1   4
BRANCH   1  19
HETATM   19  C   UNL     1      43.087 -15.006   4.835  1.00  0.00     0.277 C 
BRANCH  19  20
HETATM   20  C   UNL     1      43.295 -15.999   5.920  1.00  0.00     0.016 A 
HETATM   21  C   UNL     1      43.458 -17.415   5.813  1.00  0.00     0.096 A 
HETATM   22  N   UNL     1      43.517 -17.978   7.024  1.00  0.00    -0.174 NA
HETATM   23  N   UNL     1      43.527 -16.958   7.888  1.00  0.00    -0.288 N 
HETATM   24  H   UNL     1      43.630 -17.162   8.880  1.00  0.00     0.188 HD
HETATM   25  C   UNL     1      43.362 -15.749   7.278  1.00  0.00     0.120 A 
BRANCH  21  26
HETATM   26  C   UNL     1      43.496 -18.245   4.614  1.00  0.00    -0.005 A 
HETATM   27  C   UNL     1      43.113 -17.728   3.367  1.00  0.00     0.017 A 
HETATM   28  C   UNL     1      43.155 -18.537   2.229  1.00  0.00     0.043 A 
HETATM   29  C   UNL     1      43.590 -19.854   2.336  1.00  0.00     0.116 A 
HETATM   30  F   UNL     1      43.617 -20.629   1.245  1.00  0.00    -0.206 F 
HETATM   31  C   UNL     1      43.999 -20.374   3.557  1.00  0.00     0.043 A 
HETATM   32  C   UNL     1      43.955 -19.569   4.697  1.00  0.00     0.017 A 
ENDBRANCH  21  26
ENDBRANCH  19  20
ENDBRANCH   1  19
TORSDOF 5
ENDMDL
MODEL 4
REMARK VINA RESULT:      -9.1      2.889      4.606
REMARK  5 active torsions:
REMARK  status: ('A' for Active; 'I' for Inactive)
REMARK    1  A    between atoms: C_8  and  N_9 
REMARK    2  A    between atoms: C_12  and  N_13 
REMARK    3  A    between atoms: N_13  and  C_15 
REMARK    4  A    between atoms: C_15  and  C_16 
REMARK    5  A    between atoms: C_17  and  C_18 
ROOT
HETATM    1  N   UNL     1      42.005 -15.152   5.733  1.00  0.00    -0.067 N 
HETATM    2  H   UNL     1      41.495 -15.372   4.869  1.00  0.00     0.280 HD
HETATM    3  C   UNL     1      41.442 -16.065   6.803  1.00  0.00     0.270 C 
ENDROOT
BRANCH   1   4
HETATM    4  C   UNL     1      41.880 -13.645   6.034  1.00  0.00     0.190 C 
HETATM    5  C   UNL     1      42.758 -12.818   5.081  1.00  0.00     0.048 C 
HETATM    6  C   UNL     1      42.153 -12.659   3.686  1.00  0.00     0.099 C 
HETATM    7  N   UNL     1      40.792 -12.124   3.809  1.00  0.00    -0.268 NA
HETATM    8  C   UNL     1      39.878 -12.962   4.590  1.00  0.00     0.099 C 
HETATM    9  C   UNL     1      40.437 -13.113   6.002  1.00  0.00     0.048 C 
BRANCH   7  10
HETATM   10  C   UNL     1      40.260 -11.612   2.615  1.00  0.00     0.109 A 
HETATM   11  N   UNL     1      38.927 -11.576   2.444  1.00  0.00    -0.224 NA
HETATM   12  C   UNL     1      38.442 -11.148   1.252  1.00  0.00     0.102 A 
HETATM   13  N   UNL     1      39.228 -10.767   0.235  1.00  0.00    -0.348 N 
HETATM   14  C   UNL     1      36.961 -11.151   1.051  1.00  0.00     0.091 C 
HETATM   15  C   UNL     1      40.563 -10.787   0.374  1.00  0.00     0.009 A 
HETATM   16  H   UNL     1      38.803 -10.475  -0.643  1.00  0.00     0.167 HD
HETATM   17  C   UNL     1      41.421 -10.374  -0.779  1.00  0.00     0.068 C 
HETATM   18  C   UNL     1      41.108 -11.220   1.584  1.00  0.00     0.069 A 
ENDBRANCH   7  10
ENDBRANCH   1   4
BRANCH   1  19
HETATM   19  C   UNL     1      43.469 -15.542   5.460  1.00  0.00     0.277 C 
BRANCH  19  20
HETATM   20  C   UNL     1      43.627 -16.787   4.666  1.00  0.00     0.016 A 
HETATM   21  C   UNL     1      43.024 -17.129   3.416  1.00  0.00     0.096 A 
HETATM   22  N   UNL     1      43.330 -18.384   3.070  1.00  0.00    -0.174 NA
HETATM   23  N   UNL     1      44.206 -18.800   3.991  1.00  0.00    -0.288 N 
HETATM   24  H   UNL     1      44.621 -19.724   3.883  1.00  0.00     0.188 HD
HETATM   25  C   UNL     1      44.393 -17.892   4.990  1.00  0.00     0.120 A 
BRANCH  21  26
HETATM   26  C   UNL     1      42.129 -16.335   2.582  1.00  0.00    -0.005 A 
HETATM   27  C   UNL     1      42.621 -15.600   1.494  1.00  0.00     0.017 A 
HETATM   28  C   UNL     1      41.750 -14.844   0.706  1.00  0.00     0.043 A 
HETATM   29  C   UNL     1      40.390 -14.834   0.998  1.00  0.00     0.116 A 
HETATM   30  F   UNL     1      39.560 -14.099   0.248  1.00  0.00    -0.206 F 
HETATM   31  C   UNL     1      39.881 -15.578   2.055  1.00  0.00     0.043 A 
HETATM   32  C   UNL     1      40.750 -16.331   2.847  1.00  0.00     0.017 A 
ENDBRANCH  21  26
ENDBRANCH  19  20
ENDBRANCH   1  19
TORSDOF 5
ENDMDL
MODEL 5
REMARK VINA RESULT:      -8.8      4.096      7.670
REMARK  5 active torsions:
REMARK  status: ('A' for Active; 'I' for Inactive)
REMARK    1  A    between atoms: C_8  and  N_9 
REMARK    2  A    between atoms: C_12  and  N_13 
REMARK    3  A    between atoms: N_13  and  C_15 
REMARK    4  A    between atoms: C_15  and  C_16 
REMARK    5  A    between atoms: C_17  and  C_18 
ROOT
HETATM    1  N   UNL     1      42.870 -12.544   3.253  1.00  0.00    -0.067 N 
HETATM    2  H   UNL     1      43.882 -12.470   3.415  1.00  0.00     0.280 HD
HETATM    3  C   UNL     1      42.439 -11.223   2.648  1.00  0.00     0.270 C 
ENDROOT
BRANCH   1   4
HETATM    4  C   UNL     1      42.166 -12.913   4.574  1.00  0.00     0.190 C 
HETATM    5  C   UNL     1      43.191 -13.223   5.677  1.00  0.00     0.048 C 
HETATM    6  C   UNL     1      43.823 -11.971   6.285  1.00  0.00     0.099 C 
HETATM    7  N   UNL     1      42.759 -11.066   6.739  1.00  0.00    -0.268 NA
HETATM    8  C   UNL     1      41.843 -10.626   5.682  1.00  0.00     0.099 C 
HETATM    9  C   UNL     1      41.169 -11.854   5.075  1.00  0.00     0.048 C 
BRANCH   7  10
HETATM   10  C   UNL     1      43.191 -10.057   7.613  1.00  0.00     0.109 A 
HETATM   11  N   UNL     1      44.100 -10.346   8.562  1.00  0.00    -0.224 NA
HETATM   12  C   UNL     1      44.444  -9.373   9.442  1.00  0.00     0.102 A 
HETATM   13  N   UNL     1      43.916  -8.141   9.415  1.00  0.00    -0.348 N 
HETATM   14  C   UNL     1      45.422  -9.711  10.521  1.00  0.00     0.091 C 
HETATM   15  C   UNL     1      43.010  -7.818   8.479  1.00  0.00     0.009 A 
HETATM   16  H   UNL     1      44.201  -7.460  10.117  1.00  0.00     0.167 HD
HETATM   17  C   UNL     1      42.422  -6.443   8.478  1.00  0.00     0.068 C 
HETATM   18  C   UNL     1      42.625  -8.788   7.551  1.00  0.00     0.069 A 
ENDBRANCH   7  10
ENDBRANCH   1   4
BRANCH   1  19
HETATM   19  C   UNL     1      42.698 -13.657   2.204  1.00  0.00     0.277 C 
BRANCH  19  20
HETATM   20  C   UNL     1      41.415 -14.398   2.311  1.00  0.00     0.016 A 
HETATM   21  C   UNL     1      41.195 -15.738   2.754  1.00  0.00     0.096 A 
HETATM   22  N   UNL     1      39.911 -16.081   2.608  1.00  0.00    -0.174 NA
HETATM   23  N   UNL     1      39.291 -14.965   2.210  1.00  0.00    -0.288 N 
HETATM   24  H   UNL     1      38.279 -14.986   2.094  1.00  0.00     0.188 HD
HETATM   25  C   UNL     1      40.154 -13.933   1.984  1.00  0.00     0.120 A 
BRANCH  21  26
HETATM   26  C   UNL     1      42.164 -16.712   3.246  1.00  0.00    -0.005 A 
HETATM   27  C   UNL     1      42.562 -16.714   4.592  1.00  0.00     0.017 A 
HETATM   28  C   UNL     1      43.491 -17.653   5.046  1.00  0.00     0.043 A 
HETATM   29  C   UNL     1      44.009 -18.594   4.162  1.00  0.00     0.116 A 
HETATM   30  F   UNL     1      44.908 -19.484   4.599  1.00  0.00    -0.206 F 
HETATM   31  C   UNL     1      43.605 -18.623   2.833  1.00  0.00     0.043 A 
HETATM   32  C   UNL     1      42.679 -17.684   2.375  1.00  0.00     0.017 A 
ENDBRANCH  21  26
ENDBRANCH  19  20
ENDBRANCH   1  19
TORSDOF 5
ENDMDL
MODEL 6
REMARK VINA RESULT:      -8.7      4.747      8.082
REMARK  5 active torsions:
REMARK  status: ('A' for Active; 'I' for Inactive)
REMARK    1  A    between atoms: C_8  and  N_9 
REMARK    2  A    between atoms: C_12  and  N_13 
REMARK    3  A    between atoms: N_13  and  C_15 
REMARK    4  A    between atoms: C_15  and  C_16 
REMARK    5  A    between atoms: C_17  and  C_18 
ROOT
HETATM    1  N   UNL     1      43.141 -12.992   5.553  1.00  0.00    -0.067 N 
HETATM    2  H   UNL     1      42.164 -12.953   5.868  1.00  0.00     0.280 HD
HETATM    3  C   UNL     1      43.843 -13.975   6.467  1.00  0.00     0.270 C 
ENDROOT
BRANCH   1   4
HETATM    4  C   UNL     1      43.737 -11.570   5.550  1.00  0.00     0.190 C 
HETATM    5  C   UNL     1      42.627 -10.509   5.453  1.00  0.00     0.048 C 
HETATM    6  C   UNL     1      41.897 -10.275   6.775  1.00  0.00     0.099 C 
HETATM    7  N   UNL     1      42.881  -9.971   7.822  1.00  0.00    -0.268 NA
HETATM    8  C   UNL     1      43.872 -11.027   8.049  1.00  0.00     0.099 C 
HETATM    9  C   UNL     1      44.643 -11.263   6.753  1.00  0.00     0.048 C 
BRANCH   7  10
HETATM   10  C   UNL     1      42.334  -9.404   8.983  1.00  0.00     0.109 A 
HETATM   11  N   UNL     1      41.049  -9.009   8.986  1.00  0.00    -0.224 NA
HETATM   12  C   UNL     1      40.566  -8.395  10.096  1.00  0.00     0.102 A 
HETATM   13  N   UNL     1      41.311  -8.158  11.184  1.00  0.00    -0.348 N 
HETATM   14  C   UNL     1      39.149  -7.919  10.078  1.00  0.00     0.091 C 
HETATM   15  C   UNL     1      42.597  -8.543  11.216  1.00  0.00     0.009 A 
HETATM   16  H   UNL     1      40.896  -7.674  11.978  1.00  0.00     0.167 HD
HETATM   17  C   UNL     1      43.414  -8.252  12.434  1.00  0.00     0.068 C 
HETATM   18  C   UNL     1      43.138  -9.179  10.096  1.00  0.00     0.069 A 
ENDBRANCH   7  10
ENDBRANCH   1   4
BRANCH   1  19
HETATM   19  C   UNL     1      43.095 -13.576   4.129  1.00  0.00     0.277 C 
BRANCH  19  20
HETATM   20  C   UNL     1      41.816 -14.250   3.791  1.00  0.00     0.016 A 
HETATM   21  C   UNL     1      41.540 -15.649   3.710  1.00  0.00     0.096 A 
HETATM   22  N   UNL     1      40.295 -15.864   3.274  1.00  0.00    -0.174 NA
HETATM   23  N   UNL     1      39.733 -14.652   3.201  1.00  0.00    -0.288 N 
HETATM   24  H   UNL     1      38.750 -14.587   2.943  1.00  0.00     0.188 HD
HETATM   25  C   UNL     1      40.614 -13.645   3.469  1.00  0.00     0.120 A 
BRANCH  21  26
HETATM   26  C   UNL     1      42.431 -16.776   3.969  1.00  0.00    -0.005 A 
HETATM   27  C   UNL     1      43.006 -17.497   2.913  1.00  0.00     0.017 A 
HETATM   28  C   UNL     1      43.856 -18.573   3.179  1.00  0.00     0.043 A 
HETATM   29  C   UNL     1      44.140 -18.917   4.496  1.00  0.00     0.116 A 
HETATM   30  F   UNL     1      44.945 -19.957   4.747  1.00  0.00    -0.206 F 
HETATM   31  C   UNL     1      43.601 -18.197   5.555  1.00  0.00     0.043 A 
HETATM   32  C   UNL     1      42.748 -17.123   5.292  1.00  0.00     0.017 A 
ENDBRANCH  21  26
ENDBRANCH  19  20
ENDBRANCH   1  19
TORSDOF 5
ENDMDL
MODEL 7
REMARK VINA RESULT:      -8.7      2.496      3.686
REMARK  5 active torsions:
REMARK  status: ('A' for Active; 'I' for Inactive)
REMARK    1  A    between atoms: C_8  and  N_9 
REMARK    2  A    between atoms: C_12  and  N_13 
REMARK    3  A    between atoms: N_13  and  C_15 
REMARK    4  A    between atoms: C_15  and  C_16 
REMARK    5  A    between atoms: C_17  and  C_18 
ROOT
HETATM    1  N   UNL     1      42.516 -15.719   2.737  1.00  0.00    -0.067 N 
HETATM    2  H   UNL     1      42.980 -15.878   3.639  1.00  0.00     0.280 HD
HETATM    3  C   UNL     1      43.550 -15.079   1.833  1.00  0.00     0.270 C 
ENDROOT
BRANCH   1   4
HETATM    4  C   UNL     1      41.241 -14.881   2.958  1.00  0.00     0.190 C 
HETATM    5  C   UNL     1      41.449 -13.428   2.498  1.00  0.00     0.048 C 
HETATM    6  C   UNL     1      41.379 -13.259   0.980  1.00  0.00     0.099 C 
HETATM    7  N   UNL     1      40.121 -13.834   0.489  1.00  0.00    -0.268 NA
HETATM    8  C   UNL     1      39.950 -15.260   0.779  1.00  0.00     0.099 C 
HETATM    9  C   UNL     1      39.981 -15.460   2.292  1.00  0.00     0.048 C 
BRANCH   7  10
HETATM   10  C   UNL     1      39.776 -13.444  -0.815  1.00  0.00     0.109 A 
HETATM   11  N   UNL     1      40.013 -12.181  -1.213  1.00  0.00    -0.224 NA
HETATM   12  C   UNL     1      39.602 -11.809  -2.452  1.00  0.00     0.102 A 
HETATM   13  N   UNL     1      38.966 -12.637  -3.292  1.00  0.00    -0.348 N 
HETATM   14  C   UNL     1      39.828 -10.393  -2.874  1.00  0.00     0.091 C 
HETATM   15  C   UNL     1      38.718 -13.905  -2.928  1.00  0.00     0.009 A 
HETATM   16  H   UNL     1      38.664 -12.291  -4.201  1.00  0.00     0.167 HD
HETATM   17  C   UNL     1      37.992 -14.806  -3.874  1.00  0.00     0.068 C 
HETATM   18  C   UNL     1      39.123 -14.333  -1.662  1.00  0.00     0.069 A 
ENDBRANCH   7  10
ENDBRANCH   1   4
BRANCH   1  19
HETATM   19  C   UNL     1      42.172 -17.118   2.195  1.00  0.00     0.277 C 
BRANCH  19  20
HETATM   20  C   UNL     1      42.966 -18.216   2.802  1.00  0.00     0.016 A 
HETATM   21  C   UNL     1      43.510 -18.298   4.121  1.00  0.00     0.096 A 
HETATM   22  N   UNL     1      44.254 -19.399   4.260  1.00  0.00    -0.174 NA
HETATM   23  N   UNL     1      44.095 -20.079   3.118  1.00  0.00    -0.288 N 
HETATM   24  H   UNL     1      44.535 -20.993   3.032  1.00  0.00     0.188 HD
HETATM   25  C   UNL     1      43.358 -19.395   2.196  1.00  0.00     0.120 A 
BRANCH  21  26
HETATM   26  C   UNL     1      43.397 -17.345   5.220  1.00  0.00    -0.005 A 
HETATM   27  C   UNL     1      42.160 -17.097   5.835  1.00  0.00     0.017 A 
HETATM   28  C   UNL     1      42.070 -16.181   6.885  1.00  0.00     0.043 A 
HETATM   29  C   UNL     1      43.214 -15.525   7.327  1.00  0.00     0.116 A 
HETATM   30  F   UNL     1      43.121 -14.639   8.326  1.00  0.00    -0.206 F 
HETATM   31  C   UNL     1      44.451 -15.778   6.748  1.00  0.00     0.043 A 
HETATM   32  C   UNL     1      44.544 -16.690   5.696  1.00  0.00     0.017 A 
ENDBRANCH  21  26
ENDBRANCH  19  20
ENDBRANCH   1  19
TORSDOF 5
ENDMDL
MODEL 8
REMARK VINA RESULT:      -8.6      5.562      8.570
REMARK  5 active torsions:
REMARK  status: ('A' for Active; 'I' for Inactive)
REMARK    1  A    between atoms: C_8  and  N_9 
REMARK    2  A    between atoms: C_12  and  N_13 
REMARK    3  A    between atoms: N_13  and  C_15 
REMARK    4  A    between atoms: C_15  and  C_16 
REMARK    5  A    between atoms: C_17  and  C_18 
ROOT
HETATM    1  N   UNL     1      40.387 -10.392   7.512  1.00  0.00    -0.067 N 
HETATM    2  H   UNL     1      40.851 -11.142   8.038  1.00  0.00     0.280 HD
HETATM    3  C   UNL     1      38.953 -10.839   7.312  1.00  0.00     0.270 C 
ENDROOT
BRANCH   1   4
HETATM    4  C   UNL     1      41.168 -10.117   6.212  1.00  0.00     0.190 C 
HETATM    5  C   UNL     1      42.652 -10.487   6.373  1.00  0.00     0.048 C 
HETATM    6  C   UNL     1      42.912 -11.992   6.291  1.00  0.00     0.099 C 
HETATM    7  N   UNL     1      42.329 -12.515   5.050  1.00  0.00    -0.268 NA
HETATM    8  C   UNL     1      40.883 -12.313   4.925  1.00  0.00     0.099 C 
HETATM    9  C   UNL     1      40.591 -10.815   4.970  1.00  0.00     0.048 C 
BRANCH   7  10
HETATM   10  C   UNL     1      42.788 -13.792   4.688  1.00  0.00     0.109 A 
HETATM   11  N   UNL     1      42.800 -14.149   3.392  1.00  0.00    -0.224 NA
HETATM   12  C   UNL     1      43.177 -15.414   3.076  1.00  0.00     0.102 A 
HETATM   13  N   UNL     1      43.528 -16.324   3.995  1.00  0.00    -0.348 N 
HETATM   14  C   UNL     1      43.147 -15.820   1.638  1.00  0.00     0.091 C 
HETATM   15  C   UNL     1      43.531 -15.999   5.297  1.00  0.00     0.009 A 
HETATM   16  H   UNL     1      43.781 -17.264   3.695  1.00  0.00     0.167 HD
HETATM   17  C   UNL     1      43.910 -17.035   6.305  1.00  0.00     0.068 C 
HETATM   18  C   UNL     1      43.151 -14.708   5.670  1.00  0.00     0.069 A 
ENDBRANCH   7  10
ENDBRANCH   1   4
BRANCH   1  19
HETATM   19  C   UNL     1      40.405  -9.163   8.439  1.00  0.00     0.277 C 
BRANCH  19  20
HETATM   20  C   UNL     1      40.782  -9.469   9.843  1.00  0.00     0.016 A 
HETATM   21  C   UNL     1      42.088  -9.622  10.401  1.00  0.00     0.096 A 
HETATM   22  N   UNL     1      42.015  -9.998  11.682  1.00  0.00    -0.174 NA
HETATM   23  N   UNL     1      40.713  -9.962  11.987  1.00  0.00    -0.288 N 
HETATM   24  H   UNL     1      40.434 -10.158  12.947  1.00  0.00     0.188 HD
HETATM   25  C   UNL     1      39.926  -9.683  10.909  1.00  0.00     0.120 A 
BRANCH  21  26
HETATM   26  C   UNL     1      43.386  -9.486   9.749  1.00  0.00    -0.005 A 
HETATM   27  C   UNL     1      44.227 -10.596   9.581  1.00  0.00     0.017 A 
HETATM   28  C   UNL     1      45.467 -10.447   8.954  1.00  0.00     0.043 A 
HETATM   29  C   UNL     1      45.857  -9.197   8.487  1.00  0.00     0.116 A 
HETATM   30  F   UNL     1      47.051  -9.057   7.898  1.00  0.00    -0.206 F 
HETATM   31  C   UNL     1      45.025  -8.093   8.620  1.00  0.00     0.043 A 
HETATM   32  C   UNL     1      43.787  -8.237   9.249  1.00  0.00     0.017 A 
ENDBRANCH  21  26
ENDBRANCH  19  20
ENDBRANCH   1  19
TORSDOF 5
ENDMDL
MODEL 9
REMARK VINA RESULT:      -8.4      6.450      9.179
REMARK  5 active torsions:
REMARK  status: ('A' for Active; 'I' for Inactive)
REMARK    1  A    between atoms: C_8  and  N_9 
REMARK    2  A    between atoms: C_12  and  N_13 
REMARK    3  A    between atoms: N_13  and  C_15 
REMARK    4  A    between atoms: C_15  and  C_16 
REMARK    5  A    between atoms: C_17  and  C_18 
ROOT
HETATM    1  N   UNL     1      40.978  -9.793   8.182  1.00  0.00    -0.067 N 
HETATM    2  H   UNL     1      41.329 -10.741   8.366  1.00  0.00     0.280 HD
HETATM    3  C   UNL     1      39.834  -9.569   9.150  1.00  0.00     0.270 C 
ENDROOT
BRANCH   1   4
HETATM    4  C   UNL     1      40.603  -9.664   6.693  1.00  0.00     0.190 C 
HETATM    5  C   UNL     1      41.767 -10.110   5.791  1.00  0.00     0.048 C 
HETATM    6  C   UNL     1      41.909 -11.629   5.694  1.00  0.00     0.099 C 
HETATM    7  N   UNL     1      40.623 -12.209   5.287  1.00  0.00    -0.268 NA
HETATM    8  C   UNL     1      39.513 -11.930   6.204  1.00  0.00     0.099 C 
HETATM    9  C   UNL     1      39.323 -10.419   6.297  1.00  0.00     0.048 C 
BRANCH   7  10
HETATM   10  C   UNL     1      40.703 -13.534   4.832  1.00  0.00     0.109 A 
HETATM   11  N   UNL     1      41.285 -14.467   5.607  1.00  0.00    -0.224 NA
HETATM   12  C   UNL     1      41.418 -15.723   5.111  1.00  0.00     0.102 A 
HETATM   13  N   UNL     1      41.005 -16.075   3.886  1.00  0.00    -0.348 N 
HETATM   14  C   UNL     1      42.103 -16.746   5.959  1.00  0.00     0.091 C 
HETATM   15  C   UNL     1      40.417 -15.170   3.089  1.00  0.00     0.009 A 
HETATM   16  H   UNL     1      41.152 -17.030   3.564  1.00  0.00     0.167 HD
HETATM   17  C   UNL     1      39.979 -15.580   1.719  1.00  0.00     0.068 C 
HETATM   18  C   UNL     1      40.258 -13.863   3.556  1.00  0.00     0.069 A 
ENDBRANCH   7  10
ENDBRANCH   1   4
BRANCH   1  19
HETATM   19  C   UNL     1      42.136  -8.846   8.545  1.00  0.00     0.277 C 
BRANCH  19  20
HETATM   20  C   UNL     1      43.363  -9.539   9.014  1.00  0.00     0.016 A 
HETATM   21  C   UNL     1      43.809  -9.751  10.354  1.00  0.00     0.096 A 
HETATM   22  N   UNL     1      45.016 -10.326  10.367  1.00  0.00    -0.174 NA
HETATM   23  N   UNL     1      45.290 -10.600   9.086  1.00  0.00    -0.288 N 
HETATM   24  H   UNL     1      46.150 -11.102   8.870  1.00  0.00     0.188 HD
HETATM   25  C   UNL     1      44.344 -10.118   8.230  1.00  0.00     0.120 A 
BRANCH  21  26
HETATM   26  C   UNL     1      43.163  -9.374  11.607  1.00  0.00    -0.005 A 
HETATM   27  C   UNL     1      42.116 -10.143  12.137  1.00  0.00     0.017 A 
HETATM   28  C   UNL     1      41.507  -9.768  13.337  1.00  0.00     0.043 A 
HETATM   29  C   UNL     1      41.953  -8.635  14.010  1.00  0.00     0.116 A 
HETATM   30  F   UNL     1      41.359  -8.271  15.153  1.00  0.00    -0.206 F 
HETATM   31  C   UNL     1      43.006  -7.877  13.514  1.00  0.00     0.043 A 
HETATM   32  C   UNL     1      43.614  -8.248  12.313  1.00  0.00     0.017 A 
ENDBRANCH  21  26
ENDBRANCH  19  20
ENDBRANCH   1  19
TORSDOF 5
ENDMDL
MODEL 10
REMARK VINA RESULT:      -8.4      3.035      8.591
REMARK  5 active torsions:
REMARK  status: ('A' for Active; 'I' for Inactive)
REMARK    1  A    between atoms: C_8  and  N_9 
REMARK    2  A    between atoms: C_12  and  N_13 
REMARK    3  A    between atoms: N_13  and  C_15 
REMARK    4  A    between atoms: C_15  and  C_16 
REMARK    5  A    between atoms: C_17  and  C_18 
ROOT
HETATM    1  N   UNL     1      40.834 -11.645   2.129  1.00  0.00    -0.067 N 
HETATM    2  H   UNL     1      41.531 -11.843   2.858  1.00  0.00     0.280 HD
HETATM    3  C   UNL     1      39.858 -10.655   2.733  1.00  0.00     0.270 C 
ENDROOT
BRANCH   1   4
HETATM    4  C   UNL     1      40.203 -12.967   1.649  1.00  0.00     0.190 C 
HETATM    5  C   UNL     1      41.198 -13.774   0.797  1.00  0.00     0.048 C 
HETATM    6  C   UNL     1      42.255 -14.501   1.629  1.00  0.00     0.099 C 
HETATM    7  N   UNL     1      41.587 -15.320   2.648  1.00  0.00    -0.268 NA
HETATM    8  C   UNL     1      40.743 -14.565   3.577  1.00  0.00     0.099 C 
HETATM    9  C   UNL     1      39.653 -13.852   2.780  1.00  0.00     0.048 C 
BRANCH   7  10
HETATM   10  C   UNL     1      42.410 -16.290   3.241  1.00  0.00     0.109 A 
HETATM   11  N   UNL     1      43.032 -16.012   4.401  1.00  0.00    -0.224 NA
HETATM   12  C   UNL     1      43.881 -16.937   4.914  1.00  0.00     0.102 A 
HETATM   13  N   UNL     1      44.135 -18.109   4.317  1.00  0.00    -0.348 N 
HETATM   14  C   UNL     1      44.603 -16.606   6.181  1.00  0.00     0.091 C 
HETATM   15  C   UNL     1      43.528 -18.420   3.161  1.00  0.00     0.009 A 
HETATM   16  H   UNL     1      44.799 -18.754   4.743  1.00  0.00     0.167 HD
HETATM   17  C   UNL     1      43.839 -19.727   2.504  1.00  0.00     0.068 C 
HETATM   18  C   UNL     1      42.645 -17.499   2.594  1.00  0.00     0.069 A 
ENDBRANCH   7  10
ENDBRANCH   1   4
BRANCH   1  19
HETATM   19  C   UNL     1      41.608 -10.956   0.991  1.00  0.00     0.277 C 
BRANCH  19  20
HETATM   20  C   UNL     1      40.796  -9.997   0.200  1.00  0.00     0.016 A 
HETATM   21  C   UNL     1      39.961 -10.257  -0.930  1.00  0.00     0.096 A 
HETATM   22  N   UNL     1      39.476  -9.117  -1.434  1.00  0.00    -0.174 NA
HETATM   23  N   UNL     1      39.872  -8.160  -0.587  1.00  0.00    -0.288 N 
HETATM   24  H   UNL     1      39.557  -7.206  -0.752  1.00  0.00     0.188 HD
HETATM   25  C   UNL     1      40.696  -8.631   0.393  1.00  0.00     0.120 A 
BRANCH  21  26
HETATM   26  C   UNL     1      39.661 -11.531  -1.575  1.00  0.00    -0.005 A 
HETATM   27  C   UNL     1      40.622 -12.182  -2.364  1.00  0.00     0.017 A 
HETATM   28  C   UNL     1      40.318 -13.401  -2.974  1.00  0.00     0.043 A 
HETATM   29  C   UNL     1      39.065 -13.972  -2.786  1.00  0.00     0.116 A 
HETATM   30  F   UNL     1      38.774 -15.134  -3.383  1.00  0.00    -0.206 F 
HETATM   31  C   UNL     1      38.111 -13.355  -1.986  1.00  0.00     0.043 A 
HETATM   32  C   UNL     1      38.410 -12.135  -1.377  1.00  0.00     0.017 A 
ENDBRANCH  21  26
ENDBRANCH  19  20
ENDBRANCH   1  19
TORSDOF 5
ENDMDL
