MODEL 1
REMARK VINA RESULT:      -9.3      0.000      0.000
REMARK  6 active torsions:
REMARK  status: ('A' for Active; 'I' for Inactive)
REMARK    1  A    between atoms: O_2  and  C_3 
REMARK    2  A    between atoms: C_6  and  C_7 
REMARK    3  A    between atoms: C_11  and  C_12 
REMARK       I    between atoms: C_12  and  N_13 
REMARK    4  A    between atoms: N_13  and  N_14 
REMARK       I    between atoms: N_14  and  C_15 
REMARK    5  A    between atoms: C_15  and  C_16 
REMARK    6  A    between atoms: C_17  and  C_18 
ROOT
HETATM    1  C   UNL     1      44.420 -11.415   7.643  1.00  0.00     0.288 C 
HETATM    2  N   UNL     1      43.594 -12.516   7.560  1.00  0.00    -0.262 N 
HETATM    3  O   UNL     1      45.171 -11.096   6.722  1.00  0.00    -0.264 OA
HETATM    4  H   UNL     1      42.957 -12.809   8.296  1.00  0.00     0.190 HD
ENDROOT
BRANCH   1   5
HETATM    5  C   UNL     1      44.348 -10.677   8.871  1.00  0.00     0.121 A 
HETATM    6  N   UNL     1      45.434 -10.019   9.377  1.00  0.00    -0.272 N 
HETATM    7  N   UNL     1      45.210  -9.403  10.545  1.00  0.00    -0.174 NA
HETATM    8  H   UNL     1      46.361  -9.969   8.965  1.00  0.00     0.189 HD
HETATM    9  C   UNL     1      43.919  -9.649  10.820  1.00  0.00     0.089 A 
HETATM   10  C   UNL     1      43.341 -10.442   9.787  1.00  0.00     0.071 A 
BRANCH   9  11
HETATM   11  C   UNL     1      43.284  -9.154  12.046  1.00  0.00    -0.005 A 
HETATM   12  C   UNL     1      42.302  -9.899  12.710  1.00  0.00     0.016 A 
HETATM   13  C   UNL     1      41.726  -9.421  13.893  1.00  0.00     0.037 A 
HETATM   14  C   UNL     1      42.120  -8.198  14.436  1.00  0.00     0.068 A 
HETATM   15  C   UNL     1      43.085  -7.441  13.775  1.00  0.00     0.037 A 
HETATM   16  C   UNL     1      43.660  -7.917  12.589  1.00  0.00     0.016 A 
BRANCH  14  17
HETATM   17  O   UNL     1      41.488  -7.857  15.600  1.00  0.00    -0.356 OA
HETATM   18  C   UNL     1      42.081  -6.818  16.369  1.00  0.00     0.210 C 
ENDBRANCH  14  17
ENDBRANCH   9  11
ENDBRANCH   1   5
BRANCH   2  19
HETATM   19  N   UNL     1      43.623 -13.301   6.405  1.00  0.00    -0.267 N 
HETATM   20  C   UNL     1      42.543 -13.258   5.556  1.00  0.00     0.240 C 
HETATM   21  O   UNL     1      41.567 -12.534   5.732  1.00  0.00    -0.271 OA
HETATM   22  H   UNL     1      44.398 -13.953   6.306  1.00  0.00     0.190 HD
BRANCH  20  23
HETATM   23  C   UNL     1      42.635 -14.186   4.398  1.00  0.00     0.089 A 
HETATM   24  C   UNL     1      41.990 -15.560   4.508  1.00  0.00     0.034 A 
HETATM   25  C   UNL     1      41.425 -14.519   3.570  1.00  0.00     0.025 A 
BRANCH  24  26
HETATM   26  C   UNL     1      42.744 -16.770   3.990  1.00  0.00    -0.031 A 
HETATM   27  C   UNL     1      43.749 -17.418   4.740  1.00  0.00     0.040 A 
HETATM   28 CL   UNL     1      44.190 -16.847   6.314  1.00  0.00    -0.084 Cl
HETATM   29  C   UNL     1      44.422 -18.541   4.248  1.00  0.00     0.024 A 
HETATM   30  C   UNL     1      44.103 -19.053   2.992  1.00  0.00     0.002 A 
HETATM   31  C   UNL     1      43.108 -18.445   2.236  1.00  0.00     0.001 A 
HETATM   32  C   UNL     1      42.436 -17.323   2.733  1.00  0.00     0.009 A 
ENDBRANCH  24  26
ENDBRANCH  20  23
ENDBRANCH   2  19
TORSDOF 6
ENDMDL
MODEL 2
REMARK VINA RESULT:      -8.6      1.817      2.461
REMARK  6 active torsions:
REMARK  status: ('A' for Active; 'I' for Inactive)
REMARK    1  A    between atoms: O_2  and  C_3 
REMARK    2  A    between atoms: C_6  and  C_7 
REMARK    3  A    between atoms: C_11  and  C_12 
REMARK       I    between atoms: C_12  and  N_13 
REMARK    4  A    between atoms: N_13  and  N_14 
REMARK       I    between atoms: N_14  and  C_15 
REMARK    5  A    between atoms: C_15  and  C_16 
REMARK    6  A    between atoms: C_17  and  C_18 
ROOT
HETATM    1  C   UNL     1      44.277 -10.829   9.128  1.00  0.00     0.288 C 
HETATM    2  N   UNL     1      43.320 -11.226   8.219  1.00  0.00    -0.262 N 
HETATM    3  O   UNL     1      45.479 -10.976   8.912  1.00  0.00    -0.264 OA
HETATM    4  H   UNL     1      42.319 -11.118   8.359  1.00  0.00     0.190 HD
ENDROOT
BRANCH   1   5
HETATM    5  C   UNL     1      43.777 -10.244  10.340  1.00  0.00     0.121 A 
HETATM    6  N   UNL     1      43.319 -11.013  11.371  1.00  0.00    -0.272 N 
HETATM    7  N   UNL     1      42.858 -10.314  12.418  1.00  0.00    -0.174 NA
HETATM    8  H   UNL     1      43.287 -12.028  11.406  1.00  0.00     0.189 HD
HETATM    9  C   UNL     1      43.032  -9.028  12.073  1.00  0.00     0.089 A 
HETATM   10  C   UNL     1      43.614  -8.943  10.775  1.00  0.00     0.071 A 
BRANCH   9  11
HETATM   11  C   UNL     1      42.627  -7.931  12.959  1.00  0.00    -0.005 A 
HETATM   12  C   UNL     1      42.417  -6.638  12.467  1.00  0.00     0.016 A 
HETATM   13  C   UNL     1      42.006  -5.610  13.324  1.00  0.00     0.037 A 
HETATM   14  C   UNL     1      41.794  -5.852  14.681  1.00  0.00     0.068 A 
HETATM   15  C   UNL     1      42.016  -7.133  15.184  1.00  0.00     0.037 A 
HETATM   16  C   UNL     1      42.430  -8.162  14.328  1.00  0.00     0.016 A 
BRANCH  14  17
HETATM   17  O   UNL     1      41.381  -4.765  15.401  1.00  0.00    -0.356 OA
HETATM   18  C   UNL     1      41.362  -4.905  16.816  1.00  0.00     0.210 C 
ENDBRANCH  14  17
ENDBRANCH   9  11
ENDBRANCH   1   5
BRANCH   2  19
HETATM   19  N   UNL     1      43.726 -11.827   7.026  1.00  0.00    -0.267 N 
HETATM   20  C   UNL     1      43.115 -11.440   5.856  1.00  0.00     0.240 C 
HETATM   21  O   UNL     1      42.259 -10.562   5.793  1.00  0.00    -0.271 OA
HETATM   22  H   UNL     1      44.379 -12.604   7.095  1.00  0.00     0.190 HD
BRANCH  20  23
HETATM   23  C   UNL     1      43.560 -12.192   4.653  1.00  0.00     0.089 A 
HETATM   24  C   UNL     1      42.515 -12.902   3.806  1.00  0.00     0.034 A 
HETATM   25  C   UNL     1      43.250 -11.696   3.268  1.00  0.00     0.025 A 
BRANCH  24  26
HETATM   26  C   UNL     1      42.807 -14.301   3.298  1.00  0.00    -0.031 A 
HETATM   27  C   UNL     1      42.665 -15.448   4.108  1.00  0.00     0.040 A 
HETATM   28 CL   UNL     1      42.152 -15.314   5.756  1.00  0.00    -0.084 Cl
HETATM   29  C   UNL     1      42.925 -16.731   3.615  1.00  0.00     0.024 A 
HETATM   30  C   UNL     1      43.330 -16.903   2.293  1.00  0.00     0.002 A 
HETATM   31  C   UNL     1      43.467 -15.793   1.467  1.00  0.00     0.001 A 
HETATM   32  C   UNL     1      43.202 -14.512   1.964  1.00  0.00     0.009 A 
ENDBRANCH  24  26
ENDBRANCH  20  23
ENDBRANCH   2  19
TORSDOF 6
ENDMDL
MODEL 3
REMARK VINA RESULT:      -8.6      2.716     11.204
REMARK  6 active torsions:
REMARK  status: ('A' for Active; 'I' for Inactive)
REMARK    1  A    between atoms: O_2  and  C_3 
REMARK    2  A    between atoms: C_6  and  C_7 
REMARK    3  A    between atoms: C_11  and  C_12 
REMARK       I    between atoms: C_12  and  N_13 
REMARK    4  A    between atoms: N_13  and  N_14 
REMARK       I    between atoms: N_14  and  C_15 
REMARK    5  A    between atoms: C_15  and  C_16 
REMARK    6  A    between atoms: C_17  and  C_18 
ROOT
HETATM    1  C   UNL     1      42.151 -11.746   6.205  1.00  0.00     0.288 C 
HETATM    2  N   UNL     1      43.055 -11.724   7.246  1.00  0.00    -0.262 N 
HETATM    3  O   UNL     1      41.379 -10.811   5.995  1.00  0.00    -0.264 OA
HETATM    4  H   UNL     1      43.711 -12.472   7.449  1.00  0.00     0.190 HD
ENDROOT
BRANCH   1   5
HETATM    5  C   UNL     1      42.167 -12.930   5.394  1.00  0.00     0.121 A 
HETATM    6  N   UNL     1      41.288 -13.105   4.364  1.00  0.00    -0.272 N 
HETATM    7  N   UNL     1      41.414 -14.276   3.725  1.00  0.00    -0.174 NA
HETATM    8  H   UNL     1      40.568 -12.456   4.061  1.00  0.00     0.189 HD
HETATM    9  C   UNL     1      42.429 -14.898   4.346  1.00  0.00     0.089 A 
HETATM   10  C   UNL     1      42.933 -14.080   5.399  1.00  0.00     0.071 A 
BRANCH   9  11
HETATM   11  C   UNL     1      42.871 -16.238   3.949  1.00  0.00    -0.005 A 
HETATM   12  C   UNL     1      42.432 -16.826   2.756  1.00  0.00     0.016 A 
HETATM   13  C   UNL     1      42.887 -18.096   2.381  1.00  0.00     0.037 A 
HETATM   14  C   UNL     1      43.787 -18.799   3.181  1.00  0.00     0.068 A 
HETATM   15  C   UNL     1      44.219 -18.229   4.378  1.00  0.00     0.037 A 
HETATM   16  C   UNL     1      43.762 -16.960   4.756  1.00  0.00     0.016 A 
BRANCH  14  17
HETATM   17  O   UNL     1      44.160 -20.019   2.691  1.00  0.00    -0.356 OA
HETATM   18  C   UNL     1      43.426 -20.511   1.576  1.00  0.00     0.210 C 
ENDBRANCH  14  17
ENDBRANCH   9  11
ENDBRANCH   1   5
BRANCH   2  19
HETATM   19  N   UNL     1      43.084 -10.616   8.095  1.00  0.00    -0.267 N 
HETATM   20  C   UNL     1      44.176 -10.444   8.913  1.00  0.00     0.240 C 
HETATM   21  O   UNL     1      45.152 -11.189   8.909  1.00  0.00    -0.271 OA
HETATM   22  H   UNL     1      42.242 -10.047   8.147  1.00  0.00     0.190 HD
BRANCH  20  23
HETATM   23  C   UNL     1      44.077  -9.281   9.834  1.00  0.00     0.089 A 
HETATM   24  C   UNL     1      43.878  -9.540  11.320  1.00  0.00     0.034 A 
HETATM   25  C   UNL     1      45.179  -8.965  10.807  1.00  0.00     0.025 A 
BRANCH  24  26
HETATM   26  C   UNL     1      42.882  -8.691  12.087  1.00  0.00    -0.031 A 
HETATM   27  C   UNL     1      41.494  -8.735  11.837  1.00  0.00     0.040 A 
HETATM   28 CL   UNL     1      40.845  -9.770  10.610  1.00  0.00    -0.084 Cl
HETATM   29  C   UNL     1      40.592  -7.953  12.566  1.00  0.00     0.024 A 
HETATM   30  C   UNL     1      41.055  -7.109  13.574  1.00  0.00     0.002 A 
HETATM   31  C   UNL     1      42.415  -7.054  13.853  1.00  0.00     0.001 A 
HETATM   32  C   UNL     1      43.313  -7.840  13.122  1.00  0.00     0.009 A 
ENDBRANCH  24  26
ENDBRANCH  20  23
ENDBRANCH   2  19
TORSDOF 6
ENDMDL
MODEL 4
REMARK VINA RESULT:      -8.6      2.853     11.252
REMARK  6 active torsions:
REMARK  status: ('A' for Active; 'I' for Inactive)
REMARK    1  A    between atoms: O_2  and  C_3 
REMARK    2  A    between atoms: C_6  and  C_7 
REMARK    3  A    between atoms: C_11  and  C_12 
REMARK       I    between atoms: C_12  and  N_13 
REMARK    4  A    between atoms: N_13  and  N_14 
REMARK       I    between atoms: N_14  and  C_15 
REMARK    5  A    between atoms: C_15  and  C_16 
REMARK    6  A    between atoms: C_17  and  C_18 
ROOT
HETATM    1  C   UNL     1      43.600 -11.692   7.393  1.00  0.00     0.288 C 
HETATM    2  N   UNL     1      42.640 -10.744   7.677  1.00  0.00    -0.262 N 
HETATM    3  O   UNL     1      44.626 -11.798   8.062  1.00  0.00    -0.264 OA
HETATM    4  H   UNL     1      41.777 -10.628   7.152  1.00  0.00     0.190 HD
ENDROOT
BRANCH   1   5
HETATM    5  C   UNL     1      43.323 -12.536   6.265  1.00  0.00     0.121 A 
HETATM    6  N   UNL     1      42.724 -12.051   5.137  1.00  0.00    -0.272 N 
HETATM    7  N   UNL     1      42.508 -12.972   4.189  1.00  0.00    -0.174 NA
HETATM    8  H   UNL     1      42.430 -11.093   4.968  1.00  0.00     0.189 HD
HETATM    9  C   UNL     1      42.996 -14.112   4.701  1.00  0.00     0.089 A 
HETATM   10  C   UNL     1      43.523 -13.877   6.004  1.00  0.00     0.071 A 
BRANCH   9  11
HETATM   11  C   UNL     1      42.931 -15.379   3.965  1.00  0.00    -0.005 A 
HETATM   12  C   UNL     1      43.625 -16.513   4.404  1.00  0.00     0.016 A 
HETATM   13  C   UNL     1      43.529 -17.720   3.702  1.00  0.00     0.037 A 
HETATM   14  C   UNL     1      42.740 -17.821   2.556  1.00  0.00     0.068 A 
HETATM   15  C   UNL     1      42.057 -16.694   2.102  1.00  0.00     0.037 A 
HETATM   16  C   UNL     1      42.154 -15.484   2.802  1.00  0.00     0.016 A 
BRANCH  14  17
HETATM   17  O   UNL     1      42.724 -19.059   1.976  1.00  0.00    -0.356 OA
HETATM   18  C   UNL     1      43.666 -20.006   2.466  1.00  0.00     0.210 C 
ENDBRANCH  14  17
ENDBRANCH   9  11
ENDBRANCH   1   5
BRANCH   2  19
HETATM   19  N   UNL     1      42.846  -9.868   8.746  1.00  0.00    -0.267 N 
HETATM   20  C   UNL     1      41.749  -9.328   9.373  1.00  0.00     0.240 C 
HETATM   21  O   UNL     1      40.591  -9.604   9.075  1.00  0.00    -0.271 OA
HETATM   22  H   UNL     1      43.805  -9.587   8.936  1.00  0.00     0.190 HD
BRANCH  20  23
HETATM   23  C   UNL     1      42.074  -8.349  10.444  1.00  0.00     0.089 A 
HETATM   24  C   UNL     1      42.886  -8.819  11.642  1.00  0.00     0.034 A 
HETATM   25  C   UNL     1      43.479  -7.852  10.643  1.00  0.00     0.025 A 
BRANCH  24  26
HETATM   26  C   UNL     1      42.473  -8.371  13.031  1.00  0.00    -0.031 A 
HETATM   27  C   UNL     1      41.421  -8.982  13.746  1.00  0.00     0.040 A 
HETATM   28 CL   UNL     1      40.522 -10.291  13.056  1.00  0.00    -0.084 Cl
HETATM   29  C   UNL     1      41.067  -8.562  15.032  1.00  0.00     0.024 A 
HETATM   30  C   UNL     1      41.762  -7.520  15.643  1.00  0.00     0.002 A 
HETATM   31  C   UNL     1      42.811  -6.907  14.970  1.00  0.00     0.001 A 
HETATM   32  C   UNL     1      43.164  -7.333  13.685  1.00  0.00     0.009 A 
ENDBRANCH  24  26
ENDBRANCH  20  23
ENDBRANCH   2  19
TORSDOF 6
ENDMDL
MODEL 5
REMARK VINA RESULT:      -8.3      8.130     11.565
REMARK  6 active torsions:
REMARK  status: ('A' for Active; 'I' for Inactive)
REMARK    1  A    between atoms: O_2  and  C_3 
REMARK    2  A    between atoms: C_6  and  C_7 
REMARK    3  A    between atoms: C_11  and  C_12 
REMARK       I    between atoms: C_12  and  N_13 
REMARK    4  A    between atoms: N_13  and  N_14 
REMARK       I    between atoms: N_14  and  C_15 
REMARK    5  A    between atoms: C_15  and  C_16 
REMARK    6  A    between atoms: C_17  and  C_18 
ROOT
HETATM    1  C   UNL     1      40.293 -13.806  -0.764  1.00  0.00     0.288 C 
HETATM    2  N   UNL     1      41.344 -13.919   0.121  1.00  0.00    -0.262 N 
HETATM    3  O   UNL     1      39.425 -14.674  -0.856  1.00  0.00    -0.264 OA
HETATM    4  H   UNL     1      42.077 -13.223   0.231  1.00  0.00     0.190 HD
ENDROOT
BRANCH   1   5
HETATM    5  C   UNL     1      40.285 -12.618  -1.569  1.00  0.00     0.121 A 
HETATM    6  N   UNL     1      39.332 -12.407  -2.525  1.00  0.00    -0.272 N 
HETATM    7  N   UNL     1      39.482 -11.265  -3.210  1.00  0.00    -0.174 NA
HETATM    8  H   UNL     1      38.560 -13.022  -2.761  1.00  0.00     0.189 HD
HETATM    9  C   UNL     1      40.570 -10.686  -2.676  1.00  0.00     0.089 A 
HETATM   10  C   UNL     1      41.099 -11.504  -1.636  1.00  0.00     0.071 A 
BRANCH   9  11
HETATM   11  C   UNL     1      41.084  -9.405  -3.172  1.00  0.00    -0.005 A 
HETATM   12  C   UNL     1      40.721  -8.914  -4.432  1.00  0.00     0.016 A 
HETATM   13  C   UNL     1      41.201  -7.677  -4.877  1.00  0.00     0.037 A 
HETATM   14  C   UNL     1      42.045  -6.907  -4.077  1.00  0.00     0.068 A 
HETATM   15  C   UNL     1      42.425  -7.394  -2.828  1.00  0.00     0.037 A 
HETATM   16  C   UNL     1      41.948  -8.634  -2.382  1.00  0.00     0.016 A 
BRANCH  14  17
HETATM   17  O   UNL     1      42.429  -5.715  -4.626  1.00  0.00    -0.356 OA
HETATM   18  C   UNL     1      42.782  -5.731  -6.004  1.00  0.00     0.210 C 
ENDBRANCH  14  17
ENDBRANCH   9  11
ENDBRANCH   1   5
BRANCH   2  19
HETATM   19  N   UNL     1      41.436 -15.058   0.924  1.00  0.00    -0.267 N 
HETATM   20  C   UNL     1      41.079 -14.959   2.248  1.00  0.00     0.240 C 
HETATM   21  O   UNL     1      40.641 -13.932   2.759  1.00  0.00    -0.271 OA
HETATM   22  H   UNL     1      41.870 -15.882   0.513  1.00  0.00     0.190 HD
BRANCH  20  23
HETATM   23  C   UNL     1      41.286 -16.203   3.035  1.00  0.00     0.089 A 
HETATM   24  C   UNL     1      42.696 -16.562   3.479  1.00  0.00     0.034 A 
HETATM   25  C   UNL     1      41.653 -16.149   4.492  1.00  0.00     0.025 A 
BRANCH  24  26
HETATM   26  C   UNL     1      43.161 -18.000   3.359  1.00  0.00    -0.031 A 
HETATM   27  C   UNL     1      43.747 -18.702   4.435  1.00  0.00     0.040 A 
HETATM   28 CL   UNL     1      43.981 -17.938   5.971  1.00  0.00    -0.084 Cl
HETATM   29  C   UNL     1      44.155 -20.034   4.306  1.00  0.00     0.024 A 
HETATM   30  C   UNL     1      43.983 -20.704   3.098  1.00  0.00     0.002 A 
HETATM   31  C   UNL     1      43.396 -20.044   2.024  1.00  0.00     0.001 A 
HETATM   32  C   UNL     1      42.987 -18.713   2.158  1.00  0.00     0.009 A 
ENDBRANCH  24  26
ENDBRANCH  20  23
ENDBRANCH   2  19
TORSDOF 6
ENDMDL
MODEL 6
REMARK VINA RESULT:      -8.1      7.279     11.581
REMARK  6 active torsions:
REMARK  status: ('A' for Active; 'I' for Inactive)
REMARK    1  A    between atoms: O_2  and  C_3 
REMARK    2  A    between atoms: C_6  and  C_7 
REMARK    3  A    between atoms: C_11  and  C_12 
REMARK       I    between atoms: C_12  and  N_13 
REMARK    4  A    between atoms: N_13  and  N_14 
REMARK       I    between atoms: N_14  and  C_15 
REMARK    5  A    between atoms: C_15  and  C_16 
REMARK    6  A    between atoms: C_17  and  C_18 
ROOT
HETATM    1  C   UNL     1      40.153 -14.202   0.681  1.00  0.00     0.288 C 
HETATM    2  N   UNL     1      39.454 -14.324   1.863  1.00  0.00    -0.262 N 
HETATM    3  O   UNL     1      41.102 -14.936   0.409  1.00  0.00    -0.264 OA
HETATM    4  H   UNL     1      38.663 -13.741   2.123  1.00  0.00     0.190 HD
ENDROOT
BRANCH   1   5
HETATM    5  C   UNL     1      39.704 -13.162  -0.200  1.00  0.00     0.121 A 
HETATM    6  N   UNL     1      38.405 -12.739  -0.206  1.00  0.00    -0.272 N 
HETATM    7  N   UNL     1      38.141 -11.783  -1.108  1.00  0.00    -0.174 NA
HETATM    8  H   UNL     1      37.651 -13.081   0.381  1.00  0.00     0.189 HD
HETATM    9  C   UNL     1      39.316 -11.551  -1.715  1.00  0.00     0.089 A 
HETATM   10  C   UNL     1      40.325 -12.395  -1.167  1.00  0.00     0.071 A 
BRANCH   9  11
HETATM   11  C   UNL     1      39.444 -10.569  -2.796  1.00  0.00    -0.005 A 
HETATM   12  C   UNL     1      40.699 -10.132  -3.238  1.00  0.00     0.016 A 
HETATM   13  C   UNL     1      40.801  -9.213  -4.289  1.00  0.00     0.037 A 
HETATM   14  C   UNL     1      39.659  -8.718  -4.920  1.00  0.00     0.068 A 
HETATM   15  C   UNL     1      38.406  -9.135  -4.478  1.00  0.00     0.037 A 
HETATM   16  C   UNL     1      38.301 -10.052  -3.424  1.00  0.00     0.016 A 
BRANCH  14  17
HETATM   17  O   UNL     1      39.902  -7.840  -5.939  1.00  0.00    -0.356 OA
HETATM   18  C   UNL     1      40.790  -6.764  -5.659  1.00  0.00     0.210 C 
ENDBRANCH  14  17
ENDBRANCH   9  11
ENDBRANCH   1   5
BRANCH   2  19
HETATM   19  N   UNL     1      39.845 -15.297   2.785  1.00  0.00    -0.267 N 
HETATM   20  C   UNL     1      40.579 -14.907   3.880  1.00  0.00     0.240 C 
HETATM   21  O   UNL     1      40.876 -13.740   4.119  1.00  0.00    -0.271 OA
HETATM   22  H   UNL     1      39.661 -16.268   2.542  1.00  0.00     0.190 HD
BRANCH  20  23
HETATM   23  C   UNL     1      41.013 -16.025   4.759  1.00  0.00     0.089 A 
HETATM   24  C   UNL     1      42.500 -16.215   5.021  1.00  0.00     0.034 A 
HETATM   25  C   UNL     1      41.575 -15.764   6.129  1.00  0.00     0.025 A 
BRANCH  24  26
HETATM   26  C   UNL     1      43.079 -17.616   4.992  1.00  0.00    -0.031 A 
HETATM   27  C   UNL     1      43.533 -18.226   3.803  1.00  0.00     0.040 A 
HETATM   28 CL   UNL     1      43.440 -17.395   2.287  1.00  0.00    -0.084 Cl
HETATM   29  C   UNL     1      44.077 -19.515   3.800  1.00  0.00     0.024 A 
HETATM   30  C   UNL     1      44.188 -20.228   4.992  1.00  0.00     0.002 A 
HETATM   31  C   UNL     1      43.762 -19.649   6.181  1.00  0.00     0.001 A 
HETATM   32  C   UNL     1      43.221 -18.359   6.179  1.00  0.00     0.009 A 
ENDBRANCH  24  26
ENDBRANCH  20  23
ENDBRANCH   2  19
TORSDOF 6
ENDMDL
MODEL 7
REMARK VINA RESULT:      -8.0      1.849      2.114
REMARK  6 active torsions:
REMARK  status: ('A' for Active; 'I' for Inactive)
REMARK    1  A    between atoms: O_2  and  C_3 
REMARK    2  A    between atoms: C_6  and  C_7 
REMARK    3  A    between atoms: C_11  and  C_12 
REMARK       I    between atoms: C_12  and  N_13 
REMARK    4  A    between atoms: N_13  and  N_14 
REMARK       I    between atoms: N_14  and  C_15 
REMARK    5  A    between atoms: C_15  and  C_16 
REMARK    6  A    between atoms: C_17  and  C_18 
ROOT
HETATM    1  C   UNL     1      42.286  -9.567   7.371  1.00  0.00     0.288 C 
HETATM    2  N   UNL     1      42.565 -10.907   7.541  1.00  0.00    -0.262 N 
HETATM    3  O   UNL     1      41.874  -9.120   6.302  1.00  0.00    -0.264 OA
HETATM    4  H   UNL     1      42.902 -11.315   8.409  1.00  0.00     0.190 HD
ENDROOT
BRANCH   1   5
HETATM    5  C   UNL     1      42.514  -8.736   8.519  1.00  0.00     0.121 A 
HETATM    6  N   UNL     1      43.459  -7.749   8.513  1.00  0.00    -0.272 N 
HETATM    7  N   UNL     1      43.569  -7.084   9.671  1.00  0.00    -0.174 NA
HETATM    8  H   UNL     1      44.069  -7.496   7.741  1.00  0.00     0.189 HD
HETATM    9  C   UNL     1      42.649  -7.642  10.474  1.00  0.00     0.089 A 
HETATM   10  C   UNL     1      41.961  -8.680   9.783  1.00  0.00     0.071 A 
BRANCH   9  11
HETATM   11  C   UNL     1      42.466  -7.198  11.860  1.00  0.00    -0.005 A 
HETATM   12  C   UNL     1      41.557  -6.184  12.186  1.00  0.00     0.016 A 
HETATM   13  C   UNL     1      41.376  -5.792  13.517  1.00  0.00     0.037 A 
HETATM   14  C   UNL     1      42.093  -6.404  14.546  1.00  0.00     0.068 A 
HETATM   15  C   UNL     1      43.011  -7.404  14.231  1.00  0.00     0.037 A 
HETATM   16  C   UNL     1      43.195  -7.795  12.898  1.00  0.00     0.016 A 
BRANCH  14  17
HETATM   17  O   UNL     1      41.810  -5.937  15.799  1.00  0.00    -0.356 OA
HETATM   18  C   UNL     1      40.612  -5.186  15.946  1.00  0.00     0.210 C 
ENDBRANCH  14  17
ENDBRANCH   9  11
ENDBRANCH   1   5
BRANCH   2  19
HETATM   19  N   UNL     1      42.391 -11.777   6.463  1.00  0.00    -0.267 N 
HETATM   20  C   UNL     1      43.275 -12.820   6.312  1.00  0.00     0.240 C 
HETATM   21  O   UNL     1      44.188 -13.056   7.098  1.00  0.00    -0.271 OA
HETATM   22  H   UNL     1      41.682 -11.531   5.777  1.00  0.00     0.190 HD
BRANCH  20  23
HETATM   23  C   UNL     1      43.054 -13.641   5.094  1.00  0.00     0.089 A 
HETATM   24  C   UNL     1      42.324 -14.970   5.229  1.00  0.00     0.034 A 
HETATM   25  C   UNL     1      41.679 -13.809   4.508  1.00  0.00     0.025 A 
BRANCH  24  26
HETATM   26  C   UNL     1      42.849 -16.178   4.478  1.00  0.00    -0.031 A 
HETATM   27  C   UNL     1      43.907 -16.974   4.965  1.00  0.00     0.040 A 
HETATM   28 CL   UNL     1      44.683 -16.600   6.467  1.00  0.00    -0.084 Cl
HETATM   29  C   UNL     1      44.367 -18.093   4.262  1.00  0.00     0.024 A 
HETATM   30  C   UNL     1      43.775 -18.450   3.053  1.00  0.00     0.002 A 
HETATM   31  C   UNL     1      42.721 -17.693   2.554  1.00  0.00     0.001 A 
HETATM   32  C   UNL     1      42.263 -16.577   3.262  1.00  0.00     0.009 A 
ENDBRANCH  24  26
ENDBRANCH  20  23
ENDBRANCH   2  19
TORSDOF 6
ENDMDL
MODEL 8
REMARK VINA RESULT:      -8.0      3.346     11.388
REMARK  6 active torsions:
REMARK  status: ('A' for Active; 'I' for Inactive)
REMARK    1  A    between atoms: O_2  and  C_3 
REMARK    2  A    between atoms: C_6  and  C_7 
REMARK    3  A    between atoms: C_11  and  C_12 
REMARK       I    between atoms: C_12  and  N_13 
REMARK    4  A    between atoms: N_13  and  N_14 
REMARK       I    between atoms: N_14  and  C_15 
REMARK    5  A    between atoms: C_15  and  C_16 
REMARK    6  A    between atoms: C_17  and  C_18 
ROOT
HETATM    1  C   UNL     1      43.855 -11.901   7.481  1.00  0.00     0.288 C 
HETATM    2  N   UNL     1      42.810 -11.000   7.476  1.00  0.00    -0.262 N 
HETATM    3  O   UNL     1      44.964 -11.607   7.925  1.00  0.00    -0.264 OA
HETATM    4  H   UNL     1      41.880 -11.206   7.123  1.00  0.00     0.190 HD
ENDROOT
BRANCH   1   5
HETATM    5  C   UNL     1      43.562 -13.193   6.929  1.00  0.00     0.121 A 
HETATM    6  N   UNL     1      43.021 -14.191   7.689  1.00  0.00    -0.272 N 
HETATM    7  N   UNL     1      42.837 -15.345   7.033  1.00  0.00    -0.174 NA
HETATM    8  H   UNL     1      42.769 -14.139   8.671  1.00  0.00     0.189 HD
HETATM    9  C   UNL     1      43.258 -15.099   5.783  1.00  0.00     0.089 A 
HETATM   10  C   UNL     1      43.716 -13.754   5.676  1.00  0.00     0.071 A 
BRANCH   9  11
HETATM   11  C   UNL     1      43.237 -16.135   4.745  1.00  0.00    -0.005 A 
HETATM   12  C   UNL     1      43.937 -17.337   4.902  1.00  0.00     0.016 A 
HETATM   13  C   UNL     1      43.884 -18.325   3.911  1.00  0.00     0.037 A 
HETATM   14  C   UNL     1      43.132 -18.135   2.751  1.00  0.00     0.068 A 
HETATM   15  C   UNL     1      42.444 -16.935   2.578  1.00  0.00     0.037 A 
HETATM   16  C   UNL     1      42.499 -15.945   3.568  1.00  0.00     0.016 A 
BRANCH  14  17
HETATM   17  O   UNL     1      43.155 -19.183   1.874  1.00  0.00    -0.356 OA
HETATM   18  C   UNL     1      43.748 -20.390   2.336  1.00  0.00     0.210 C 
ENDBRANCH  14  17
ENDBRANCH   9  11
ENDBRANCH   1   5
BRANCH   2  19
HETATM   19  N   UNL     1      43.023  -9.713   7.974  1.00  0.00    -0.267 N 
HETATM   20  C   UNL     1      41.966  -9.052   8.556  1.00  0.00     0.240 C 
HETATM   21  O   UNL     1      40.852  -9.547   8.702  1.00  0.00    -0.271 OA
HETATM   22  H   UNL     1      43.924  -9.283   7.782  1.00  0.00     0.190 HD
BRANCH  20  23
HETATM   23  C   UNL     1      42.272  -7.662   8.983  1.00  0.00     0.089 A 
HETATM   24  C   UNL     1      43.083  -7.448  10.253  1.00  0.00     0.034 A 
HETATM   25  C   UNL     1      43.670  -7.113   8.901  1.00  0.00     0.025 A 
BRANCH  24  26
HETATM   26  C   UNL     1      42.656  -6.364  11.225  1.00  0.00    -0.031 A 
HETATM   27  C   UNL     1      42.462  -6.610  12.600  1.00  0.00     0.040 A 
HETATM   28 CL   UNL     1      42.694  -8.194  13.261  1.00  0.00    -0.084 Cl
HETATM   29  C   UNL     1      42.082  -5.592  13.481  1.00  0.00     0.024 A 
HETATM   30  C   UNL     1      41.892  -4.295  13.010  1.00  0.00     0.002 A 
HETATM   31  C   UNL     1      42.089  -4.019  11.662  1.00  0.00     0.001 A 
HETATM   32  C   UNL     1      42.471  -5.040  10.785  1.00  0.00     0.009 A 
ENDBRANCH  24  26
ENDBRANCH  20  23
ENDBRANCH   2  19
TORSDOF 6
ENDMDL
MODEL 9
REMARK VINA RESULT:      -7.9      7.753     12.833
REMARK  6 active torsions:
REMARK  status: ('A' for Active; 'I' for Inactive)
REMARK    1  A    between atoms: O_2  and  C_3 
REMARK    2  A    between atoms: C_6  and  C_7 
REMARK    3  A    between atoms: C_11  and  C_12 
REMARK       I    between atoms: C_12  and  N_13 
REMARK    4  A    between atoms: N_13  and  N_14 
REMARK       I    between atoms: N_14  and  C_15 
REMARK    5  A    between atoms: C_15  and  C_16 
REMARK    6  A    between atoms: C_17  and  C_18 
ROOT
HETATM    1  C   UNL     1      39.668 -13.054  -0.501  1.00  0.00     0.288 C 
HETATM    2  N   UNL     1      40.137 -14.350  -0.462  1.00  0.00    -0.262 N 
HETATM    3  O   UNL     1      40.185 -12.156   0.163  1.00  0.00    -0.264 OA
HETATM    4  H   UNL     1      39.741 -15.118  -0.998  1.00  0.00     0.190 HD
ENDROOT
BRANCH   1   5
HETATM    5  C   UNL     1      38.538 -12.828  -1.357  1.00  0.00     0.121 A 
HETATM    6  N   UNL     1      37.940 -13.850  -2.038  1.00  0.00    -0.272 N 
HETATM    7  N   UNL     1      36.919 -13.469  -2.817  1.00  0.00    -0.174 NA
HETATM    8  H   UNL     1      38.199 -14.832  -2.014  1.00  0.00     0.189 HD
HETATM    9  C   UNL     1      36.826 -12.142  -2.636  1.00  0.00     0.089 A 
HETATM   10  C   UNL     1      37.824 -11.702  -1.719  1.00  0.00     0.071 A 
BRANCH   9  11
HETATM   11  C   UNL     1      35.825 -11.336  -3.342  1.00  0.00    -0.005 A 
HETATM   12  C   UNL     1      34.738 -11.931  -3.995  1.00  0.00     0.016 A 
HETATM   13  C   UNL     1      33.779 -11.142  -4.640  1.00  0.00     0.037 A 
HETATM   14  C   UNL     1      33.882  -9.751  -4.644  1.00  0.00     0.068 A 
HETATM   15  C   UNL     1      34.967  -9.150  -4.011  1.00  0.00     0.037 A 
HETATM   16  C   UNL     1      35.930  -9.938  -3.367  1.00  0.00     0.016 A 
BRANCH  14  17
HETATM   17  O   UNL     1      32.871  -9.103  -5.298  1.00  0.00    -0.356 OA
HETATM   18  C   UNL     1      32.159  -9.851  -6.276  1.00  0.00     0.210 C 
ENDBRANCH  14  17
ENDBRANCH   9  11
ENDBRANCH   1   5
BRANCH   2  19
HETATM   19  N   UNL     1      41.219 -14.656   0.366  1.00  0.00    -0.267 N 
HETATM   20  C   UNL     1      40.977 -15.332   1.538  1.00  0.00     0.240 C 
HETATM   21  O   UNL     1      39.865 -15.723   1.881  1.00  0.00    -0.271 OA
HETATM   22  H   UNL     1      42.123 -14.263   0.113  1.00  0.00     0.190 HD
BRANCH  20  23
HETATM   23  C   UNL     1      42.180 -15.540   2.386  1.00  0.00     0.089 A 
HETATM   24  C   UNL     1      42.269 -16.800   3.235  1.00  0.00     0.034 A 
HETATM   25  C   UNL     1      43.191 -16.603   2.054  1.00  0.00     0.025 A 
BRANCH  24  26
HETATM   26  C   UNL     1      42.771 -16.692   4.662  1.00  0.00    -0.031 A 
HETATM   27  C   UNL     1      41.905 -16.505   5.760  1.00  0.00     0.040 A 
HETATM   28 CL   UNL     1      40.194 -16.375   5.531  1.00  0.00    -0.084 Cl
HETATM   29  C   UNL     1      42.389 -16.423   7.070  1.00  0.00     0.024 A 
HETATM   30  C   UNL     1      43.755 -16.532   7.318  1.00  0.00     0.002 A 
HETATM   31  C   UNL     1      44.632 -16.730   6.258  1.00  0.00     0.001 A 
HETATM   32  C   UNL     1      44.143 -16.815   4.950  1.00  0.00     0.009 A 
ENDBRANCH  24  26
ENDBRANCH  20  23
ENDBRANCH   2  19
TORSDOF 6
ENDMDL
MODEL 10
REMARK VINA RESULT:      -7.8      3.522     11.343
REMARK  6 active torsions:
REMARK  status: ('A' for Active; 'I' for Inactive)
REMARK    1  A    between atoms: O_2  and  C_3 
REMARK    2  A    between atoms: C_6  and  C_7 
REMARK    3  A    between atoms: C_11  and  C_12 
REMARK       I    between atoms: C_12  and  N_13 
REMARK    4  A    between atoms: N_13  and  N_14 
REMARK       I    between atoms: N_14  and  C_15 
REMARK    5  A    between atoms: C_15  and  C_16 
REMARK    6  A    between atoms: C_17  and  C_18 
ROOT
HETATM    1  C   UNL     1      43.311 -11.871   6.729  1.00  0.00     0.288 C 
HETATM    2  N   UNL     1      42.524 -10.893   7.298  1.00  0.00    -0.262 N 
HETATM    3  O   UNL     1      44.396 -12.193   7.211  1.00  0.00    -0.264 OA
HETATM    4  H   UNL     1      41.621 -10.602   6.934  1.00  0.00     0.190 HD
ENDROOT
BRANCH   1   5
HETATM    5  C   UNL     1      42.784 -12.478   5.540  1.00  0.00     0.121 A 
HETATM    6  N   UNL     1      43.073 -13.772   5.208  1.00  0.00    -0.272 N 
HETATM    7  N   UNL     1      42.528 -14.178   4.053  1.00  0.00    -0.174 NA
HETATM    8  H   UNL     1      43.651 -14.420   5.733  1.00  0.00     0.189 HD
HETATM    9  C   UNL     1      41.838 -13.116   3.607  1.00  0.00     0.089 A 
HETATM   10  C   UNL     1      41.969 -12.029   4.519  1.00  0.00     0.071 A 
BRANCH   9  11
HETATM   11  C   UNL     1      41.102 -13.152   2.339  1.00  0.00    -0.005 A 
HETATM   12  C   UNL     1      41.156 -14.269   1.497  1.00  0.00     0.016 A 
HETATM   13  C   UNL     1      40.426 -14.294   0.303  1.00  0.00     0.037 A 
HETATM   14  C   UNL     1      39.629 -13.213  -0.071  1.00  0.00     0.068 A 
HETATM   15  C   UNL     1      39.581 -12.089   0.752  1.00  0.00     0.037 A 
HETATM   16  C   UNL     1      40.313 -12.061   1.946  1.00  0.00     0.016 A 
BRANCH  14  17
HETATM   17  O   UNL     1      38.959 -13.374  -1.252  1.00  0.00    -0.356 OA
HETATM   18  C   UNL     1      39.091 -14.636  -1.895  1.00  0.00     0.210 C 
ENDBRANCH  14  17
ENDBRANCH   9  11
ENDBRANCH   1   5
BRANCH   2  19
HETATM   19  N   UNL     1      42.978 -10.238   8.445  1.00  0.00    -0.267 N 
HETATM   20  C   UNL     1      42.099  -9.438   9.136  1.00  0.00     0.240 C 
HETATM   21  O   UNL     1      40.919  -9.299   8.826  1.00  0.00    -0.271 OA
HETATM   22  H   UNL     1      43.973 -10.297   8.650  1.00  0.00     0.190 HD
BRANCH  20  23
HETATM   23  C   UNL     1      42.698  -8.724  10.294  1.00  0.00     0.089 A 
HETATM   24  C   UNL     1      42.852  -9.468  11.612  1.00  0.00     0.034 A 
HETATM   25  C   UNL     1      44.068  -9.080  10.802  1.00  0.00     0.025 A 
BRANCH  24  26
HETATM   26  C   UNL     1      42.498  -8.756  12.904  1.00  0.00    -0.031 A 
HETATM   27  C   UNL     1      41.376  -9.109  13.684  1.00  0.00     0.040 A 
HETATM   28 CL   UNL     1      40.319 -10.389  13.191  1.00  0.00    -0.084 Cl
HETATM   29  C   UNL     1      41.077  -8.448  14.880  1.00  0.00     0.024 A 
HETATM   30  C   UNL     1      41.897  -7.417  15.333  1.00  0.00     0.002 A 
HETATM   31  C   UNL     1      43.017  -7.055  14.593  1.00  0.00     0.001 A 
HETATM   32  C   UNL     1      43.314  -7.721  13.399  1.00  0.00     0.009 A 
ENDBRANCH  24  26
ENDBRANCH  20  23
ENDBRANCH   2  19
TORSDOF 6
ENDMDL
