MODEL 1
REMARK VINA RESULT:      -8.1      0.000      0.000
REMARK  7 active torsions:
REMARK  status: ('A' for Active; 'I' for Inactive)
REMARK    1  A    between atoms: O_2  and  C_3 
REMARK    2  A    between atoms: C_3  and  C_4 
REMARK    3  A    between atoms: C_5  and  N_6 
REMARK       I    between atoms: N_6  and  C_7 
REMARK    4  A    between atoms: C_7  and  C_8 
REMARK    5  A    between atoms: C_8  and  N_9 
REMARK    6  A    between atoms: C_11  and  C_12 
REMARK    7  A    between atoms: C_20  and  O_21 
ROOT
HETATM    1  N   UNL     1      39.772 -11.510   2.481  1.00  0.00    -0.054 N 
HETATM    2  H   UNL     1      39.875 -12.054   3.357  1.00  0.00     0.281 HD
HETATM    3  C   UNL     1      40.698 -12.130   1.431  1.00  0.00     0.228 C 
HETATM    4  C   UNL     1      40.308 -11.632   0.008  1.00  0.00     0.055 C 
HETATM    5  C   UNL     1      38.806 -11.746  -0.314  1.00  0.00     0.065 C 
HETATM    6  C   UNL     1      37.992 -11.046   0.778  1.00  0.00     0.066 C 
HETATM    7  C   UNL     1      38.304 -11.612   2.152  1.00  0.00     0.239 C 
HETATM    8  C   UNL     1      41.169 -12.237  -1.116  1.00  0.00     0.010 C 
HETATM    9  C   UNL     1      40.864 -11.568  -2.456  1.00  0.00     0.001 C 
HETATM   10  C   UNL     1      39.384 -11.648  -2.812  1.00  0.00     0.003 C 
HETATM   11  C   UNL     1      38.490 -11.118  -1.687  1.00  0.00     0.038 C 
ENDROOT
BRANCH   1  12
HETATM   12  C   UNL     1      40.275 -10.109   2.908  1.00  0.00     0.338 C 
BRANCH  12  13
HETATM   13  C   UNL     1      40.009  -9.640   4.343  1.00  0.00     0.248 C 
HETATM   14  N   UNL     1      40.582 -10.274   5.402  1.00  0.00    -0.319 N 
HETATM   15  H   UNL     1      40.771  -9.671   6.198  1.00  0.00     0.169 HD
HETATM   16  O   UNL     1      39.432  -8.568   4.548  1.00  0.00    -0.271 OA
BRANCH  14  17
HETATM   17  C   UNL     1      41.048 -11.561   5.497  1.00  0.00     0.094 A 
HETATM   18  C   UNL     1      42.236 -12.194   5.170  1.00  0.00     0.080 A 
HETATM   19  C   UNL     1      42.111 -13.625   5.413  1.00  0.00    -0.026 A 
HETATM   20  C   UNL     1      40.863 -13.956   5.911  1.00  0.00    -0.008 A 
HETATM   21  C   UNL     1      43.160 -14.689   5.196  1.00  0.00     0.041 C 
HETATM   22  S   UNL     1      39.810 -12.631   5.959  1.00  0.00    -0.075 SA
HETATM   23  C   UNL     1      40.402 -15.333   6.287  1.00  0.00     0.047 C 
HETATM   24  C   UNL     1      41.597 -16.286   6.407  1.00  0.00     0.005 C 
HETATM   25  C   UNL     1      42.568 -16.108   5.235  1.00  0.00     0.005 C 
BRANCH  18  26
HETATM   26  C   UNL     1      43.379 -11.522   4.552  1.00  0.00     0.296 C 
HETATM   27  O   UNL     1      43.667 -11.641   3.364  1.00  0.00    -0.259 OA
BRANCH  26  28
HETATM   28  O   UNL     1      44.100 -10.799   5.448  1.00  0.00    -0.322 OA
HETATM   29  C   UNL     1      45.037 -11.543   6.229  1.00  0.00     0.213 C 
ENDBRANCH  26  28
ENDBRANCH  18  26
ENDBRANCH  14  17
ENDBRANCH  12  13
ENDBRANCH   1  12
BRANCH   3  30
HETATM   30  C   UNL     1      41.009 -13.615   1.601  1.00  0.00    -0.027 A 
HETATM   31  C   UNL     1      42.257 -14.197   1.336  1.00  0.00     0.012 A 
HETATM   32  C   UNL     1      42.491 -15.555   1.587  1.00  0.00     0.043 A 
HETATM   33  C   UNL     1      41.480 -16.348   2.107  1.00  0.00     0.116 A 
HETATM   34  F   UNL     1      41.714 -17.640   2.363  1.00  0.00    -0.206 F 
HETATM   35  C   UNL     1      40.232 -15.809   2.378  1.00  0.00     0.043 A 
HETATM   36  C   UNL     1      39.998 -14.455   2.123  1.00  0.00     0.012 A 
ENDBRANCH   3  30
BRANCH   5  37
HETATM   37  O   UNL     1      38.401 -13.112  -0.315  1.00  0.00    -0.389 OA
HETATM   38  H   UNL     1      39.140 -13.682  -0.599  1.00  0.00     0.210 HD
ENDBRANCH   5  37
TORSDOF 7
ENDMDL
MODEL 2
REMARK VINA RESULT:      -7.7      2.623      6.209
REMARK  7 active torsions:
REMARK  status: ('A' for Active; 'I' for Inactive)
REMARK    1  A    between atoms: O_2  and  C_3 
REMARK    2  A    between atoms: C_3  and  C_4 
REMARK    3  A    between atoms: C_5  and  N_6 
REMARK       I    between atoms: N_6  and  C_7 
REMARK    4  A    between atoms: C_7  and  C_8 
REMARK    5  A    between atoms: C_8  and  N_9 
REMARK    6  A    between atoms: C_11  and  C_12 
REMARK    7  A    between atoms: C_20  and  O_21 
ROOT
HETATM    1  N   UNL     1      40.627 -13.183   4.977  1.00  0.00    -0.054 N 
HETATM    2  H   UNL     1      40.645 -12.499   5.756  1.00  0.00     0.281 HD
HETATM    3  C   UNL     1      41.953 -13.067   4.220  1.00  0.00     0.228 C 
HETATM    4  C   UNL     1      42.162 -14.311   3.307  1.00  0.00     0.055 C 
HETATM    5  C   UNL     1      41.943 -15.661   4.016  1.00  0.00     0.065 C 
HETATM    6  C   UNL     1      40.567 -15.672   4.688  1.00  0.00     0.066 C 
HETATM    7  C   UNL     1      40.412 -14.512   5.656  1.00  0.00     0.239 C 
HETATM    8  C   UNL     1      43.493 -14.294   2.534  1.00  0.00     0.010 C 
HETATM    9  C   UNL     1      43.549 -15.437   1.521  1.00  0.00     0.001 C 
HETATM   10  C   UNL     1      43.328 -16.795   2.178  1.00  0.00     0.003 C 
HETATM   11  C   UNL     1      42.046 -16.830   3.014  1.00  0.00     0.038 C 
ENDROOT
BRANCH   1  12
HETATM   12  C   UNL     1      39.449 -12.664   4.117  1.00  0.00     0.338 C 
BRANCH  12  13
HETATM   13  C   UNL     1      39.315 -11.153   3.890  1.00  0.00     0.248 C 
HETATM   14  N   UNL     1      39.064 -10.653   2.649  1.00  0.00    -0.319 N 
HETATM   15  H   UNL     1      38.526  -9.790   2.647  1.00  0.00     0.169 HD
HETATM   16  O   UNL     1      39.238 -10.386   4.854  1.00  0.00    -0.271 OA
BRANCH  14  17
HETATM   17  C   UNL     1      39.321 -11.206   1.421  1.00  0.00     0.094 A 
HETATM   18  C   UNL     1      40.422 -11.247   0.581  1.00  0.00     0.080 A 
HETATM   19  C   UNL     1      40.063 -11.912  -0.665  1.00  0.00    -0.026 A 
HETATM   20  C   UNL     1      38.743 -12.328  -0.665  1.00  0.00    -0.008 A 
HETATM   21  C   UNL     1      40.953 -12.174  -1.855  1.00  0.00     0.041 C 
HETATM   22  S   UNL     1      37.903 -11.823   0.716  1.00  0.00    -0.075 SA
HETATM   23  C   UNL     1      38.051 -13.058  -1.777  1.00  0.00     0.047 C 
HETATM   24  C   UNL     1      39.075 -13.621  -2.770  1.00  0.00     0.005 C 
HETATM   25  C   UNL     1      40.153 -12.585  -3.103  1.00  0.00     0.005 C 
BRANCH  18  26
HETATM   26  C   UNL     1      41.700 -10.596   0.874  1.00  0.00     0.296 C 
HETATM   27  O   UNL     1      42.344 -10.810   1.897  1.00  0.00    -0.259 OA
BRANCH  26  28
HETATM   28  O   UNL     1      42.058  -9.705  -0.088  1.00  0.00    -0.322 OA
HETATM   29  C   UNL     1      41.345  -8.467  -0.077  1.00  0.00     0.213 C 
ENDBRANCH  26  28
ENDBRANCH  18  26
ENDBRANCH  14  17
ENDBRANCH  12  13
ENDBRANCH   1  12
BRANCH   3  30
HETATM   30  C   UNL     1      43.149 -12.574   5.030  1.00  0.00    -0.027 A 
HETATM   31  C   UNL     1      44.113 -11.675   4.551  1.00  0.00     0.012 A 
HETATM   32  C   UNL     1      45.143 -11.209   5.377  1.00  0.00     0.043 A 
HETATM   33  C   UNL     1      45.222 -11.635   6.694  1.00  0.00     0.116 A 
HETATM   34  F   UNL     1      46.197 -11.171   7.485  1.00  0.00    -0.206 F 
HETATM   35  C   UNL     1      44.291 -12.526   7.202  1.00  0.00     0.043 A 
HETATM   36  C   UNL     1      43.265 -12.995   6.376  1.00  0.00     0.012 A 
ENDBRANCH   3  30
BRANCH   5  37
HETATM   37  O   UNL     1      42.906 -15.840   5.050  1.00  0.00    -0.389 OA
HETATM   38  H   UNL     1      42.485 -16.233   5.838  1.00  0.00     0.210 HD
ENDBRANCH   5  37
TORSDOF 7
ENDMDL
MODEL 3
REMARK VINA RESULT:      -7.5      1.507      2.379
REMARK  7 active torsions:
REMARK  status: ('A' for Active; 'I' for Inactive)
REMARK    1  A    between atoms: O_2  and  C_3 
REMARK    2  A    between atoms: C_3  and  C_4 
REMARK    3  A    between atoms: C_5  and  N_6 
REMARK       I    between atoms: N_6  and  C_7 
REMARK    4  A    between atoms: C_7  and  C_8 
REMARK    5  A    between atoms: C_8  and  N_9 
REMARK    6  A    between atoms: C_11  and  C_12 
REMARK    7  A    between atoms: C_20  and  O_21 
ROOT
HETATM    1  N   UNL     1      40.595 -11.185   2.751  1.00  0.00    -0.054 N 
HETATM    2  H   UNL     1      40.817 -11.675   3.637  1.00  0.00     0.281 HD
HETATM    3  C   UNL     1      41.129 -12.038   1.597  1.00  0.00     0.228 C 
HETATM    4  C   UNL     1      40.493 -11.580   0.251  1.00  0.00     0.055 C 
HETATM    5  C   UNL     1      38.960 -11.440   0.290  1.00  0.00     0.065 C 
HETATM    6  C   UNL     1      38.556 -10.526   1.451  1.00  0.00     0.066 C 
HETATM    7  C   UNL     1      39.095 -11.040   2.775  1.00  0.00     0.239 C 
HETATM    8  C   UNL     1      40.949 -12.411  -0.962  1.00  0.00     0.010 C 
HETATM    9  C   UNL     1      40.442 -11.795  -2.266  1.00  0.00     0.001 C 
HETATM   10  C   UNL     1      38.926 -11.628  -2.268  1.00  0.00     0.003 C 
HETATM   11  C   UNL     1      38.427 -10.864  -1.039  1.00  0.00     0.038 C 
ENDROOT
BRANCH   1  12
HETATM   12  C   UNL     1      41.405  -9.874   2.894  1.00  0.00     0.338 C 
BRANCH  12  13
HETATM   13  C   UNL     1      41.679  -9.330   4.301  1.00  0.00     0.248 C 
HETATM   14  N   UNL     1      42.112 -10.152   5.296  1.00  0.00    -0.319 N 
HETATM   15  H   UNL     1      42.711  -9.699   5.981  1.00  0.00     0.169 HD
HETATM   16  O   UNL     1      41.699  -8.112   4.502  1.00  0.00    -0.271 OA
BRANCH  14  17
HETATM   17  C   UNL     1      41.961 -11.509   5.429  1.00  0.00     0.094 A 
HETATM   18  C   UNL     1      40.944 -12.338   5.871  1.00  0.00     0.080 A 
HETATM   19  C   UNL     1      41.406 -13.720   5.878  1.00  0.00    -0.026 A 
HETATM   20  C   UNL     1      42.712 -13.828   5.433  1.00  0.00    -0.008 A 
HETATM   21  C   UNL     1      40.626 -14.947   6.285  1.00  0.00     0.041 C 
HETATM   22  S   UNL     1      43.428 -12.321   5.148  1.00  0.00    -0.075 SA
HETATM   23  C   UNL     1      43.492 -15.102   5.297  1.00  0.00     0.047 C 
HETATM   24  C   UNL     1      42.555 -16.315   5.354  1.00  0.00     0.005 C 
HETATM   25  C   UNL     1      41.533 -16.173   6.485  1.00  0.00     0.005 C 
BRANCH  18  26
HETATM   26  C   UNL     1      39.655 -11.857   6.374  1.00  0.00     0.296 C 
HETATM   27  O   UNL     1      38.578 -12.330   6.021  1.00  0.00    -0.259 OA
BRANCH  26  28
HETATM   28  O   UNL     1      39.793 -10.810   7.227  1.00  0.00    -0.322 OA
HETATM   29  C   UNL     1      39.064  -9.631   6.880  1.00  0.00     0.213 C 
ENDBRANCH  26  28
ENDBRANCH  18  26
ENDBRANCH  14  17
ENDBRANCH  12  13
ENDBRANCH   1  12
BRANCH   3  30
HETATM   30  C   UNL     1      41.228 -13.539   1.858  1.00  0.00    -0.027 A 
HETATM   31  C   UNL     1      40.166 -14.335   2.310  1.00  0.00     0.012 A 
HETATM   32  C   UNL     1      40.310 -15.720   2.455  1.00  0.00     0.043 A 
HETATM   33  C   UNL     1      41.519 -16.327   2.149  1.00  0.00     0.116 A 
HETATM   34  F   UNL     1      41.645 -17.654   2.271  1.00  0.00    -0.206 F 
HETATM   35  C   UNL     1      42.592 -15.573   1.705  1.00  0.00     0.043 A 
HETATM   36  C   UNL     1      42.449 -14.190   1.564  1.00  0.00     0.012 A 
ENDBRANCH   3  30
BRANCH   5  37
HETATM   37  O   UNL     1      38.352 -12.705   0.533  1.00  0.00    -0.389 OA
HETATM   38  H   UNL     1      38.994 -13.422   0.380  1.00  0.00     0.210 HD
ENDBRANCH   5  37
TORSDOF 7
ENDMDL
MODEL 4
REMARK VINA RESULT:      -7.3     11.198     14.816
REMARK  7 active torsions:
REMARK  status: ('A' for Active; 'I' for Inactive)
REMARK    1  A    between atoms: O_2  and  C_3 
REMARK    2  A    between atoms: C_3  and  C_4 
REMARK    3  A    between atoms: C_5  and  N_6 
REMARK       I    between atoms: N_6  and  C_7 
REMARK    4  A    between atoms: C_7  and  C_8 
REMARK    5  A    between atoms: C_8  and  N_9 
REMARK    6  A    between atoms: C_11  and  C_12 
REMARK    7  A    between atoms: C_20  and  O_21 
ROOT
HETATM    1  N   UNL     1      39.449  -4.958  15.764  1.00  0.00    -0.054 N 
HETATM    2  H   UNL     1      39.658  -4.785  14.763  1.00  0.00     0.281 HD
HETATM    3  C   UNL     1      39.873  -6.392  16.090  1.00  0.00     0.228 C 
HETATM    4  C   UNL     1      39.963  -6.589  17.633  1.00  0.00     0.055 C 
HETATM    5  C   UNL     1      40.768  -5.499  18.364  1.00  0.00     0.065 C 
HETATM    6  C   UNL     1      40.217  -4.118  17.997  1.00  0.00     0.066 C 
HETATM    7  C   UNL     1      40.231  -3.896  16.495  1.00  0.00     0.239 C 
HETATM    8  C   UNL     1      40.419  -7.998  18.051  1.00  0.00     0.010 C 
HETATM    9  C   UNL     1      40.303  -8.182  19.564  1.00  0.00     0.001 C 
HETATM   10  C   UNL     1      41.079  -7.117  20.331  1.00  0.00     0.003 C 
HETATM   11  C   UNL     1      40.701  -5.699  19.893  1.00  0.00     0.038 C 
ENDROOT
BRANCH   1  12
HETATM   12  C   UNL     1      37.908  -4.811  15.803  1.00  0.00     0.338 C 
BRANCH  12  13
HETATM   13  C   UNL     1      37.222  -3.983  14.710  1.00  0.00     0.248 C 
HETATM   14  N   UNL     1      37.277  -4.366  13.405  1.00  0.00    -0.319 N 
HETATM   15  H   UNL     1      36.462  -4.104  12.858  1.00  0.00     0.169 HD
HETATM   16  O   UNL     1      36.449  -3.070  15.017  1.00  0.00    -0.271 OA
BRANCH  14  17
HETATM   17  C   UNL     1      38.204  -5.152  12.769  1.00  0.00     0.094 A 
HETATM   18  C   UNL     1      39.419  -4.918  12.147  1.00  0.00     0.080 A 
HETATM   19  C   UNL     1      39.912  -6.153  11.553  1.00  0.00    -0.026 A 
HETATM   20  C   UNL     1      39.051  -7.213  11.780  1.00  0.00    -0.008 A 
HETATM   21  C   UNL     1      41.194  -6.354  10.782  1.00  0.00     0.041 C 
HETATM   22  S   UNL     1      37.624  -6.736  12.556  1.00  0.00    -0.075 SA
HETATM   23  C   UNL     1      39.258  -8.627  11.326  1.00  0.00     0.047 C 
HETATM   24  C   UNL     1      40.714  -8.848  10.897  1.00  0.00     0.005 C 
HETATM   25  C   UNL     1      41.215  -7.693  10.025  1.00  0.00     0.005 C 
BRANCH  18  26
HETATM   26  C   UNL     1      40.026  -3.593  12.009  1.00  0.00     0.296 C 
HETATM   27  O   UNL     1      40.280  -3.081  10.922  1.00  0.00    -0.259 OA
BRANCH  26  28
HETATM   28  O   UNL     1      40.315  -3.030  13.211  1.00  0.00    -0.322 OA
HETATM   29  C   UNL     1      39.840  -1.695  13.397  1.00  0.00     0.213 C 
ENDBRANCH  26  28
ENDBRANCH  18  26
ENDBRANCH  14  17
ENDBRANCH  12  13
ENDBRANCH   1  12
BRANCH   3  30
HETATM   30  C   UNL     1      40.997  -6.973  15.236  1.00  0.00    -0.027 A 
HETATM   31  C   UNL     1      41.135  -8.335  14.930  1.00  0.00     0.012 A 
HETATM   32  C   UNL     1      42.150  -8.786  14.077  1.00  0.00     0.043 A 
HETATM   33  C   UNL     1      43.039  -7.882  13.519  1.00  0.00     0.116 A 
HETATM   34  F   UNL     1      43.995  -8.316  12.689  1.00  0.00    -0.206 F 
HETATM   35  C   UNL     1      42.938  -6.529  13.802  1.00  0.00     0.043 A 
HETATM   36  C   UNL     1      41.927  -6.079  14.656  1.00  0.00     0.012 A 
ENDBRANCH   3  30
BRANCH   5  37
HETATM   37  O   UNL     1      42.130  -5.522  17.945  1.00  0.00    -0.389 OA
HETATM   38  H   UNL     1      42.410  -6.438  17.761  1.00  0.00     0.210 HD
ENDBRANCH   5  37
TORSDOF 7
ENDMDL
MODEL 5
REMARK VINA RESULT:      -7.3      2.703      3.816
REMARK  7 active torsions:
REMARK  status: ('A' for Active; 'I' for Inactive)
REMARK    1  A    between atoms: O_2  and  C_3 
REMARK    2  A    between atoms: C_3  and  C_4 
REMARK    3  A    between atoms: C_5  and  N_6 
REMARK       I    between atoms: N_6  and  C_7 
REMARK    4  A    between atoms: C_7  and  C_8 
REMARK    5  A    between atoms: C_8  and  N_9 
REMARK    6  A    between atoms: C_11  and  C_12 
REMARK    7  A    between atoms: C_20  and  O_21 
ROOT
HETATM    1  N   UNL     1      38.180 -12.137   1.413  1.00  0.00    -0.054 N 
HETATM    2  H   UNL     1      37.535 -12.944   1.331  1.00  0.00     0.281 HD
HETATM    3  C   UNL     1      39.236 -12.267   0.312  1.00  0.00     0.228 C 
HETATM    4  C   UNL     1      39.982 -10.914   0.120  1.00  0.00     0.055 C 
HETATM    5  C   UNL     1      39.055  -9.693  -0.022  1.00  0.00     0.065 C 
HETATM    6  C   UNL     1      38.083  -9.645   1.160  1.00  0.00     0.066 C 
HETATM    7  C   UNL     1      37.284 -10.931   1.276  1.00  0.00     0.239 C 
HETATM    8  C   UNL     1      41.042 -10.946  -0.996  1.00  0.00     0.010 C 
HETATM    9  C   UNL     1      41.863  -9.656  -1.005  1.00  0.00     0.001 C 
HETATM   10  C   UNL     1      40.983  -8.418  -1.135  1.00  0.00     0.003 C 
HETATM   11  C   UNL     1      39.872  -8.386  -0.082  1.00  0.00     0.038 C 
ENDROOT
BRANCH   1  12
HETATM   12  C   UNL     1      38.804 -12.361   2.812  1.00  0.00     0.338 C 
BRANCH  12  13
HETATM   13  C   UNL     1      40.015 -11.513   3.219  1.00  0.00     0.248 C 
HETATM   14  N   UNL     1      41.270 -12.040   3.214  1.00  0.00    -0.319 N 
HETATM   15  H   UNL     1      42.005 -11.368   3.007  1.00  0.00     0.169 HD
HETATM   16  O   UNL     1      39.897 -10.293   3.369  1.00  0.00    -0.271 OA
BRANCH  14  17
HETATM   17  C   UNL     1      41.663 -13.350   3.318  1.00  0.00     0.094 A 
HETATM   18  C   UNL     1      41.761 -14.258   4.360  1.00  0.00     0.080 A 
HETATM   19  C   UNL     1      42.348 -15.500   3.873  1.00  0.00    -0.026 A 
HETATM   20  C   UNL     1      42.632 -15.440   2.520  1.00  0.00    -0.008 A 
HETATM   21  C   UNL     1      42.635 -16.752   4.666  1.00  0.00     0.041 C 
HETATM   22  S   UNL     1      42.343 -13.906   1.863  1.00  0.00    -0.075 SA
HETATM   23  C   UNL     1      43.224 -16.544   1.695  1.00  0.00     0.047 C 
HETATM   24  C   UNL     1      43.139 -17.880   2.444  1.00  0.00     0.005 C 
HETATM   25  C   UNL     1      43.558 -17.722   3.909  1.00  0.00     0.005 C 
BRANCH  18  26
HETATM   26  C   UNL     1      41.438 -13.945   5.753  1.00  0.00     0.296 C 
HETATM   27  O   UNL     1      40.561 -14.526   6.386  1.00  0.00    -0.259 OA
BRANCH  26  28
HETATM   28  O   UNL     1      42.184 -12.917   6.236  1.00  0.00    -0.322 OA
HETATM   29  C   UNL     1      43.525 -13.246   6.601  1.00  0.00     0.213 C 
ENDBRANCH  26  28
ENDBRANCH  18  26
ENDBRANCH  14  17
ENDBRANCH  12  13
ENDBRANCH   1  12
BRANCH   3  30
HETATM   30  C   UNL     1      38.811 -13.025  -0.942  1.00  0.00    -0.027 A 
HETATM   31  C   UNL     1      37.671 -12.724  -1.701  1.00  0.00     0.012 A 
HETATM   32  C   UNL     1      37.385 -13.415  -2.885  1.00  0.00     0.043 A 
HETATM   33  C   UNL     1      38.236 -14.417  -3.326  1.00  0.00     0.116 A 
HETATM   34  F   UNL     1      37.969 -15.061  -4.467  1.00  0.00    -0.206 F 
HETATM   35  C   UNL     1      39.370 -14.746  -2.600  1.00  0.00     0.043 A 
HETATM   36  C   UNL     1      39.653 -14.059  -1.417  1.00  0.00     0.012 A 
ENDBRANCH   3  30
BRANCH   5  37
HETATM   37  O   UNL     1      38.261  -9.807  -1.200  1.00  0.00    -0.389 OA
HETATM   38  H   UNL     1      38.375 -10.691  -1.598  1.00  0.00     0.210 HD
ENDBRANCH   5  37
TORSDOF 7
ENDMDL
MODEL 6
REMARK VINA RESULT:      -7.3      6.483      9.922
REMARK  7 active torsions:
REMARK  status: ('A' for Active; 'I' for Inactive)
REMARK    1  A    between atoms: O_2  and  C_3 
REMARK    2  A    between atoms: C_3  and  C_4 
REMARK    3  A    between atoms: C_5  and  N_6 
REMARK       I    between atoms: N_6  and  C_7 
REMARK    4  A    between atoms: C_7  and  C_8 
REMARK    5  A    between atoms: C_8  and  N_9 
REMARK    6  A    between atoms: C_11  and  C_12 
REMARK    7  A    between atoms: C_20  and  O_21 
ROOT
HETATM    1  N   UNL     1      41.598  -8.870   7.787  1.00  0.00    -0.054 N 
HETATM    2  H   UNL     1      40.755  -8.723   8.373  1.00  0.00     0.281 HD
HETATM    3  C   UNL     1      42.827  -8.574   8.650  1.00  0.00     0.228 C 
HETATM    4  C   UNL     1      44.108  -9.149   7.977  1.00  0.00     0.055 C 
HETATM    5  C   UNL     1      43.982 -10.615   7.523  1.00  0.00     0.065 C 
HETATM    6  C   UNL     1      42.748 -10.772   6.628  1.00  0.00     0.066 C 
HETATM    7  C   UNL     1      41.488 -10.304   7.334  1.00  0.00     0.239 C 
HETATM    8  C   UNL     1      45.391  -8.926   8.798  1.00  0.00     0.010 C 
HETATM    9  C   UNL     1      46.628  -9.341   8.000  1.00  0.00     0.001 C 
HETATM   10  C   UNL     1      46.541 -10.786   7.521  1.00  0.00     0.003 C 
HETATM   11  C   UNL     1      45.244 -11.065   6.758  1.00  0.00     0.038 C 
ENDROOT
BRANCH   1  12
HETATM   12  C   UNL     1      41.419  -7.797   6.686  1.00  0.00     0.338 C 
BRANCH  12  13
HETATM   13  C   UNL     1      40.071  -7.073   6.579  1.00  0.00     0.248 C 
HETATM   14  N   UNL     1      39.707  -6.135   7.496  1.00  0.00    -0.319 N 
HETATM   15  H   UNL     1      39.112  -5.399   7.127  1.00  0.00     0.169 HD
HETATM   16  O   UNL     1      39.386  -7.187   5.559  1.00  0.00    -0.271 OA
BRANCH  14  17
HETATM   17  C   UNL     1      40.127  -5.978   8.792  1.00  0.00     0.094 A 
HETATM   18  C   UNL     1      39.781  -6.549  10.005  1.00  0.00     0.080 A 
HETATM   19  C   UNL     1      40.517  -5.898  11.081  1.00  0.00    -0.026 A 
HETATM   20  C   UNL     1      41.361  -4.910  10.604  1.00  0.00    -0.008 A 
HETATM   21  C   UNL     1      40.447  -6.204  12.558  1.00  0.00     0.041 C 
HETATM   22  S   UNL     1      41.187  -4.657   8.939  1.00  0.00    -0.075 SA
HETATM   23  C   UNL     1      42.274  -4.057  11.433  1.00  0.00     0.047 C 
HETATM   24  C   UNL     1      42.443  -4.654  12.835  1.00  0.00     0.005 C 
HETATM   25  C   UNL     1      41.096  -5.102  13.412  1.00  0.00     0.005 C 
BRANCH  18  26
HETATM   26  C   UNL     1      38.734  -7.560  10.166  1.00  0.00     0.296 C 
HETATM   27  O   UNL     1      37.909  -7.533  11.076  1.00  0.00    -0.259 OA
BRANCH  26  28
HETATM   28  O   UNL     1      38.816  -8.541   9.230  1.00  0.00    -0.322 OA
HETATM   29  C   UNL     1      38.733  -9.877   9.728  1.00  0.00     0.213 C 
ENDBRANCH  26  28
ENDBRANCH  18  26
ENDBRANCH  14  17
ENDBRANCH  12  13
ENDBRANCH   1  12
BRANCH   3  30
HETATM   30  C   UNL     1      42.662  -8.784  10.153  1.00  0.00    -0.027 A 
HETATM   31  C   UNL     1      41.799  -9.727  10.730  1.00  0.00     0.012 A 
HETATM   32  C   UNL     1      41.756  -9.917  12.116  1.00  0.00     0.043 A 
HETATM   33  C   UNL     1      42.576  -9.166  12.945  1.00  0.00     0.116 A 
HETATM   34  F   UNL     1      42.545  -9.364  14.267  1.00  0.00    -0.206 F 
HETATM   35  C   UNL     1      43.438  -8.222  12.412  1.00  0.00     0.043 A 
HETATM   36  C   UNL     1      43.479  -8.030  11.028  1.00  0.00     0.012 A 
ENDBRANCH   3  30
BRANCH   5  37
HETATM   37  O   UNL     1      43.784 -11.468   8.647  1.00  0.00    -0.389 OA
HETATM   38  H   UNL     1      44.500 -11.341   9.297  1.00  0.00     0.210 HD
ENDBRANCH   5  37
TORSDOF 7
ENDMDL
MODEL 7
REMARK VINA RESULT:      -7.2      3.500      5.151
REMARK  7 active torsions:
REMARK  status: ('A' for Active; 'I' for Inactive)
REMARK    1  A    between atoms: O_2  and  C_3 
REMARK    2  A    between atoms: C_3  and  C_4 
REMARK    3  A    between atoms: C_5  and  N_6 
REMARK       I    between atoms: N_6  and  C_7 
REMARK    4  A    between atoms: C_7  and  C_8 
REMARK    5  A    between atoms: C_8  and  N_9 
REMARK    6  A    between atoms: C_11  and  C_12 
REMARK    7  A    between atoms: C_20  and  O_21 
ROOT
HETATM    1  N   UNL     1      42.232 -12.439   6.026  1.00  0.00    -0.054 N 
HETATM    2  H   UNL     1      42.566 -12.833   6.926  1.00  0.00     0.281 HD
HETATM    3  C   UNL     1      42.634 -13.410   4.912  1.00  0.00     0.228 C 
HETATM    4  C   UNL     1      41.834 -13.097   3.613  1.00  0.00     0.055 C 
HETATM    5  C   UNL     1      40.316 -12.954   3.822  1.00  0.00     0.065 C 
HETATM    6  C   UNL     1      40.043 -11.923   4.921  1.00  0.00     0.066 C 
HETATM    7  C   UNL     1      40.743 -12.293   6.216  1.00  0.00     0.239 C 
HETATM    8  C   UNL     1      42.152 -14.052   2.448  1.00  0.00     0.010 C 
HETATM    9  C   UNL     1      41.483 -13.578   1.157  1.00  0.00     0.001 C 
HETATM   10  C   UNL     1      39.976 -13.412   1.321  1.00  0.00     0.003 C 
HETATM   11  C   UNL     1      39.619 -12.523   2.514  1.00  0.00     0.038 C 
ENDROOT
BRANCH   1  12
HETATM   12  C   UNL     1      43.036 -11.120   5.931  1.00  0.00     0.338 C 
BRANCH  12  13
HETATM   13  C   UNL     1      42.276  -9.816   5.660  1.00  0.00     0.248 C 
HETATM   14  N   UNL     1      42.152  -8.866   6.626  1.00  0.00    -0.319 N 
HETATM   15  H   UNL     1      42.102  -7.914   6.273  1.00  0.00     0.169 HD
HETATM   16  O   UNL     1      41.936  -9.524   4.509  1.00  0.00    -0.271 OA
BRANCH  14  17
HETATM   17  C   UNL     1      42.213  -9.000   7.990  1.00  0.00     0.094 A 
HETATM   18  C   UNL     1      43.239  -9.068   8.918  1.00  0.00     0.080 A 
HETATM   19  C   UNL     1      42.685  -9.317  10.243  1.00  0.00    -0.026 A 
HETATM   20  C   UNL     1      41.304  -9.402  10.216  1.00  0.00    -0.008 A 
HETATM   21  C   UNL     1      43.440  -9.462  11.541  1.00  0.00     0.041 C 
HETATM   22  S   UNL     1      40.679  -9.331   8.644  1.00  0.00    -0.075 SA
HETATM   23  C   UNL     1      40.413  -9.632  11.400  1.00  0.00     0.047 C 
HETATM   24  C   UNL     1      41.182  -9.394  12.706  1.00  0.00     0.005 C 
HETATM   25  C   UNL     1      42.566 -10.049  12.662  1.00  0.00     0.005 C 
BRANCH  18  26
HETATM   26  C   UNL     1      44.660  -9.026   8.572  1.00  0.00     0.296 C 
HETATM   27  O   UNL     1      45.253  -7.988   8.293  1.00  0.00    -0.259 OA
BRANCH  26  28
HETATM   28  O   UNL     1      45.223 -10.263   8.551  1.00  0.00    -0.322 OA
HETATM   29  C   UNL     1      46.276 -10.445   7.604  1.00  0.00     0.213 C 
ENDBRANCH  26  28
ENDBRANCH  18  26
ENDBRANCH  14  17
ENDBRANCH  12  13
ENDBRANCH   1  12
BRANCH   3  30
HETATM   30  C   UNL     1      42.784 -14.874   5.316  1.00  0.00    -0.027 A 
HETATM   31  C   UNL     1      43.435 -15.846   4.542  1.00  0.00     0.012 A 
HETATM   32  C   UNL     1      43.600 -17.154   5.012  1.00  0.00     0.043 A 
HETATM   33  C   UNL     1      43.117 -17.509   6.262  1.00  0.00     0.116 A 
HETATM   34  F   UNL     1      43.294 -18.756   6.714  1.00  0.00    -0.206 F 
HETATM   35  C   UNL     1      42.464 -16.578   7.053  1.00  0.00     0.043 A 
HETATM   36  C   UNL     1      42.296 -15.273   6.583  1.00  0.00     0.012 A 
ENDBRANCH   3  30
BRANCH   5  37
HETATM   37  O   UNL     1      39.758 -14.187   4.269  1.00  0.00    -0.389 OA
HETATM   38  H   UNL     1      39.139 -14.028   5.006  1.00  0.00     0.210 HD
ENDBRANCH   5  37
TORSDOF 7
ENDMDL
MODEL 8
REMARK VINA RESULT:      -7.2      3.288      5.724
REMARK  7 active torsions:
REMARK  status: ('A' for Active; 'I' for Inactive)
REMARK    1  A    between atoms: O_2  and  C_3 
REMARK    2  A    between atoms: C_3  and  C_4 
REMARK    3  A    between atoms: C_5  and  N_6 
REMARK       I    between atoms: N_6  and  C_7 
REMARK    4  A    between atoms: C_7  and  C_8 
REMARK    5  A    between atoms: C_8  and  N_9 
REMARK    6  A    between atoms: C_11  and  C_12 
REMARK    7  A    between atoms: C_20  and  O_21 
ROOT
HETATM    1  N   UNL     1      42.803 -14.092   5.901  1.00  0.00    -0.054 N 
HETATM    2  H   UNL     1      43.244 -14.457   6.766  1.00  0.00     0.281 HD
HETATM    3  C   UNL     1      43.124 -15.066   4.765  1.00  0.00     0.228 C 
HETATM    4  C   UNL     1      42.181 -14.808   3.552  1.00  0.00     0.055 C 
HETATM    5  C   UNL     1      40.688 -14.719   3.918  1.00  0.00     0.065 C 
HETATM    6  C   UNL     1      40.491 -13.680   5.025  1.00  0.00     0.066 C 
HETATM    7  C   UNL     1      41.337 -14.000   6.245  1.00  0.00     0.239 C 
HETATM    8  C   UNL     1      42.413 -15.770   2.373  1.00  0.00     0.010 C 
HETATM    9  C   UNL     1      41.594 -15.345   1.154  1.00  0.00     0.001 C 
HETATM   10  C   UNL     1      40.108 -15.235   1.473  1.00  0.00     0.003 C 
HETATM   11  C   UNL     1      39.842 -14.338   2.685  1.00  0.00     0.038 C 
ENDROOT
BRANCH   1  12
HETATM   12  C   UNL     1      43.539 -12.745   5.704  1.00  0.00     0.338 C 
BRANCH  12  13
HETATM   13  C   UNL     1      42.802 -11.604   4.993  1.00  0.00     0.248 C 
HETATM   14  N   UNL     1      42.620 -10.402   5.605  1.00  0.00    -0.319 N 
HETATM   15  H   UNL     1      42.596  -9.608   4.970  1.00  0.00     0.169 HD
HETATM   16  O   UNL     1      42.537 -11.690   3.790  1.00  0.00    -0.271 OA
BRANCH  14  17
HETATM   17  C   UNL     1      42.594 -10.104   6.944  1.00  0.00     0.094 A 
HETATM   18  C   UNL     1      41.599  -9.772   7.850  1.00  0.00     0.080 A 
HETATM   19  C   UNL     1      42.197  -9.461   9.141  1.00  0.00    -0.026 A 
HETATM   20  C   UNL     1      43.575  -9.594   9.117  1.00  0.00    -0.008 A 
HETATM   21  C   UNL     1      41.485  -9.052  10.408  1.00  0.00     0.041 C 
HETATM   22  S   UNL     1      44.166  -9.940   7.569  1.00  0.00    -0.075 SA
HETATM   23  C   UNL     1      44.501  -9.369  10.275  1.00  0.00     0.047 C 
HETATM   24  C   UNL     1      43.717  -9.334  11.592  1.00  0.00     0.005 C 
HETATM   25  C   UNL     1      42.451  -8.482  11.461  1.00  0.00     0.005 C 
BRANCH  18  26
HETATM   26  C   UNL     1      40.185  -9.634   7.499  1.00  0.00     0.296 C 
HETATM   27  O   UNL     1      39.528  -8.625   7.744  1.00  0.00    -0.259 OA
BRANCH  26  28
HETATM   28  O   UNL     1      39.684 -10.757   6.923  1.00  0.00    -0.322 OA
HETATM   29  C   UNL     1      38.629 -10.550   5.982  1.00  0.00     0.213 C 
ENDBRANCH  26  28
ENDBRANCH  18  26
ENDBRANCH  14  17
ENDBRANCH  12  13
ENDBRANCH   1  12
BRANCH   3  30
HETATM   30  C   UNL     1      43.374 -16.517   5.170  1.00  0.00    -0.027 A 
HETATM   31  C   UNL     1      43.003 -17.068   6.405  1.00  0.00     0.012 A 
HETATM   32  C   UNL     1      43.196 -18.428   6.679  1.00  0.00     0.043 A 
HETATM   33  C   UNL     1      43.762 -19.254   5.720  1.00  0.00     0.116 A 
HETATM   34  F   UNL     1      43.927 -20.556   5.979  1.00  0.00    -0.206 F 
HETATM   35  C   UNL     1      44.145 -18.745   4.490  1.00  0.00     0.043 A 
HETATM   36  C   UNL     1      43.955 -17.387   4.219  1.00  0.00     0.012 A 
ENDBRANCH   3  30
BRANCH   5  37
HETATM   37  O   UNL     1      40.230 -15.964   4.438  1.00  0.00    -0.389 OA
HETATM   38  H   UNL     1      39.620 -15.813   5.185  1.00  0.00     0.210 HD
ENDBRANCH   5  37
TORSDOF 7
ENDMDL
MODEL 9
REMARK VINA RESULT:      -7.2      2.220      3.377
REMARK  7 active torsions:
REMARK  status: ('A' for Active; 'I' for Inactive)
REMARK    1  A    between atoms: O_2  and  C_3 
REMARK    2  A    between atoms: C_3  and  C_4 
REMARK    3  A    between atoms: C_5  and  N_6 
REMARK       I    between atoms: N_6  and  C_7 
REMARK    4  A    between atoms: C_7  and  C_8 
REMARK    5  A    between atoms: C_8  and  N_9 
REMARK    6  A    between atoms: C_11  and  C_12 
REMARK    7  A    between atoms: C_20  and  O_21 
ROOT
HETATM    1  N   UNL     1      40.478 -11.225   3.800  1.00  0.00    -0.054 N 
HETATM    2  H   UNL     1      40.759 -12.129   4.224  1.00  0.00     0.281 HD
HETATM    3  C   UNL     1      40.447 -11.410   2.280  1.00  0.00     0.228 C 
HETATM    4  C   UNL     1      39.661 -10.243   1.613  1.00  0.00     0.055 C 
HETATM    5  C   UNL     1      38.290  -9.955   2.252  1.00  0.00     0.065 C 
HETATM    6  C   UNL     1      38.460  -9.739   3.759  1.00  0.00     0.066 C 
HETATM    7  C   UNL     1      39.135 -10.929   4.418  1.00  0.00     0.239 C 
HETATM    8  C   UNL     1      39.550 -10.368   0.083  1.00  0.00     0.010 C 
HETATM    9  C   UNL     1      38.938  -9.106  -0.525  1.00  0.00     0.001 C 
HETATM   10  C   UNL     1      37.581  -8.776   0.087  1.00  0.00     0.003 C 
HETATM   11  C   UNL     1      37.637  -8.710   1.616  1.00  0.00     0.038 C 
ENDROOT
BRANCH   1  12
HETATM   12  C   UNL     1      41.639 -10.293   4.223  1.00  0.00     0.338 C 
BRANCH  12  13
HETATM   13  C   UNL     1      42.404 -10.612   5.513  1.00  0.00     0.248 C 
HETATM   14  N   UNL     1      43.169 -11.734   5.612  1.00  0.00    -0.319 N 
HETATM   15  H   UNL     1      43.975 -11.637   6.224  1.00  0.00     0.169 HD
HETATM   16  O   UNL     1      42.495  -9.764   6.406  1.00  0.00    -0.271 OA
BRANCH  14  17
HETATM   17  C   UNL     1      43.077 -12.912   4.916  1.00  0.00     0.094 A 
HETATM   18  C   UNL     1      42.728 -14.212   5.241  1.00  0.00     0.080 A 
HETATM   19  C   UNL     1      42.917 -15.075   4.082  1.00  0.00    -0.026 A 
HETATM   20  C   UNL     1      43.373 -14.369   2.983  1.00  0.00    -0.008 A 
HETATM   21  C   UNL     1      42.659 -16.559   3.991  1.00  0.00     0.041 C 
HETATM   22  S   UNL     1      43.707 -12.749   3.345  1.00  0.00    -0.075 SA
HETATM   23  C   UNL     1      43.655 -14.939   1.625  1.00  0.00     0.047 C 
HETATM   24  C   UNL     1      43.028 -16.332   1.486  1.00  0.00     0.005 C 
HETATM   25  C   UNL     1      43.286 -17.183   2.733  1.00  0.00     0.005 C 
BRANCH  18  26
HETATM   26  C   UNL     1      42.358 -14.648   6.589  1.00  0.00     0.296 C 
HETATM   27  O   UNL     1      43.071 -14.469   7.572  1.00  0.00    -0.259 OA
BRANCH  26  28
HETATM   28  O   UNL     1      41.169 -15.306   6.610  1.00  0.00    -0.322 OA
HETATM   29  C   UNL     1      40.015 -14.504   6.355  1.00  0.00     0.213 C 
ENDBRANCH  26  28
ENDBRANCH  18  26
ENDBRANCH  14  17
ENDBRANCH  12  13
ENDBRANCH   1  12
BRANCH   3  30
HETATM   30  C   UNL     1      40.173 -12.826   1.779  1.00  0.00    -0.027 A 
HETATM   31  C   UNL     1      40.326 -13.237   0.447  1.00  0.00     0.012 A 
HETATM   32  C   UNL     1      40.129 -14.572   0.074  1.00  0.00     0.043 A 
HETATM   33  C   UNL     1      39.776 -15.514   1.029  1.00  0.00     0.116 A 
HETATM   34  F   UNL     1      39.608 -16.792   0.670  1.00  0.00    -0.206 F 
HETATM   35  C   UNL     1      39.611 -15.144   2.353  1.00  0.00     0.043 A 
HETATM   36  C   UNL     1      39.804 -13.811   2.725  1.00  0.00     0.012 A 
ENDBRANCH   3  30
BRANCH   5  37
HETATM   37  O   UNL     1      37.423 -11.074   2.094  1.00  0.00    -0.389 OA
HETATM   38  H   UNL     1      37.367 -11.327   1.154  1.00  0.00     0.210 HD
ENDBRANCH   5  37
TORSDOF 7
ENDMDL
MODEL 10
REMARK VINA RESULT:      -7.2     11.799     15.556
REMARK  7 active torsions:
REMARK  status: ('A' for Active; 'I' for Inactive)
REMARK    1  A    between atoms: O_2  and  C_3 
REMARK    2  A    between atoms: C_3  and  C_4 
REMARK    3  A    between atoms: C_5  and  N_6 
REMARK       I    between atoms: N_6  and  C_7 
REMARK    4  A    between atoms: C_7  and  C_8 
REMARK    5  A    between atoms: C_8  and  N_9 
REMARK    6  A    between atoms: C_11  and  C_12 
REMARK    7  A    between atoms: C_20  and  O_21 
ROOT
HETATM    1  N   UNL     1      40.651  -4.605  16.619  1.00  0.00    -0.054 N 
HETATM    2  H   UNL     1      40.983  -4.356  15.668  1.00  0.00     0.281 HD
HETATM    3  C   UNL     1      40.386  -6.113  16.642  1.00  0.00     0.228 C 
HETATM    4  C   UNL     1      40.277  -6.617  18.112  1.00  0.00     0.055 C 
HETATM    5  C   UNL     1      41.424  -6.154  19.028  1.00  0.00     0.065 C 
HETATM    6  C   UNL     1      41.555  -4.629  18.956  1.00  0.00     0.066 C 
HETATM    7  C   UNL     1      41.767  -4.156  17.529  1.00  0.00     0.239 C 
HETATM    8  C   UNL     1      40.045  -8.134  18.229  1.00  0.00     0.010 C 
HETATM    9  C   UNL     1      39.758  -8.532  19.677  1.00  0.00     0.001 C 
HETATM   10  C   UNL     1      40.866  -8.083  20.623  1.00  0.00     0.003 C 
HETATM   11  C   UNL     1      41.173  -6.589  20.486  1.00  0.00     0.038 C 
ENDROOT
BRANCH   1  12
HETATM   12  C   UNL     1      39.330  -3.807  16.722  1.00  0.00     0.338 C 
BRANCH  12  13
HETATM   13  C   UNL     1      39.208  -2.487  15.951  1.00  0.00     0.248 C 
HETATM   14  N   UNL     1      39.140  -2.476  14.591  1.00  0.00    -0.319 N 
HETATM   15  H   UNL     1      38.594  -1.710  14.206  1.00  0.00     0.169 HD
HETATM   16  O   UNL     1      38.973  -1.435  16.554  1.00  0.00    -0.271 OA
BRANCH  14  17
HETATM   17  C   UNL     1      39.588  -3.409  13.691  1.00  0.00     0.094 A 
HETATM   18  C   UNL     1      39.094  -4.605  13.199  1.00  0.00     0.080 A 
HETATM   19  C   UNL     1      40.080  -5.218  12.319  1.00  0.00    -0.026 A 
HETATM   20  C   UNL     1      41.220  -4.442  12.204  1.00  0.00    -0.008 A 
HETATM   21  C   UNL     1      39.958  -6.523  11.570  1.00  0.00     0.041 C 
HETATM   22  S   UNL     1      41.190  -3.089  13.221  1.00  0.00    -0.075 SA
HETATM   23  C   UNL     1      42.423  -4.763  11.367  1.00  0.00     0.047 C 
HETATM   24  C   UNL     1      42.096  -5.872  10.359  1.00  0.00     0.005 C 
HETATM   25  C   UNL     1      41.310  -7.008  11.021  1.00  0.00     0.005 C 
BRANCH  18  26
HETATM   26  C   UNL     1      37.826  -5.203  13.621  1.00  0.00     0.296 C 
HETATM   27  O   UNL     1      37.744  -6.325  14.115  1.00  0.00    -0.259 OA
BRANCH  26  28
HETATM   28  O   UNL     1      36.763  -4.399  13.359  1.00  0.00    -0.322 OA
HETATM   29  C   UNL     1      36.474  -4.190  11.976  1.00  0.00     0.213 C 
ENDBRANCH  26  28
ENDBRANCH  18  26
ENDBRANCH  14  17
ENDBRANCH  12  13
ENDBRANCH   1  12
BRANCH   3  30
HETATM   30  C   UNL     1      41.200  -6.956  15.664  1.00  0.00    -0.027 A 
HETATM   31  C   UNL     1      40.805  -8.212  15.182  1.00  0.00     0.012 A 
HETATM   32  C   UNL     1      41.568  -8.894  14.226  1.00  0.00     0.043 A 
HETATM   33  C   UNL     1      42.736  -8.329  13.740  1.00  0.00     0.116 A 
HETATM   34  F   UNL     1      43.452  -8.976  12.813  1.00  0.00    -0.206 F 
HETATM   35  C   UNL     1      43.162  -7.092  14.196  1.00  0.00     0.043 A 
HETATM   36  C   UNL     1      42.402  -6.412  15.152  1.00  0.00     0.012 A 
ENDBRANCH   3  30
BRANCH   5  37
HETATM   37  O   UNL     1      42.665  -6.693  18.581  1.00  0.00    -0.389 OA
HETATM   38  H   UNL     1      43.399  -6.102  18.833  1.00  0.00     0.210 HD
ENDBRANCH   5  37
TORSDOF 7
ENDMDL
