MODEL 1
REMARK VINA RESULT:      -8.3      0.000      0.000
REMARK  3 active torsions:
REMARK  status: ('A' for Active; 'I' for Inactive)
REMARK    1  A    between atoms: C_3  and  N_4 
REMARK       I    between atoms: N_4  and  C_5 
REMARK    2  A    between atoms: C_5  and  C_6 
REMARK    3  A    between atoms: C_6  and  C_7 
ROOT
HETATM    1  C   UNL     1      41.453 -15.876   5.373  1.00  0.00     0.286 C 
HETATM    2  N   UNL     1      42.294 -14.841   4.631  1.00  0.00    -0.056 N 
HETATM    3  H   UNL     1      42.862 -14.375   5.371  1.00  0.00     0.278 HD
HETATM    4  H   UNL     1      42.965 -15.288   3.997  1.00  0.00     0.278 HD
HETATM    5  C   UNL     1      41.504 -13.771   3.932  1.00  0.00     0.209 C 
HETATM    6  C   UNL     1      40.533 -13.110   4.940  1.00  0.00     0.115 C 
HETATM    7  N   UNL     1      39.755 -14.087   5.703  1.00  0.00    -0.353 N 
HETATM    8  C   UNL     1      40.292 -15.259   6.181  1.00  0.00     0.249 C 
HETATM    9  O   UNL     1      39.782 -15.824   7.142  1.00  0.00    -0.271 OA
HETATM   10  C   UNL     1      40.798 -14.355   2.706  1.00  0.00     0.035 C 
HETATM   11  C   UNL     1      39.919 -13.307   2.030  1.00  0.00     0.002 C 
HETATM   12  C   UNL     1      38.920 -12.701   3.011  1.00  0.00     0.002 C 
HETATM   13  C   UNL     1      39.617 -12.105   4.234  1.00  0.00     0.027 C 
HETATM   14  H   UNL     1      39.022 -13.728   6.313  1.00  0.00     0.163 HD
ENDROOT
BRANCH   1  15
HETATM   15  C   UNL     1      42.337 -16.775   6.252  1.00  0.00     0.146 C 
BRANCH  15  16
HETATM   16  C   UNL     1      43.795 -16.563   5.939  1.00  0.00     0.224 C 
HETATM   17  N   UNL     1      44.504 -17.406   5.150  1.00  0.00    -0.326 N 
HETATM   18  H   UNL     1      45.499 -17.175   5.137  1.00  0.00     0.169 HD
HETATM   19  O   UNL     1      44.348 -15.549   6.388  1.00  0.00    -0.273 OA
BRANCH  17  20
HETATM   20  C   UNL     1      44.183 -18.523   4.342  1.00  0.00     0.056 A 
HETATM   21  C   UNL     1      44.237 -19.854   4.763  1.00  0.00     0.031 A 
HETATM   22  C   UNL     1      43.866 -20.893   3.897  1.00  0.00     0.002 A 
HETATM   23  C   UNL     1      43.432 -20.618   2.603  1.00  0.00     0.002 A 
HETATM   24  C   UNL     1      43.361 -19.300   2.167  1.00  0.00     0.026 A 
HETATM   25  C   UNL     1      43.728 -18.264   3.028  1.00  0.00     0.060 A 
HETATM   26 CL   UNL     1      43.609 -16.640   2.436  1.00  0.00    -0.082 Cl
ENDBRANCH  17  20
ENDBRANCH  15  16
ENDBRANCH   1  15
TORSDOF 3
ENDMDL
MODEL 2
REMARK VINA RESULT:      -8.1      2.062      2.382
REMARK  3 active torsions:
REMARK  status: ('A' for Active; 'I' for Inactive)
REMARK    1  A    between atoms: C_3  and  N_4 
REMARK       I    between atoms: N_4  and  C_5 
REMARK    2  A    between atoms: C_5  and  C_6 
REMARK    3  A    between atoms: C_6  and  C_7 
ROOT
HETATM    1  C   UNL     1      41.945 -15.277   5.678  1.00  0.00     0.286 C 
HETATM    2  N   UNL     1      43.324 -14.626   5.704  1.00  0.00    -0.056 N 
HETATM    3  H   UNL     1      43.630 -14.682   6.700  1.00  0.00     0.278 HD
HETATM    4  H   UNL     1      44.007 -15.172   5.167  1.00  0.00     0.278 HD
HETATM    5  C   UNL     1      43.345 -13.177   5.308  1.00  0.00     0.209 C 
HETATM    6  C   UNL     1      42.323 -12.397   6.169  1.00  0.00     0.115 C 
HETATM    7  N   UNL     1      41.006 -13.033   6.203  1.00  0.00    -0.353 N 
HETATM    8  C   UNL     1      40.838 -14.395   6.292  1.00  0.00     0.249 C 
HETATM    9  O   UNL     1      39.797 -14.859   6.744  1.00  0.00    -0.271 OA
HETATM   10  C   UNL     1      43.100 -13.039   3.803  1.00  0.00     0.035 C 
HETATM   11  C   UNL     1      43.029 -11.571   3.393  1.00  0.00     0.002 C 
HETATM   12  C   UNL     1      41.977 -10.817   4.200  1.00  0.00     0.002 C 
HETATM   13  C   UNL     1      42.220 -10.940   5.704  1.00  0.00     0.027 C 
HETATM   14  H   UNL     1      40.252 -12.526   6.665  1.00  0.00     0.163 HD
ENDROOT
BRANCH   1  15
HETATM   15  C   UNL     1      41.981 -16.670   6.327  1.00  0.00     0.146 C 
BRANCH  15  16
HETATM   16  C   UNL     1      43.401 -17.117   6.556  1.00  0.00     0.224 C 
HETATM   17  N   UNL     1      44.052 -17.949   5.707  1.00  0.00    -0.326 N 
HETATM   18  H   UNL     1      44.961 -18.237   6.073  1.00  0.00     0.169 HD
HETATM   19  O   UNL     1      44.005 -16.664   7.538  1.00  0.00    -0.273 OA
BRANCH  17  20
HETATM   20  C   UNL     1      43.764 -18.504   4.437  1.00  0.00     0.056 A 
HETATM   21  C   UNL     1      43.395 -17.767   3.309  1.00  0.00     0.031 A 
HETATM   22  C   UNL     1      43.163 -18.405   2.082  1.00  0.00     0.002 A 
HETATM   23  C   UNL     1      43.300 -19.786   1.963  1.00  0.00     0.002 A 
HETATM   24  C   UNL     1      43.676 -20.537   3.070  1.00  0.00     0.026 A 
HETATM   25  C   UNL     1      43.910 -19.902   4.292  1.00  0.00     0.060 A 
HETATM   26 CL   UNL     1      44.389 -20.887   5.636  1.00  0.00    -0.082 Cl
ENDBRANCH  17  20
ENDBRANCH  15  16
ENDBRANCH   1  15
TORSDOF 3
ENDMDL
MODEL 3
REMARK VINA RESULT:      -8.0      2.894      3.878
REMARK  3 active torsions:
REMARK  status: ('A' for Active; 'I' for Inactive)
REMARK    1  A    between atoms: C_3  and  N_4 
REMARK       I    between atoms: N_4  and  C_5 
REMARK    2  A    between atoms: C_5  and  C_6 
REMARK    3  A    between atoms: C_6  and  C_7 
ROOT
HETATM    1  C   UNL     1      40.144 -14.807   1.946  1.00  0.00     0.286 C 
HETATM    2  N   UNL     1      41.074 -14.784   0.736  1.00  0.00    -0.056 N 
HETATM    3  H   UNL     1      41.898 -14.223   1.041  1.00  0.00     0.278 HD
HETATM    4  H   UNL     1      41.432 -15.721   0.521  1.00  0.00     0.278 HD
HETATM    5  C   UNL     1      40.505 -14.119  -0.484  1.00  0.00     0.209 C 
HETATM    6  C   UNL     1      40.010 -12.701  -0.110  1.00  0.00     0.115 C 
HETATM    7  N   UNL     1      39.159 -12.691   1.081  1.00  0.00    -0.353 N 
HETATM    8  C   UNL     1      39.416 -13.468   2.186  1.00  0.00     0.249 C 
HETATM    9  O   UNL     1      38.978 -13.141   3.284  1.00  0.00    -0.271 OA
HETATM   10  C   UNL     1      39.414 -14.997  -1.102  1.00  0.00     0.035 C 
HETATM   11  C   UNL     1      38.760 -14.301  -2.293  1.00  0.00     0.002 C 
HETATM   12  C   UNL     1      38.217 -12.928  -1.907  1.00  0.00     0.002 C 
HETATM   13  C   UNL     1      39.302 -12.040  -1.298  1.00  0.00     0.027 C 
HETATM   14  H   UNL     1      38.712 -11.811   1.330  1.00  0.00     0.163 HD
ENDROOT
BRANCH   1  15
HETATM   15  C   UNL     1      40.889 -15.279   3.204  1.00  0.00     0.146 C 
BRANCH  15  16
HETATM   16  C   UNL     1      42.337 -14.871   3.153  1.00  0.00     0.224 C 
HETATM   17  N   UNL     1      43.353 -15.767   3.214  1.00  0.00    -0.326 N 
HETATM   18  H   UNL     1      44.264 -15.312   3.281  1.00  0.00     0.169 HD
HETATM   19  O   UNL     1      42.602 -13.670   3.001  1.00  0.00    -0.273 OA
BRANCH  17  20
HETATM   20  C   UNL     1      43.438 -17.180   3.204  1.00  0.00     0.056 A 
HETATM   21  C   UNL     1      43.058 -17.995   2.134  1.00  0.00     0.031 A 
HETATM   22  C   UNL     1      43.213 -19.387   2.206  1.00  0.00     0.002 A 
HETATM   23  C   UNL     1      43.752 -19.984   3.342  1.00  0.00     0.002 A 
HETATM   24  C   UNL     1      44.146 -19.191   4.414  1.00  0.00     0.026 A 
HETATM   25  C   UNL     1      43.994 -17.804   4.343  1.00  0.00     0.060 A 
HETATM   26 CL   UNL     1      44.513 -16.864   5.704  1.00  0.00    -0.082 Cl
ENDBRANCH  17  20
ENDBRANCH  15  16
ENDBRANCH   1  15
TORSDOF 3
ENDMDL
MODEL 4
REMARK VINA RESULT:      -7.9      2.325      3.062
REMARK  3 active torsions:
REMARK  status: ('A' for Active; 'I' for Inactive)
REMARK    1  A    between atoms: C_3  and  N_4 
REMARK       I    between atoms: N_4  and  C_5 
REMARK    2  A    between atoms: C_5  and  C_6 
REMARK    3  A    between atoms: C_6  and  C_7 
ROOT
HETATM    1  C   UNL     1      41.549 -15.189   3.544  1.00  0.00     0.286 C 
HETATM    2  N   UNL     1      41.853 -15.258   5.038  1.00  0.00    -0.056 N 
HETATM    3  H   UNL     1      41.213 -15.993   5.409  1.00  0.00     0.278 HD
HETATM    4  H   UNL     1      42.806 -15.597   5.211  1.00  0.00     0.278 HD
HETATM    5  C   UNL     1      41.572 -13.993   5.797  1.00  0.00     0.209 C 
HETATM    6  C   UNL     1      40.117 -13.545   5.525  1.00  0.00     0.115 C 
HETATM    7  N   UNL     1      39.785 -13.524   4.100  1.00  0.00    -0.353 N 
HETATM    8  C   UNL     1      40.211 -14.492   3.222  1.00  0.00     0.249 C 
HETATM    9  O   UNL     1      39.594 -14.695   2.182  1.00  0.00    -0.271 OA
HETATM   10  C   UNL     1      42.610 -12.925   5.443  1.00  0.00     0.035 C 
HETATM   11  C   UNL     1      42.294 -11.603   6.136  1.00  0.00     0.002 C 
HETATM   12  C   UNL     1      40.878 -11.131   5.816  1.00  0.00     0.002 C 
HETATM   13  C   UNL     1      39.833 -12.187   6.177  1.00  0.00     0.027 C 
HETATM   14  H   UNL     1      38.879 -13.143   3.835  1.00  0.00     0.163 HD
ENDROOT
BRANCH   1  15
HETATM   15  C   UNL     1      41.630 -16.583   2.901  1.00  0.00     0.146 C 
BRANCH  15  16
HETATM   16  C   UNL     1      42.956 -16.781   2.217  1.00  0.00     0.224 C 
HETATM   17  N   UNL     1      43.868 -17.691   2.637  1.00  0.00    -0.326 N 
HETATM   18  H   UNL     1      44.751 -17.612   2.132  1.00  0.00     0.169 HD
HETATM   19  O   UNL     1      43.196 -16.113   1.201  1.00  0.00    -0.273 OA
BRANCH  17  20
HETATM   20  C   UNL     1      43.875 -18.721   3.609  1.00  0.00     0.056 A 
HETATM   21  C   UNL     1      43.904 -18.514   4.990  1.00  0.00     0.031 A 
HETATM   22  C   UNL     1      43.874 -19.601   5.877  1.00  0.00     0.002 A 
HETATM   23  C   UNL     1      43.810 -20.906   5.397  1.00  0.00     0.002 A 
HETATM   24  C   UNL     1      43.770 -21.134   4.026  1.00  0.00     0.026 A 
HETATM   25  C   UNL     1      43.798 -20.053   3.143  1.00  0.00     0.060 A 
HETATM   26 CL   UNL     1      43.733 -20.395   1.445  1.00  0.00    -0.082 Cl
ENDBRANCH  17  20
ENDBRANCH  15  16
ENDBRANCH   1  15
TORSDOF 3
ENDMDL
MODEL 5
REMARK VINA RESULT:      -7.7      2.315      3.841
REMARK  3 active torsions:
REMARK  status: ('A' for Active; 'I' for Inactive)
REMARK    1  A    between atoms: C_3  and  N_4 
REMARK       I    between atoms: N_4  and  C_5 
REMARK    2  A    between atoms: C_5  and  C_6 
REMARK    3  A    between atoms: C_6  and  C_7 
ROOT
HETATM    1  C   UNL     1      41.659 -13.360   3.106  1.00  0.00     0.286 C 
HETATM    2  N   UNL     1      40.171 -13.695   3.076  1.00  0.00    -0.056 N 
HETATM    3  H   UNL     1      40.114 -14.692   3.376  1.00  0.00     0.278 HD
HETATM    4  H   UNL     1      39.651 -13.157   3.777  1.00  0.00     0.278 HD
HETATM    5  C   UNL     1      39.530 -13.598   1.721  1.00  0.00     0.209 C 
HETATM    6  C   UNL     1      40.334 -14.451   0.711  1.00  0.00     0.115 C 
HETATM    7  N   UNL     1      41.772 -14.186   0.761  1.00  0.00    -0.353 N 
HETATM    8  C   UNL     1      42.453 -13.983   1.938  1.00  0.00     0.249 C 
HETATM    9  O   UNL     1      43.660 -14.194   1.996  1.00  0.00    -0.271 OA
HETATM   10  C   UNL     1      39.402 -12.130   1.304  1.00  0.00     0.035 C 
HETATM   11  C   UNL     1      38.833 -12.010  -0.107  1.00  0.00     0.002 C 
HETATM   12  C   UNL     1      39.664 -12.802  -1.112  1.00  0.00     0.002 C 
HETATM   13  C   UNL     1      39.789 -14.272  -0.710  1.00  0.00     0.027 C 
HETATM   14  H   UNL     1      42.356 -14.634   0.056  1.00  0.00     0.163 HD
ENDROOT
BRANCH   1  15
HETATM   15  C   UNL     1      42.278 -13.722   4.465  1.00  0.00     0.146 C 
BRANCH  15  16
HETATM   16  C   UNL     1      41.388 -14.672   5.222  1.00  0.00     0.224 C 
HETATM   17  N   UNL     1      41.434 -16.015   5.047  1.00  0.00    -0.326 N 
HETATM   18  H   UNL     1      40.688 -16.495   5.552  1.00  0.00     0.169 HD
HETATM   19  O   UNL     1      40.618 -14.201   6.071  1.00  0.00    -0.273 OA
BRANCH  17  20
HETATM   20  C   UNL     1      42.276 -16.899   4.330  1.00  0.00     0.056 A 
HETATM   21  C   UNL     1      42.145 -17.201   2.972  1.00  0.00     0.031 A 
HETATM   22  C   UNL     1      43.052 -18.065   2.341  1.00  0.00     0.002 A 
HETATM   23  C   UNL     1      44.103 -18.636   3.055  1.00  0.00     0.002 A 
HETATM   24  C   UNL     1      44.257 -18.342   4.405  1.00  0.00     0.026 A 
HETATM   25  C   UNL     1      43.356 -17.479   5.034  1.00  0.00     0.060 A 
HETATM   26 CL   UNL     1      43.604 -17.138   6.715  1.00  0.00    -0.082 Cl
ENDBRANCH  17  20
ENDBRANCH  15  16
ENDBRANCH   1  15
TORSDOF 3
ENDMDL
MODEL 6
REMARK VINA RESULT:      -7.5      3.972      4.998
REMARK  3 active torsions:
REMARK  status: ('A' for Active; 'I' for Inactive)
REMARK    1  A    between atoms: C_3  and  N_4 
REMARK       I    between atoms: N_4  and  C_5 
REMARK    2  A    between atoms: C_5  and  C_6 
REMARK    3  A    between atoms: C_6  and  C_7 
ROOT
HETATM    1  C   UNL     1      43.512 -12.231   5.213  1.00  0.00     0.286 C 
HETATM    2  N   UNL     1      43.953 -12.758   6.575  1.00  0.00    -0.056 N 
HETATM    3  H   UNL     1      43.096 -13.187   6.988  1.00  0.00     0.278 HD
HETATM    4  H   UNL     1      44.634 -13.519   6.480  1.00  0.00     0.278 HD
HETATM    5  C   UNL     1      44.433 -11.706   7.533  1.00  0.00     0.209 C 
HETATM    6  C   UNL     1      43.357 -10.601   7.663  1.00  0.00     0.115 C 
HETATM    7  N   UNL     1      42.878 -10.119   6.367  1.00  0.00    -0.353 N 
HETATM    8  C   UNL     1      42.650 -10.954   5.298  1.00  0.00     0.249 C 
HETATM    9  O   UNL     1      41.872 -10.621   4.411  1.00  0.00    -0.271 OA
HETATM   10  C   UNL     1      45.797 -11.171   7.087  1.00  0.00     0.035 C 
HETATM   11  C   UNL     1      46.264 -10.039   7.997  1.00  0.00     0.002 C 
HETATM   12  C   UNL     1      45.228  -8.922   8.074  1.00  0.00     0.002 C 
HETATM   13  C   UNL     1      43.865  -9.444   8.529  1.00  0.00     0.027 C 
HETATM   14  H   UNL     1      42.244  -9.322   6.368  1.00  0.00     0.163 HD
ENDROOT
BRANCH   1  15
HETATM   15  C   UNL     1      42.813 -13.330   4.398  1.00  0.00     0.146 C 
BRANCH  15  16
HETATM   16  C   UNL     1      41.912 -14.157   5.276  1.00  0.00     0.224 C 
HETATM   17  N   UNL     1      41.794 -15.501   5.145  1.00  0.00    -0.326 N 
HETATM   18  H   UNL     1      41.059 -15.883   5.742  1.00  0.00     0.169 HD
HETATM   19  O   UNL     1      41.293 -13.584   6.184  1.00  0.00    -0.273 OA
BRANCH  17  20
HETATM   20  C   UNL     1      42.453 -16.490   4.376  1.00  0.00     0.056 A 
HETATM   21  C   UNL     1      42.091 -16.867   3.080  1.00  0.00     0.031 A 
HETATM   22  C   UNL     1      42.829 -17.835   2.384  1.00  0.00     0.002 A 
HETATM   23  C   UNL     1      43.940 -18.437   2.969  1.00  0.00     0.002 A 
HETATM   24  C   UNL     1      44.324 -18.070   4.254  1.00  0.00     0.026 A 
HETATM   25  C   UNL     1      43.591 -17.104   4.947  1.00  0.00     0.060 A 
HETATM   26 CL   UNL     1      44.123 -16.676   6.540  1.00  0.00    -0.082 Cl
ENDBRANCH  17  20
ENDBRANCH  15  16
ENDBRANCH   1  15
TORSDOF 3
ENDMDL
MODEL 7
REMARK VINA RESULT:      -7.4      2.172      2.973
REMARK  3 active torsions:
REMARK  status: ('A' for Active; 'I' for Inactive)
REMARK    1  A    between atoms: C_3  and  N_4 
REMARK       I    between atoms: N_4  and  C_5 
REMARK    2  A    between atoms: C_5  and  C_6 
REMARK    3  A    between atoms: C_6  and  C_7 
ROOT
HETATM    1  C   UNL     1      41.130 -15.275   3.047  1.00  0.00     0.286 C 
HETATM    2  N   UNL     1      40.846 -14.501   1.763  1.00  0.00    -0.056 N 
HETATM    3  H   UNL     1      41.681 -14.664   1.159  1.00  0.00     0.278 HD
HETATM    4  H   UNL     1      40.047 -14.897   1.255  1.00  0.00     0.278 HD
HETATM    5  C   UNL     1      40.704 -13.016   1.940  1.00  0.00     0.209 C 
HETATM    6  C   UNL     1      41.947 -12.467   2.680  1.00  0.00     0.115 C 
HETATM    7  N   UNL     1      42.272 -13.229   3.887  1.00  0.00    -0.353 N 
HETATM    8  C   UNL     1      42.184 -14.599   3.950  1.00  0.00     0.249 C 
HETATM    9  O   UNL     1      42.846 -15.222   4.773  1.00  0.00    -0.271 OA
HETATM   10  C   UNL     1      39.386 -12.694   2.650  1.00  0.00     0.035 C 
HETATM   11  C   UNL     1      39.261 -11.197   2.919  1.00  0.00     0.002 C 
HETATM   12  C   UNL     1      40.459 -10.670   3.704  1.00  0.00     0.002 C 
HETATM   13  C   UNL     1      41.779 -10.977   2.997  1.00  0.00     0.027 C 
HETATM   14  H   UNL     1      43.015 -12.868   4.483  1.00  0.00     0.163 HD
ENDROOT
BRANCH   1  15
HETATM   15  C   UNL     1      41.502 -16.734   2.739  1.00  0.00     0.146 C 
BRANCH  15  16
HETATM   16  C   UNL     1      42.886 -16.822   2.154  1.00  0.00     0.224 C 
HETATM   17  N   UNL     1      43.838 -17.652   2.646  1.00  0.00    -0.326 N 
HETATM   18  H   UNL     1      44.746 -17.500   2.205  1.00  0.00     0.169 HD
HETATM   19  O   UNL     1      43.143 -16.138   1.153  1.00  0.00    -0.273 OA
BRANCH  17  20
HETATM   20  C   UNL     1      43.860 -18.676   3.623  1.00  0.00     0.056 A 
HETATM   21  C   UNL     1      43.896 -18.461   5.003  1.00  0.00     0.031 A 
HETATM   22  C   UNL     1      43.880 -19.543   5.895  1.00  0.00     0.002 A 
HETATM   23  C   UNL     1      43.824 -20.852   5.424  1.00  0.00     0.002 A 
HETATM   24  C   UNL     1      43.777 -21.088   4.055  1.00  0.00     0.026 A 
HETATM   25  C   UNL     1      43.790 -20.011   3.165  1.00  0.00     0.060 A 
HETATM   26 CL   UNL     1      43.717 -20.364   1.469  1.00  0.00    -0.082 Cl
ENDBRANCH  17  20
ENDBRANCH  15  16
ENDBRANCH   1  15
TORSDOF 3
ENDMDL
MODEL 8
REMARK VINA RESULT:      -7.4      3.458      6.915
REMARK  3 active torsions:
REMARK  status: ('A' for Active; 'I' for Inactive)
REMARK    1  A    between atoms: C_3  and  N_4 
REMARK       I    between atoms: N_4  and  C_5 
REMARK    2  A    between atoms: C_5  and  C_6 
REMARK    3  A    between atoms: C_6  and  C_7 
ROOT
HETATM    1  C   UNL     1      42.299 -14.404   2.220  1.00  0.00     0.286 C 
HETATM    2  N   UNL     1      41.410 -15.645   2.222  1.00  0.00    -0.056 N 
HETATM    3  H   UNL     1      40.530 -15.344   2.693  1.00  0.00     0.278 HD
HETATM    4  H   UNL     1      41.144 -15.917   1.270  1.00  0.00     0.278 HD
HETATM    5  C   UNL     1      41.957 -16.810   2.996  1.00  0.00     0.209 C 
HETATM    6  C   UNL     1      42.312 -16.352   4.431  1.00  0.00     0.115 C 
HETATM    7  N   UNL     1      43.118 -15.131   4.454  1.00  0.00    -0.353 N 
HETATM    8  C   UNL     1      42.896 -14.074   3.604  1.00  0.00     0.249 C 
HETATM    9  O   UNL     1      43.266 -12.947   3.912  1.00  0.00    -0.271 OA
HETATM   10  C   UNL     1      43.142 -17.428   2.248  1.00  0.00     0.035 C 
HETATM   11  C   UNL     1      43.769 -18.560   3.058  1.00  0.00     0.002 C 
HETATM   12  C   UNL     1      44.175 -18.089   4.451  1.00  0.00     0.002 C 
HETATM   13  C   UNL     1      42.996 -17.480   5.210  1.00  0.00     0.027 C 
HETATM   14  H   UNL     1      43.477 -14.824   5.357  1.00  0.00     0.163 HD
ENDROOT
BRANCH   1  15
HETATM   15  C   UNL     1      41.557 -13.198   1.622  1.00  0.00     0.146 C 
BRANCH  15  16
HETATM   16  C   UNL     1      40.086 -13.264   1.936  1.00  0.00     0.224 C 
HETATM   17  N   UNL     1      39.132 -13.274   0.974  1.00  0.00    -0.326 N 
HETATM   18  H   UNL     1      38.191 -13.207   1.364  1.00  0.00     0.169 HD
HETATM   19  O   UNL     1      39.746 -13.360   3.124  1.00  0.00    -0.273 OA
BRANCH  17  20
HETATM   20  C   UNL     1      39.141 -13.359  -0.439  1.00  0.00     0.056 A 
HETATM   21  C   UNL     1      39.443 -14.513  -1.168  1.00  0.00     0.031 A 
HETATM   22  C   UNL     1      39.392 -14.507  -2.569  1.00  0.00     0.002 A 
HETATM   23  C   UNL     1      39.036 -13.353  -3.262  1.00  0.00     0.002 A 
HETATM   24  C   UNL     1      38.723 -12.196  -2.557  1.00  0.00     0.026 A 
HETATM   25  C   UNL     1      38.770 -12.201  -1.161  1.00  0.00     0.060 A 
HETATM   26 CL   UNL     1      38.358 -10.736  -0.333  1.00  0.00    -0.082 Cl
ENDBRANCH  17  20
ENDBRANCH  15  16
ENDBRANCH   1  15
TORSDOF 3
ENDMDL
MODEL 9
REMARK VINA RESULT:      -7.4     13.851     16.554
REMARK  3 active torsions:
REMARK  status: ('A' for Active; 'I' for Inactive)
REMARK    1  A    between atoms: C_3  and  N_4 
REMARK       I    between atoms: N_4  and  C_5 
REMARK    2  A    between atoms: C_5  and  C_6 
REMARK    3  A    between atoms: C_6  and  C_7 
ROOT
HETATM    1  C   UNL     1      48.445 -29.888   1.401  1.00  0.00     0.286 C 
HETATM    2  N   UNL     1      49.962 -29.722   1.388  1.00  0.00    -0.056 N 
HETATM    3  H   UNL     1      50.260 -30.042   0.440  1.00  0.00     0.278 HD
HETATM    4  H   UNL     1      50.232 -28.735   1.451  1.00  0.00     0.278 HD
HETATM    5  C   UNL     1      50.697 -30.560   2.395  1.00  0.00     0.209 C 
HETATM    6  C   UNL     1      50.277 -32.041   2.233  1.00  0.00     0.115 C 
HETATM    7  N   UNL     1      48.825 -32.218   2.188  1.00  0.00    -0.353 N 
HETATM    8  C   UNL     1      47.989 -31.358   1.516  1.00  0.00     0.249 C 
HETATM    9  O   UNL     1      46.889 -31.740   1.133  1.00  0.00    -0.271 OA
HETATM   10  C   UNL     1      50.460 -30.015   3.806  1.00  0.00     0.035 C 
HETATM   11  C   UNL     1      51.125 -30.903   4.854  1.00  0.00     0.002 C 
HETATM   12  C   UNL     1      50.662 -32.351   4.733  1.00  0.00     0.002 C 
HETATM   13  C   UNL     1      50.904 -32.908   3.329  1.00  0.00     0.027 C 
HETATM   14  H   UNL     1      48.469 -33.173   2.186  1.00  0.00     0.163 HD
ENDROOT
BRANCH   1  15
HETATM   15  C   UNL     1      47.805 -29.191   0.190  1.00  0.00     0.146 C 
BRANCH  15  16
HETATM   16  C   UNL     1      46.702 -28.265   0.627  1.00  0.00     0.224 C 
HETATM   17  N   UNL     1      45.668 -27.925  -0.181  1.00  0.00    -0.326 N 
HETATM   18  H   UNL     1      45.077 -27.203   0.233  1.00  0.00     0.169 HD
HETATM   19  O   UNL     1      46.722 -27.838   1.790  1.00  0.00    -0.273 OA
BRANCH  17  20
HETATM   20  C   UNL     1      45.223 -28.340  -1.460  1.00  0.00     0.056 A 
HETATM   21  C   UNL     1      45.642 -27.783  -2.670  1.00  0.00     0.031 A 
HETATM   22  C   UNL     1      45.169 -28.287  -3.891  1.00  0.00     0.002 A 
HETATM   23  C   UNL     1      44.276 -29.355  -3.920  1.00  0.00     0.002 A 
HETATM   24  C   UNL     1      43.854 -29.930  -2.727  1.00  0.00     0.026 A 
HETATM   25  C   UNL     1      44.326 -29.431  -1.511  1.00  0.00     0.060 A 
HETATM   26 CL   UNL     1      43.776 -30.195  -0.056  1.00  0.00    -0.082 Cl
ENDBRANCH  17  20
ENDBRANCH  15  16
ENDBRANCH   1  15
TORSDOF 3
ENDMDL
MODEL 10
REMARK VINA RESULT:      -7.3      3.812      5.235
REMARK  3 active torsions:
REMARK  status: ('A' for Active; 'I' for Inactive)
REMARK    1  A    between atoms: C_3  and  N_4 
REMARK       I    between atoms: N_4  and  C_5 
REMARK    2  A    between atoms: C_5  and  C_6 
REMARK    3  A    between atoms: C_6  and  C_7 
ROOT
HETATM    1  C   UNL     1      42.403 -12.236   6.273  1.00  0.00     0.286 C 
HETATM    2  N   UNL     1      42.538 -10.733   6.043  1.00  0.00    -0.056 N 
HETATM    3  H   UNL     1      42.962 -10.643   5.094  1.00  0.00     0.278 HD
HETATM    4  H   UNL     1      41.620 -10.279   5.988  1.00  0.00     0.278 HD
HETATM    5  C   UNL     1      43.446 -10.027   7.008  1.00  0.00     0.209 C 
HETATM    6  C   UNL     1      44.823 -10.733   7.027  1.00  0.00     0.115 C 
HETATM    7  N   UNL     1      44.716 -12.183   7.191  1.00  0.00    -0.353 N 
HETATM    8  C   UNL     1      43.747 -12.935   6.569  1.00  0.00     0.249 C 
HETATM    9  O   UNL     1      43.928 -14.131   6.370  1.00  0.00    -0.271 OA
HETATM   10  C   UNL     1      42.788  -9.948   8.388  1.00  0.00     0.035 C 
HETATM   11  C   UNL     1      43.729  -9.312   9.407  1.00  0.00     0.002 C 
HETATM   12  C   UNL     1      45.064 -10.048   9.469  1.00  0.00     0.002 C 
HETATM   13  C   UNL     1      45.734 -10.123   8.097  1.00  0.00     0.027 C 
HETATM   14  H   UNL     1      45.581 -12.707   7.316  1.00  0.00     0.163 HD
ENDROOT
BRANCH   1  15
HETATM   15  C   UNL     1      41.663 -12.907   5.105  1.00  0.00     0.146 C 
BRANCH  15  16
HETATM   16  C   UNL     1      40.633 -13.880   5.613  1.00  0.00     0.224 C 
HETATM   17  N   UNL     1      40.594 -15.177   5.221  1.00  0.00    -0.326 N 
HETATM   18  H   UNL     1      39.767 -15.661   5.573  1.00  0.00     0.169 HD
HETATM   19  O   UNL     1      39.820 -13.483   6.460  1.00  0.00    -0.273 OA
BRANCH  17  20
HETATM   20  C   UNL     1      41.434 -16.009   4.442  1.00  0.00     0.056 A 
HETATM   21  C   UNL     1      42.522 -16.733   4.937  1.00  0.00     0.031 A 
HETATM   22  C   UNL     1      43.276 -17.559   4.090  1.00  0.00     0.002 A 
HETATM   23  C   UNL     1      42.953 -17.677   2.741  1.00  0.00     0.002 A 
HETATM   24  C   UNL     1      41.869 -16.973   2.230  1.00  0.00     0.026 A 
HETATM   25  C   UNL     1      41.115 -16.152   3.072  1.00  0.00     0.060 A 
HETATM   26 CL   UNL     1      39.767 -15.308   2.384  1.00  0.00    -0.082 Cl
ENDBRANCH  17  20
ENDBRANCH  15  16
ENDBRANCH   1  15
TORSDOF 3
ENDMDL
