MODEL 1
REMARK VINA RESULT:      -9.8      0.000      0.000
REMARK  5 active torsions:
REMARK  status: ('A' for Active; 'I' for Inactive)
REMARK    1  A    between atoms: C_9  and  C_10 
REMARK    2  A    between atoms: C_10  and  C_11 
REMARK       I    between atoms: C_11  and  N_12 
REMARK    3  A    between atoms: N_12  and  C_13 
REMARK    4  A    between atoms: C_13  and  C_14 
REMARK    5  A    between atoms: N_16  and  C_17 
ROOT
HETATM    1  C   UNL     1      43.235 -16.711   3.202  1.00  0.00     0.084 A 
HETATM    2  N   UNL     1      43.034 -15.666   3.952  1.00  0.00    -0.171 NA
HETATM    3  N   UNL     1      43.037 -15.797   5.318  1.00  0.00    -0.229 N 
HETATM    4  C   UNL     1      43.287 -16.998   5.982  1.00  0.00     0.275 A 
HETATM    5  O   UNL     1      43.332 -17.113   7.204  1.00  0.00    -0.266 OA
HETATM    6  C   UNL     1      43.521 -18.183   5.137  1.00  0.00     0.046 A 
HETATM    7  C   UNL     1      43.518 -18.057   3.752  1.00  0.00     0.008 A 
HETATM    8  C   UNL     1      43.771 -19.425   5.738  1.00  0.00     0.018 A 
HETATM    9  C   UNL     1      44.024 -20.544   4.948  1.00  0.00     0.001 A 
HETATM   10  C   UNL     1      44.035 -20.421   3.561  1.00  0.00     0.001 A 
HETATM   11  C   UNL     1      43.787 -19.182   2.961  1.00  0.00     0.014 A 
ENDROOT
BRANCH   1  12
HETATM   12  C   UNL     1      43.208 -16.496   1.688  1.00  0.00     0.184 C 
BRANCH  12  13
HETATM   13  N   UNL     1      42.862 -15.120   1.397  1.00  0.00    -0.355 N 
HETATM   14  C   UNL     1      41.552 -14.746   1.194  1.00  0.00     0.222 C 
HETATM   15  O   UNL     1      40.621 -15.544   1.276  1.00  0.00    -0.273 OA
HETATM   16  H   UNL     1      43.613 -14.512   1.083  1.00  0.00     0.162 HD
BRANCH  14  17
HETATM   17  C   UNL     1      41.351 -13.273   0.918  1.00  0.00     0.143 C 
BRANCH  17  18
HETATM   18  C   UNL     1      40.082 -12.883   0.223  1.00  0.00    -0.021 A 
HETATM   19  C   UNL     1      39.457 -13.396  -0.966  1.00  0.00    -0.001 A 
HETATM   20  C   UNL     1      38.279 -12.664  -1.172  1.00  0.00     0.044 A 
HETATM   21  C   UNL     1      39.768 -14.413  -1.897  1.00  0.00     0.014 A 
HETATM   22  N   UNL     1      38.181 -11.759  -0.141  1.00  0.00    -0.360 N 
HETATM   23  C   UNL     1      37.421 -12.904  -2.259  1.00  0.00     0.030 A 
HETATM   24  C   UNL     1      37.091 -10.827   0.044  1.00  0.00     0.155 C 
HETATM   25  C   UNL     1      39.255 -11.874   0.692  1.00  0.00     0.099 A 
HETATM   26  C   UNL     1      37.763 -13.911  -3.163  1.00  0.00     0.002 A 
HETATM   27  C   UNL     1      38.920 -14.659  -2.985  1.00  0.00     0.001 A 
ENDBRANCH  17  18
ENDBRANCH  14  17
ENDBRANCH  12  13
ENDBRANCH   1  12
BRANCH   3  28
HETATM   28  C   UNL     1      42.924 -14.576   6.112  1.00  0.00     0.114 C 
HETATM   29  C   UNL     1      44.281 -13.925   6.375  1.00  0.00     0.027 C 
HETATM   30  C   UNL     1      43.935 -12.520   6.856  1.00  0.00     0.002 C 
HETATM   31  C   UNL     1      42.543 -12.210   6.302  1.00  0.00     0.002 C 
HETATM   32  C   UNL     1      42.133 -13.429   5.481  1.00  0.00     0.027 C 
ENDBRANCH   3  28
TORSDOF 5
ENDMDL
MODEL 2
REMARK VINA RESULT:      -9.6      2.815      7.545
REMARK  5 active torsions:
REMARK  status: ('A' for Active; 'I' for Inactive)
REMARK    1  A    between atoms: C_9  and  C_10 
REMARK    2  A    between atoms: C_10  and  C_11 
REMARK       I    between atoms: C_11  and  N_12 
REMARK    3  A    between atoms: N_12  and  C_13 
REMARK    4  A    between atoms: C_13  and  C_14 
REMARK    5  A    between atoms: N_16  and  C_17 
ROOT
HETATM    1  C   UNL     1      41.423 -14.946   4.892  1.00  0.00     0.084 A 
HETATM    2  N   UNL     1      41.225 -14.553   3.667  1.00  0.00    -0.171 NA
HETATM    3  N   UNL     1      41.823 -15.223   2.630  1.00  0.00    -0.229 N 
HETATM    4  C   UNL     1      42.622 -16.354   2.796  1.00  0.00     0.275 A 
HETATM    5  O   UNL     1      43.127 -16.984   1.869  1.00  0.00    -0.266 OA
HETATM    6  C   UNL     1      42.844 -16.808   4.181  1.00  0.00     0.046 A 
HETATM    7  C   UNL     1      42.241 -16.132   5.236  1.00  0.00     0.008 A 
HETATM    8  C   UNL     1      43.644 -17.935   4.421  1.00  0.00     0.018 A 
HETATM    9  C   UNL     1      43.834 -18.389   5.724  1.00  0.00     0.001 A 
HETATM   10  C   UNL     1      43.222 -17.724   6.783  1.00  0.00     0.001 A 
HETATM   11  C   UNL     1      42.424 -16.601   6.544  1.00  0.00     0.014 A 
ENDROOT
BRANCH   1  12
HETATM   12  C   UNL     1      40.734 -14.149   5.999  1.00  0.00     0.184 C 
BRANCH  12  13
HETATM   13  N   UNL     1      41.185 -12.772   5.962  1.00  0.00    -0.355 N 
HETATM   14  C   UNL     1      40.335 -11.739   6.287  1.00  0.00     0.222 C 
HETATM   15  O   UNL     1      39.175 -11.930   6.646  1.00  0.00    -0.273 OA
HETATM   16  H   UNL     1      42.036 -12.579   5.441  1.00  0.00     0.162 HD
BRANCH  14  17
HETATM   17  C   UNL     1      40.958 -10.363   6.218  1.00  0.00     0.143 C 
BRANCH  17  18
HETATM   18  C   UNL     1      42.072 -10.076   7.178  1.00  0.00    -0.021 A 
HETATM   19  C   UNL     1      43.469 -10.413   7.135  1.00  0.00    -0.001 A 
HETATM   20  C   UNL     1      44.062  -9.901   8.298  1.00  0.00     0.044 A 
HETATM   21  C   UNL     1      44.302 -11.102   6.224  1.00  0.00     0.014 A 
HETATM   22  N   UNL     1      43.073  -9.263   9.008  1.00  0.00    -0.360 N 
HETATM   23  C   UNL     1      45.430 -10.058   8.580  1.00  0.00     0.030 A 
HETATM   24  C   UNL     1      43.266  -8.567  10.261  1.00  0.00     0.155 C 
HETATM   25  C   UNL     1      41.879  -9.369   8.354  1.00  0.00     0.099 A 
HETATM   26  C   UNL     1      46.220 -10.750   7.662  1.00  0.00     0.002 A 
HETATM   27  C   UNL     1      45.666 -11.265   6.497  1.00  0.00     0.001 A 
ENDBRANCH  17  18
ENDBRANCH  14  17
ENDBRANCH  12  13
ENDBRANCH   1  12
BRANCH   3  28
HETATM   28  C   UNL     1      41.475 -14.812   1.273  1.00  0.00     0.114 C 
HETATM   29  C   UNL     1      40.110 -15.343   0.836  1.00  0.00     0.027 C 
HETATM   30  C   UNL     1      39.766 -14.519  -0.400  1.00  0.00     0.002 C 
HETATM   31  C   UNL     1      40.567 -13.221  -0.284  1.00  0.00     0.002 C 
HETATM   32  C   UNL     1      41.327 -13.309   1.036  1.00  0.00     0.027 C 
ENDBRANCH   3  28
TORSDOF 5
ENDMDL
MODEL 3
REMARK VINA RESULT:      -9.5      2.296      7.710
REMARK  5 active torsions:
REMARK  status: ('A' for Active; 'I' for Inactive)
REMARK    1  A    between atoms: C_9  and  C_10 
REMARK    2  A    between atoms: C_10  and  C_11 
REMARK       I    between atoms: C_11  and  N_12 
REMARK    3  A    between atoms: N_12  and  C_13 
REMARK    4  A    between atoms: C_13  and  C_14 
REMARK    5  A    between atoms: N_16  and  C_17 
ROOT
HETATM    1  C   UNL     1      40.685 -12.440   2.077  1.00  0.00     0.084 A 
HETATM    2  N   UNL     1      41.495 -12.528   3.093  1.00  0.00    -0.171 NA
HETATM    3  N   UNL     1      41.383 -11.642   4.134  1.00  0.00    -0.229 N 
HETATM    4  C   UNL     1      40.408 -10.646   4.203  1.00  0.00     0.275 A 
HETATM    5  O   UNL     1      40.275  -9.876   5.151  1.00  0.00    -0.266 OA
HETATM    6  C   UNL     1      39.485 -10.546   3.058  1.00  0.00     0.046 A 
HETATM    7  C   UNL     1      39.594 -11.442   2.000  1.00  0.00     0.008 A 
HETATM    8  C   UNL     1      38.485  -9.562   3.058  1.00  0.00     0.018 A 
HETATM    9  C   UNL     1      37.588  -9.480   1.995  1.00  0.00     0.001 A 
HETATM   10  C   UNL     1      37.685 -10.382   0.939  1.00  0.00     0.001 A 
HETATM   11  C   UNL     1      38.681 -11.364   0.939  1.00  0.00     0.014 A 
ENDROOT
BRANCH   1  12
HETATM   12  C   UNL     1      40.873 -13.454   0.948  1.00  0.00     0.184 C 
BRANCH  12  13
HETATM   13  N   UNL     1      42.067 -14.238   1.189  1.00  0.00    -0.355 N 
HETATM   14  C   UNL     1      41.983 -15.555   1.583  1.00  0.00     0.222 C 
HETATM   15  O   UNL     1      40.907 -16.132   1.721  1.00  0.00    -0.273 OA
HETATM   16  H   UNL     1      42.935 -13.726   1.324  1.00  0.00     0.162 HD
BRANCH  14  17
HETATM   17  C   UNL     1      43.316 -16.242   1.777  1.00  0.00     0.143 C 
BRANCH  17  18
HETATM   18  C   UNL     1      43.503 -17.005   3.053  1.00  0.00    -0.021 A 
HETATM   19  C   UNL     1      43.647 -18.414   3.301  1.00  0.00    -0.001 A 
HETATM   20  C   UNL     1      43.791 -18.586   4.685  1.00  0.00     0.044 A 
HETATM   21  C   UNL     1      43.675 -19.572   2.492  1.00  0.00     0.014 A 
HETATM   22  N   UNL     1      43.754 -17.334   5.253  1.00  0.00    -0.360 N 
HETATM   23  C   UNL     1      43.949 -19.850   5.278  1.00  0.00     0.030 A 
HETATM   24  C   UNL     1      43.900 -17.057   6.665  1.00  0.00     0.155 C 
HETATM   25  C   UNL     1      43.574 -16.384   4.290  1.00  0.00     0.099 A 
HETATM   26  C   UNL     1      43.963 -20.972   4.448  1.00  0.00     0.002 A 
HETATM   27  C   UNL     1      43.831 -20.838   3.072  1.00  0.00     0.001 A 
ENDBRANCH  17  18
ENDBRANCH  14  17
ENDBRANCH  12  13
ENDBRANCH   1  12
BRANCH   3  28
HETATM   28  C   UNL     1      42.237 -11.857   5.298  1.00  0.00     0.114 C 
HETATM   29  C   UNL     1      42.274 -13.323   5.729  1.00  0.00     0.027 C 
HETATM   30  C   UNL     1      43.473 -13.407   6.669  1.00  0.00     0.002 C 
HETATM   31  C   UNL     1      44.392 -12.243   6.292  1.00  0.00     0.002 C 
HETATM   32  C   UNL     1      43.722 -11.537   5.117  1.00  0.00     0.027 C 
ENDBRANCH   3  28
TORSDOF 5
ENDMDL
MODEL 4
REMARK VINA RESULT:      -9.5      1.563      4.228
REMARK  5 active torsions:
REMARK  status: ('A' for Active; 'I' for Inactive)
REMARK    1  A    between atoms: C_9  and  C_10 
REMARK    2  A    between atoms: C_10  and  C_11 
REMARK       I    between atoms: C_11  and  N_12 
REMARK    3  A    between atoms: N_12  and  C_13 
REMARK    4  A    between atoms: C_13  and  C_14 
REMARK    5  A    between atoms: N_16  and  C_17 
ROOT
HETATM    1  C   UNL     1      41.519 -15.894   3.748  1.00  0.00     0.084 A 
HETATM    2  N   UNL     1      42.108 -16.965   3.299  1.00  0.00    -0.171 NA
HETATM    3  N   UNL     1      43.314 -17.351   3.826  1.00  0.00    -0.229 N 
HETATM    4  C   UNL     1      43.956 -16.681   4.868  1.00  0.00     0.275 A 
HETATM    5  O   UNL     1      45.015 -17.046   5.373  1.00  0.00    -0.266 OA
HETATM    6  C   UNL     1      43.289 -15.472   5.384  1.00  0.00     0.046 A 
HETATM    7  C   UNL     1      42.067 -15.075   4.853  1.00  0.00     0.008 A 
HETATM    8  C   UNL     1      43.883 -14.745   6.427  1.00  0.00     0.018 A 
HETATM    9  C   UNL     1      43.245 -13.619   6.942  1.00  0.00     0.001 A 
HETATM   10  C   UNL     1      42.015 -13.224   6.423  1.00  0.00     0.001 A 
HETATM   11  C   UNL     1      41.422 -13.950   5.384  1.00  0.00     0.014 A 
ENDROOT
BRANCH   1  12
HETATM   12  C   UNL     1      40.183 -15.516   3.109  1.00  0.00     0.184 C 
BRANCH  12  13
HETATM   13  N   UNL     1      40.393 -14.492   2.106  1.00  0.00    -0.355 N 
HETATM   14  C   UNL     1      39.734 -13.286   2.175  1.00  0.00     0.222 C 
HETATM   15  O   UNL     1      38.965 -13.008   3.093  1.00  0.00    -0.273 OA
HETATM   16  H   UNL     1      40.816 -14.786   1.229  1.00  0.00     0.162 HD
BRANCH  14  17
HETATM   17  C   UNL     1      40.073 -12.315   1.066  1.00  0.00     0.143 C 
BRANCH  17  18
HETATM   18  C   UNL     1      39.145 -12.282  -0.110  1.00  0.00    -0.021 A 
HETATM   19  C   UNL     1      38.901 -13.244  -1.151  1.00  0.00    -0.001 A 
HETATM   20  C   UNL     1      37.929 -12.703  -2.005  1.00  0.00     0.044 A 
HETATM   21  C   UNL     1      39.403 -14.528  -1.461  1.00  0.00     0.014 A 
HETATM   22  N   UNL     1      37.583 -11.473  -1.495  1.00  0.00    -0.360 N 
HETATM   23  C   UNL     1      37.458 -13.383  -3.140  1.00  0.00     0.030 A 
HETATM   24  C   UNL     1      36.585 -10.591  -2.058  1.00  0.00     0.155 C 
HETATM   25  C   UNL     1      38.309 -11.208  -0.370  1.00  0.00     0.099 A 
HETATM   26  C   UNL     1      37.982 -14.646  -3.420  1.00  0.00     0.002 A 
HETATM   27  C   UNL     1      38.940 -15.214  -2.591  1.00  0.00     0.001 A 
ENDBRANCH  17  18
ENDBRANCH  14  17
ENDBRANCH  12  13
ENDBRANCH   1  12
BRANCH   3  28
HETATM   28  C   UNL     1      43.874 -18.621   3.369  1.00  0.00     0.114 C 
HETATM   29  C   UNL     1      43.696 -19.739   4.396  1.00  0.00     0.027 C 
HETATM   30  C   UNL     1      43.975 -21.016   3.611  1.00  0.00     0.002 C 
HETATM   31  C   UNL     1      43.707 -20.681   2.142  1.00  0.00     0.002 C 
HETATM   32  C   UNL     1      43.240 -19.229   2.117  1.00  0.00     0.027 C 
ENDBRANCH   3  28
TORSDOF 5
ENDMDL
MODEL 5
REMARK VINA RESULT:      -9.4      2.186      5.418
REMARK  5 active torsions:
REMARK  status: ('A' for Active; 'I' for Inactive)
REMARK    1  A    between atoms: C_9  and  C_10 
REMARK    2  A    between atoms: C_10  and  C_11 
REMARK       I    between atoms: C_11  and  N_12 
REMARK    3  A    between atoms: N_12  and  C_13 
REMARK    4  A    between atoms: C_13  and  C_14 
REMARK    5  A    between atoms: N_16  and  C_17 
ROOT
HETATM    1  C   UNL     1      41.111 -16.108   3.324  1.00  0.00     0.084 A 
HETATM    2  N   UNL     1      41.834 -17.124   2.951  1.00  0.00    -0.171 NA
HETATM    3  N   UNL     1      43.019 -17.389   3.590  1.00  0.00    -0.229 N 
HETATM    4  C   UNL     1      43.501 -16.648   4.669  1.00  0.00     0.275 A 
HETATM    5  O   UNL     1      44.541 -16.905   5.272  1.00  0.00    -0.266 OA
HETATM    6  C   UNL     1      42.683 -15.500   5.099  1.00  0.00     0.046 A 
HETATM    7  C   UNL     1      41.481 -15.226   4.455  1.00  0.00     0.008 A 
HETATM    8  C   UNL     1      43.112 -14.707   6.174  1.00  0.00     0.018 A 
HETATM    9  C   UNL     1      42.330 -13.639   6.607  1.00  0.00     0.001 A 
HETATM   10  C   UNL     1      41.120 -13.368   5.974  1.00  0.00     0.001 A 
HETATM   11  C   UNL     1      40.691 -14.159   4.903  1.00  0.00     0.014 A 
ENDROOT
BRANCH   1  12
HETATM   12  C   UNL     1      39.808 -15.865   2.563  1.00  0.00     0.184 C 
BRANCH  12  13
HETATM   13  N   UNL     1      39.744 -14.483   2.133  1.00  0.00    -0.355 N 
HETATM   14  C   UNL     1      40.003 -14.134   0.826  1.00  0.00     0.222 C 
HETATM   15  O   UNL     1      40.272 -14.969  -0.036  1.00  0.00    -0.273 OA
HETATM   16  H   UNL     1      39.773 -13.772   2.859  1.00  0.00     0.162 HD
BRANCH  14  17
HETATM   17  C   UNL     1      39.879 -12.656   0.530  1.00  0.00     0.143 C 
BRANCH  17  18
HETATM   18  C   UNL     1      40.241 -11.713   1.636  1.00  0.00    -0.021 A 
HETATM   19  C   UNL     1      41.421 -11.619   2.453  1.00  0.00    -0.001 A 
HETATM   20  C   UNL     1      41.235 -10.551   3.341  1.00  0.00     0.044 A 
HETATM   21  C   UNL     1      42.639 -12.331   2.531  1.00  0.00     0.014 A 
HETATM   22  N   UNL     1      40.003 -10.005   3.064  1.00  0.00    -0.360 N 
HETATM   23  C   UNL     1      42.201 -10.182   4.293  1.00  0.00     0.030 A 
HETATM   24  C   UNL     1      39.433  -8.857   3.734  1.00  0.00     0.155 C 
HETATM   25  C   UNL     1      39.397 -10.696   2.055  1.00  0.00     0.099 A 
HETATM   26  C   UNL     1      43.388 -10.913   4.347  1.00  0.00     0.002 A 
HETATM   27  C   UNL     1      43.608 -11.973   3.478  1.00  0.00     0.001 A 
ENDBRANCH  17  18
ENDBRANCH  14  17
ENDBRANCH  12  13
ENDBRANCH   1  12
BRANCH   3  28
HETATM   28  C   UNL     1      43.732 -18.606   3.210  1.00  0.00     0.114 C 
HETATM   29  C   UNL     1      43.662 -19.683   4.293  1.00  0.00     0.027 C 
HETATM   30  C   UNL     1      44.104 -20.957   3.582  1.00  0.00     0.002 C 
HETATM   31  C   UNL     1      43.831 -20.732   2.093  1.00  0.00     0.002 C 
HETATM   32  C   UNL     1      43.201 -19.347   1.983  1.00  0.00     0.027 C 
ENDBRANCH   3  28
TORSDOF 5
ENDMDL
MODEL 6
REMARK VINA RESULT:      -9.3      5.145      8.676
REMARK  5 active torsions:
REMARK  status: ('A' for Active; 'I' for Inactive)
REMARK    1  A    between atoms: C_9  and  C_10 
REMARK    2  A    between atoms: C_10  and  C_11 
REMARK       I    between atoms: C_11  and  N_12 
REMARK    3  A    between atoms: N_12  and  C_13 
REMARK    4  A    between atoms: C_13  and  C_14 
REMARK    5  A    between atoms: N_16  and  C_17 
ROOT
HETATM    1  C   UNL     1      41.411  -9.164   9.348  1.00  0.00     0.084 A 
HETATM    2  N   UNL     1      42.405  -9.680   8.684  1.00  0.00    -0.171 NA
HETATM    3  N   UNL     1      43.437 -10.281   9.360  1.00  0.00    -0.229 N 
HETATM    4  C   UNL     1      43.479 -10.420  10.747  1.00  0.00     0.275 A 
HETATM    5  O   UNL     1      44.379 -10.995  11.355  1.00  0.00    -0.266 OA
HETATM    6  C   UNL     1      42.352  -9.844  11.502  1.00  0.00     0.046 A 
HETATM    7  C   UNL     1      41.304  -9.232  10.823  1.00  0.00     0.008 A 
HETATM    8  C   UNL     1      42.334  -9.941  12.902  1.00  0.00     0.018 A 
HETATM    9  C   UNL     1      41.258  -9.427  13.622  1.00  0.00     0.001 A 
HETATM   10  C   UNL     1      40.200  -8.825  12.946  1.00  0.00     0.001 A 
HETATM   11  C   UNL     1      40.217  -8.729  11.551  1.00  0.00     0.014 A 
ENDROOT
BRANCH   1  12
HETATM   12  C   UNL     1      40.300  -8.501   8.533  1.00  0.00     0.184 C 
BRANCH  12  13
HETATM   13  N   UNL     1      40.040  -9.279   7.339  1.00  0.00    -0.355 N 
HETATM   14  C   UNL     1      39.213 -10.379   7.376  1.00  0.00     0.222 C 
HETATM   15  O   UNL     1      38.640 -10.737   8.404  1.00  0.00    -0.273 OA
HETATM   16  H   UNL     1      40.681  -9.157   6.560  1.00  0.00     0.162 HD
BRANCH  14  17
HETATM   17  C   UNL     1      39.027 -11.075   6.046  1.00  0.00     0.143 C 
BRANCH  17  18
HETATM   18  C   UNL     1      40.057 -12.094   5.667  1.00  0.00    -0.021 A 
HETATM   19  C   UNL     1      41.176 -12.020   4.767  1.00  0.00    -0.001 A 
HETATM   20  C   UNL     1      41.814 -13.268   4.783  1.00  0.00     0.044 A 
HETATM   21  C   UNL     1      41.722 -11.016   3.935  1.00  0.00     0.014 A 
HETATM   22  N   UNL     1      41.124 -14.062   5.669  1.00  0.00    -0.360 N 
HETATM   23  C   UNL     1      42.951 -13.546   4.005  1.00  0.00     0.030 A 
HETATM   24  C   UNL     1      41.471 -15.424   6.008  1.00  0.00     0.155 C 
HETATM   25  C   UNL     1      40.069 -13.375   6.196  1.00  0.00     0.099 A 
HETATM   26  C   UNL     1      43.458 -12.534   3.189  1.00  0.00     0.002 A 
HETATM   27  C   UNL     1      42.854 -11.283   3.154  1.00  0.00     0.001 A 
ENDBRANCH  17  18
ENDBRANCH  14  17
ENDBRANCH  12  13
ENDBRANCH   1  12
BRANCH   3  28
HETATM   28  C   UNL     1      44.467 -10.944   8.565  1.00  0.00     0.114 C 
HETATM   29  C   UNL     1      43.901 -11.588   7.299  1.00  0.00     0.027 C 
HETATM   30  C   UNL     1      45.130 -11.873   6.443  1.00  0.00     0.002 C 
HETATM   31  C   UNL     1      46.212 -10.899   6.912  1.00  0.00     0.002 C 
HETATM   32  C   UNL     1      45.571 -10.047   8.003  1.00  0.00     0.027 C 
ENDBRANCH   3  28
TORSDOF 5
ENDMDL
MODEL 7
REMARK VINA RESULT:      -9.2      4.598      7.858
REMARK  5 active torsions:
REMARK  status: ('A' for Active; 'I' for Inactive)
REMARK    1  A    between atoms: C_9  and  C_10 
REMARK    2  A    between atoms: C_10  and  C_11 
REMARK       I    between atoms: C_11  and  N_12 
REMARK    3  A    between atoms: N_12  and  C_13 
REMARK    4  A    between atoms: C_13  and  C_14 
REMARK    5  A    between atoms: N_16  and  C_17 
ROOT
HETATM    1  C   UNL     1      41.923  -9.536   8.232  1.00  0.00     0.084 A 
HETATM    2  N   UNL     1      42.020  -9.341   9.516  1.00  0.00    -0.171 NA
HETATM    3  N   UNL     1      43.100  -9.836  10.201  1.00  0.00    -0.229 N 
HETATM    4  C   UNL     1      44.155 -10.521   9.597  1.00  0.00     0.275 A 
HETATM    5  O   UNL     1      45.145 -10.931  10.197  1.00  0.00    -0.266 OA
HETATM    6  C   UNL     1      44.053 -10.738   8.143  1.00  0.00     0.046 A 
HETATM    7  C   UNL     1      42.960 -10.239   7.443  1.00  0.00     0.008 A 
HETATM    8  C   UNL     1      45.075 -11.426   7.471  1.00  0.00     0.018 A 
HETATM    9  C   UNL     1      45.002 -11.609   6.092  1.00  0.00     0.001 A 
HETATM   10  C   UNL     1      43.916 -11.100   5.385  1.00  0.00     0.001 A 
HETATM   11  C   UNL     1      42.898 -10.413   6.053  1.00  0.00     0.014 A 
ENDROOT
BRANCH   1  12
HETATM   12  C   UNL     1      40.689  -8.965   7.534  1.00  0.00     0.184 C 
BRANCH  12  13
HETATM   13  N   UNL     1      40.143  -9.952   6.624  1.00  0.00    -0.355 N 
HETATM   14  C   UNL     1      39.166 -10.831   7.034  1.00  0.00     0.222 C 
HETATM   15  O   UNL     1      38.694 -10.806   8.168  1.00  0.00    -0.273 OA
HETATM   16  H   UNL     1      40.681 -10.152   5.784  1.00  0.00     0.162 HD
BRANCH  14  17
HETATM   17  C   UNL     1      38.687 -11.787   5.965  1.00  0.00     0.143 C 
BRANCH  17  18
HETATM   18  C   UNL     1      39.729 -12.352   5.047  1.00  0.00    -0.021 A 
HETATM   19  C   UNL     1      40.841 -13.226   5.302  1.00  0.00    -0.001 A 
HETATM   20  C   UNL     1      41.499 -13.438   4.082  1.00  0.00     0.044 A 
HETATM   21  C   UNL     1      41.363 -13.869   6.447  1.00  0.00     0.014 A 
HETATM   22  N   UNL     1      40.805 -12.738   3.122  1.00  0.00    -0.360 N 
HETATM   23  C   UNL     1      42.643 -14.246   3.971  1.00  0.00     0.030 A 
HETATM   24  C   UNL     1      41.132 -12.711   1.714  1.00  0.00     0.155 C 
HETATM   25  C   UNL     1      39.752 -12.078   3.689  1.00  0.00     0.099 A 
HETATM   26  C   UNL     1      43.135 -14.859   5.124  1.00  0.00     0.002 A 
HETATM   27  C   UNL     1      42.504 -14.676   6.347  1.00  0.00     0.001 A 
ENDBRANCH  17  18
ENDBRANCH  14  17
ENDBRANCH  12  13
ENDBRANCH   1  12
BRANCH   3  28
HETATM   28  C   UNL     1      43.218  -9.490  11.615  1.00  0.00     0.114 C 
HETATM   29  C   UNL     1      43.221  -7.979  11.846  1.00  0.00     0.027 C 
HETATM   30  C   UNL     1      42.963  -7.829  13.341  1.00  0.00     0.002 C 
HETATM   31  C   UNL     1      42.250  -9.109  13.782  1.00  0.00     0.002 C 
HETATM   32  C   UNL     1      42.077  -9.953  12.523  1.00  0.00     0.027 C 
ENDBRANCH   3  28
TORSDOF 5
ENDMDL
MODEL 8
REMARK VINA RESULT:      -9.2     14.498     16.804
REMARK  5 active torsions:
REMARK  status: ('A' for Active; 'I' for Inactive)
REMARK    1  A    between atoms: C_9  and  C_10 
REMARK    2  A    between atoms: C_10  and  C_11 
REMARK       I    between atoms: C_11  and  N_12 
REMARK    3  A    between atoms: N_12  and  C_13 
REMARK    4  A    between atoms: C_13  and  C_14 
REMARK    5  A    between atoms: N_16  and  C_17 
ROOT
HETATM    1  C   UNL     1      48.146 -29.362   1.892  1.00  0.00     0.084 A 
HETATM    2  N   UNL     1      48.675 -30.055   2.859  1.00  0.00    -0.171 NA
HETATM    3  N   UNL     1      49.617 -31.011   2.577  1.00  0.00    -0.229 N 
HETATM    4  C   UNL     1      50.094 -31.276   1.293  1.00  0.00     0.275 A 
HETATM    5  O   UNL     1      50.968 -32.102   1.039  1.00  0.00    -0.266 OA
HETATM    6  C   UNL     1      49.503 -30.490   0.195  1.00  0.00     0.046 A 
HETATM    7  C   UNL     1      48.547 -29.520   0.475  1.00  0.00     0.008 A 
HETATM    8  C   UNL     1      49.930 -30.710  -1.123  1.00  0.00     0.018 A 
HETATM    9  C   UNL     1      49.400 -29.950  -2.163  1.00  0.00     0.001 A 
HETATM   10  C   UNL     1      48.452 -28.969  -1.887  1.00  0.00     0.001 A 
HETATM   11  C   UNL     1      48.026 -28.748  -0.573  1.00  0.00     0.014 A 
ENDROOT
BRANCH   1  12
HETATM   12  C   UNL     1      47.096 -28.321   2.276  1.00  0.00     0.184 C 
BRANCH  12  13
HETATM   13  N   UNL     1      45.885 -28.544   1.513  1.00  0.00    -0.355 N 
HETATM   14  C   UNL     1      44.941 -29.455   1.932  1.00  0.00     0.222 C 
HETATM   15  O   UNL     1      45.062 -30.095   2.974  1.00  0.00    -0.273 OA
HETATM   16  H   UNL     1      45.881 -28.224   0.548  1.00  0.00     0.162 HD
BRANCH  14  17
HETATM   17  C   UNL     1      43.725 -29.562   1.039  1.00  0.00     0.143 C 
BRANCH  17  18
HETATM   18  C   UNL     1      43.944 -30.116  -0.336  1.00  0.00    -0.021 A 
HETATM   19  C   UNL     1      44.376 -29.485  -1.554  1.00  0.00    -0.001 A 
HETATM   20  C   UNL     1      44.408 -30.470  -2.551  1.00  0.00     0.044 A 
HETATM   21  C   UNL     1      44.750 -28.172  -1.919  1.00  0.00     0.014 A 
HETATM   22  N   UNL     1      44.030 -31.654  -1.961  1.00  0.00    -0.360 N 
HETATM   23  C   UNL     1      44.784 -30.192  -3.876  1.00  0.00     0.030 A 
HETATM   24  C   UNL     1      43.959 -32.932  -2.634  1.00  0.00     0.155 C 
HETATM   25  C   UNL     1      43.742 -31.453  -0.642  1.00  0.00     0.099 A 
HETATM   26  C   UNL     1      45.139 -28.882  -4.202  1.00  0.00     0.002 A 
HETATM   27  C   UNL     1      45.125 -27.883  -3.237  1.00  0.00     0.001 A 
ENDBRANCH  17  18
ENDBRANCH  14  17
ENDBRANCH  12  13
ENDBRANCH   1  12
BRANCH   3  28
HETATM   28  C   UNL     1      50.261 -31.676   3.707  1.00  0.00     0.114 C 
HETATM   29  C   UNL     1      51.265 -30.771   4.420  1.00  0.00     0.027 C 
HETATM   30  C   UNL     1      51.528 -31.476   5.747  1.00  0.00     0.002 C 
HETATM   31  C   UNL     1      50.303 -32.354   6.013  1.00  0.00     0.002 C 
HETATM   32  C   UNL     1      49.344 -32.106   4.853  1.00  0.00     0.027 C 
ENDBRANCH   3  28
TORSDOF 5
ENDMDL
MODEL 9
REMARK VINA RESULT:      -9.1      2.708      8.351
REMARK  5 active torsions:
REMARK  status: ('A' for Active; 'I' for Inactive)
REMARK    1  A    between atoms: C_9  and  C_10 
REMARK    2  A    between atoms: C_10  and  C_11 
REMARK       I    between atoms: C_11  and  N_12 
REMARK    3  A    between atoms: N_12  and  C_13 
REMARK    4  A    between atoms: C_13  and  C_14 
REMARK    5  A    between atoms: N_16  and  C_17 
ROOT
HETATM    1  C   UNL     1      39.998 -12.408   0.859  1.00  0.00     0.084 A 
HETATM    2  N   UNL     1      40.176 -11.488  -0.046  1.00  0.00    -0.171 NA
HETATM    3  N   UNL     1      40.152 -10.165   0.314  1.00  0.00    -0.229 N 
HETATM    4  C   UNL     1      39.985  -9.720   1.625  1.00  0.00     0.275 A 
HETATM    5  O   UNL     1      40.004  -8.537   1.960  1.00  0.00    -0.266 OA
HETATM    6  C   UNL     1      39.789 -10.757   2.654  1.00  0.00     0.046 A 
HETATM    7  C   UNL     1      39.811 -12.100   2.295  1.00  0.00     0.008 A 
HETATM    8  C   UNL     1      39.607 -10.380   3.993  1.00  0.00     0.018 A 
HETATM    9  C   UNL     1      39.453 -11.354   4.976  1.00  0.00     0.001 A 
HETATM   10  C   UNL     1      39.487 -12.701   4.625  1.00  0.00     0.001 A 
HETATM   11  C   UNL     1      39.670 -13.077   3.290  1.00  0.00     0.014 A 
ENDROOT
BRANCH   1  12
HETATM   12  C   UNL     1      40.027 -13.862   0.388  1.00  0.00     0.184 C 
BRANCH  12  13
HETATM   13  N   UNL     1      41.345 -14.420   0.609  1.00  0.00    -0.355 N 
HETATM   14  C   UNL     1      41.518 -15.545   1.385  1.00  0.00     0.222 C 
HETATM   15  O   UNL     1      40.573 -16.140   1.900  1.00  0.00    -0.273 OA
HETATM   16  H   UNL     1      42.140 -13.819   0.410  1.00  0.00     0.162 HD
BRANCH  14  17
HETATM   17  C   UNL     1      42.950 -16.015   1.506  1.00  0.00     0.143 C 
BRANCH  17  18
HETATM   18  C   UNL     1      43.310 -16.771   2.748  1.00  0.00    -0.021 A 
HETATM   19  C   UNL     1      43.497 -18.178   2.980  1.00  0.00    -0.001 A 
HETATM   20  C   UNL     1      43.824 -18.342   4.334  1.00  0.00     0.044 A 
HETATM   21  C   UNL     1      43.427 -19.339   2.178  1.00  0.00     0.014 A 
HETATM   22  N   UNL     1      43.854 -17.087   4.897  1.00  0.00    -0.360 N 
HETATM   23  C   UNL     1      44.069 -19.603   4.904  1.00  0.00     0.030 A 
HETATM   24  C   UNL     1      44.182 -16.804   6.276  1.00  0.00     0.155 C 
HETATM   25  C   UNL     1      43.539 -16.143   3.963  1.00  0.00     0.099 A 
HETATM   26  C   UNL     1      43.983 -20.728   4.084  1.00  0.00     0.002 A 
HETATM   27  C   UNL     1      43.668 -20.601   2.737  1.00  0.00     0.001 A 
ENDBRANCH  17  18
ENDBRANCH  14  17
ENDBRANCH  12  13
ENDBRANCH   1  12
BRANCH   3  28
HETATM   28  C   UNL     1      40.473  -9.181  -0.717  1.00  0.00     0.114 C 
HETATM   29  C   UNL     1      41.876  -9.376  -1.292  1.00  0.00     0.027 C 
HETATM   30  C   UNL     1      41.876  -8.543  -2.569  1.00  0.00     0.002 C 
HETATM   31  C   UNL     1      40.412  -8.414  -2.995  1.00  0.00     0.002 C 
HETATM   32  C   UNL     1      39.602  -9.209  -1.974  1.00  0.00     0.027 C 
ENDBRANCH   3  28
TORSDOF 5
ENDMDL
MODEL 10
REMARK VINA RESULT:      -9.0      4.508      9.911
REMARK  5 active torsions:
REMARK  status: ('A' for Active; 'I' for Inactive)
REMARK    1  A    between atoms: C_9  and  C_10 
REMARK    2  A    between atoms: C_10  and  C_11 
REMARK       I    between atoms: C_11  and  N_12 
REMARK    3  A    between atoms: N_12  and  C_13 
REMARK    4  A    between atoms: C_13  and  C_14 
REMARK    5  A    between atoms: N_16  and  C_17 
ROOT
HETATM    1  C   UNL     1      43.625 -12.059   6.269  1.00  0.00     0.084 A 
HETATM    2  N   UNL     1      43.589 -13.251   5.747  1.00  0.00    -0.171 NA
HETATM    3  N   UNL     1      42.389 -13.787   5.352  1.00  0.00    -0.229 N 
HETATM    4  C   UNL     1      41.172 -13.109   5.435  1.00  0.00     0.275 A 
HETATM    5  O   UNL     1      40.101 -13.567   5.044  1.00  0.00    -0.266 OA
HETATM    6  C   UNL     1      41.209 -11.757   6.019  1.00  0.00     0.046 A 
HETATM    7  C   UNL     1      42.422 -11.209   6.422  1.00  0.00     0.008 A 
HETATM    8  C   UNL     1      40.021 -11.021   6.139  1.00  0.00     0.018 A 
HETATM    9  C   UNL     1      40.050  -9.730   6.661  1.00  0.00     0.001 A 
HETATM   10  C   UNL     1      41.263  -9.172   7.054  1.00  0.00     0.001 A 
HETATM   11  C   UNL     1      42.449  -9.904   6.933  1.00  0.00     0.014 A 
ENDROOT
BRANCH   1  12
HETATM   12  C   UNL     1      44.993 -11.528   6.696  1.00  0.00     0.184 C 
BRANCH  12  13
HETATM   13  N   UNL     1      44.972 -11.206   8.109  1.00  0.00    -0.355 N 
HETATM   14  C   UNL     1      45.736 -10.176   8.612  1.00  0.00     0.222 C 
HETATM   15  O   UNL     1      46.443  -9.471   7.896  1.00  0.00    -0.273 OA
HETATM   16  H   UNL     1      44.604 -11.914   8.738  1.00  0.00     0.162 HD
BRANCH  14  17
HETATM   17  C   UNL     1      45.592  -9.953  10.101  1.00  0.00     0.143 C 
BRANCH  17  18
HETATM   18  C   UNL     1      44.245  -9.519  10.593  1.00  0.00    -0.021 A 
HETATM   19  C   UNL     1      43.435  -8.380  10.254  1.00  0.00    -0.001 A 
HETATM   20  C   UNL     1      42.261  -8.458  11.015  1.00  0.00     0.044 A 
HETATM   21  C   UNL     1      43.574  -7.284   9.372  1.00  0.00     0.014 A 
HETATM   22  N   UNL     1      42.343  -9.604  11.770  1.00  0.00    -0.360 N 
HETATM   23  C   UNL     1      41.243  -7.491  10.934  1.00  0.00     0.030 A 
HETATM   24  C   UNL     1      41.320 -10.078  12.676  1.00  0.00     0.155 C 
HETATM   25  C   UNL     1      43.527 -10.241  11.533  1.00  0.00     0.099 A 
HETATM   26  C   UNL     1      41.417  -6.418  10.059  1.00  0.00     0.002 A 
HETATM   27  C   UNL     1      42.566  -6.315   9.286  1.00  0.00     0.001 A 
ENDBRANCH  17  18
ENDBRANCH  14  17
ENDBRANCH  12  13
ENDBRANCH   1  12
BRANCH   3  28
HETATM   28  C   UNL     1      42.420 -15.077   4.668  1.00  0.00     0.114 C 
HETATM   29  C   UNL     1      42.865 -14.953   3.211  1.00  0.00     0.027 C 
HETATM   30  C   UNL     1      43.200 -16.382   2.800  1.00  0.00     0.002 C 
HETATM   31  C   UNL     1      43.521 -17.135   4.093  1.00  0.00     0.002 C 
HETATM   32  C   UNL     1      43.402 -16.112   5.218  1.00  0.00     0.027 C 
ENDBRANCH   3  28
TORSDOF 5
ENDMDL
