MODEL 1
REMARK VINA RESULT:      -9.0      0.000      0.000
REMARK  9 active torsions:
REMARK  status: ('A' for Active; 'I' for Inactive)
REMARK    1  A    between atoms: N_2  and  C_4 
REMARK    2  A    between atoms: C_4  and  C_5 
REMARK    3  A    between atoms: C_6  and  O_7 
REMARK    4  A    between atoms: O_7  and  C_8 
REMARK    5  A    between atoms: C_8  and  C_9 
REMARK       I    between atoms: C_9  and  N_10 
REMARK    6  A    between atoms: N_10  and  C_11 
REMARK    7  A    between atoms: C_11  and  C_12 
REMARK    8  A    between atoms: C_12  and  C_13 
REMARK    9  A    between atoms: C_27  and  C_28 
ROOT
HETATM    1  C   UNL     1      42.154 -12.899   5.093  1.00  0.00     0.002 A 
HETATM    2  C   UNL     1      42.792 -12.459   6.263  1.00  0.00     0.077 A 
HETATM    3  C   UNL     1      43.603 -13.346   6.975  1.00  0.00     0.038 A 
HETATM    4  C   UNL     1      43.798 -14.658   6.523  1.00  0.00     0.017 A 
HETATM    5  C   UNL     1      43.189 -15.115   5.348  1.00  0.00     0.000 A 
HETATM    6  C   UNL     1      42.364 -14.218   4.647  1.00  0.00     0.026 A 
ENDROOT
BRANCH   2   7
HETATM    7  O   UNL     1      42.528 -11.166   6.644  1.00  0.00    -0.342 OA
BRANCH   7   8
HETATM    8  C   UNL     1      43.677 -10.354   6.902  1.00  0.00     0.278 C 
BRANCH   8   9
HETATM    9  C   UNL     1      43.740  -9.838   8.339  1.00  0.00     0.241 C 
HETATM   10  N   UNL     1      44.619 -10.499   9.168  1.00  0.00    -0.359 N 
HETATM   11  H   UNL     1      44.900 -11.435   8.910  1.00  0.00     0.162 HD
HETATM   12  O   UNL     1      43.074  -8.874   8.706  1.00  0.00    -0.271 OA
BRANCH  10  13
HETATM   13  C   UNL     1      44.755 -10.123  10.566  1.00  0.00     0.130 C 
BRANCH  13  14
HETATM   14  C   UNL     1      43.823 -10.917  11.482  1.00  0.00     0.098 C 
BRANCH  14  15
HETATM   15  C   UNL     1      42.662 -10.106  11.968  1.00  0.00     0.106 A 
HETATM   16  N   UNL     1      42.551  -9.415  13.090  1.00  0.00    -0.233 NA
HETATM   17  C   UNL     1      41.334  -8.773  13.003  1.00  0.00     0.087 A 
HETATM   18  C   UNL     1      40.672  -9.116  11.830  1.00  0.00     0.062 A 
HETATM   19  C   UNL     1      40.727  -7.869  13.886  1.00  0.00     0.057 A 
HETATM   20  N   UNL     1      41.527  -9.981  11.201  1.00  0.00    -0.343 N 
HETATM   21  C   UNL     1      39.419  -8.613  11.472  1.00  0.00     0.034 A 
HETATM   22  H   UNL     1      41.369 -10.418  10.302  1.00  0.00     0.167 HD
HETATM   23  C   UNL     1      38.828  -7.712  12.365  1.00  0.00     0.026 A 
HETATM   24  C   UNL     1      39.473  -7.350  13.547  1.00  0.00     0.036 A 
HETATM   25 CL   UNL     1      38.719  -6.233  14.621  1.00  0.00    -0.084 Cl
ENDBRANCH  14  15
ENDBRANCH  13  14
ENDBRANCH  10  13
ENDBRANCH   8   9
ENDBRANCH   7   8
ENDBRANCH   2   7
BRANCH   1  26
HETATM   26  C   UNL     1      41.221 -11.997   4.330  1.00  0.00     0.275 C 
BRANCH  26  27
HETATM   27  N   UNL     1      41.947 -10.868   3.632  1.00  0.00    -0.075 N 
HETATM   28  C   UNL     1      41.320  -9.525   3.871  1.00  0.00     0.269 C 
HETATM   29  H   UNL     1      42.885 -10.846   4.053  1.00  0.00     0.279 HD
HETATM   30  C   UNL     1      42.133 -11.149   2.174  1.00  0.00     0.269 C 
ENDBRANCH  26  27
ENDBRANCH   1  26
BRANCH   5  31
HETATM   31  C   UNL     1      43.338 -16.489   4.833  1.00  0.00     0.109 A 
HETATM   32  S   UNL     1      43.882 -17.779   5.831  1.00  0.00    -0.068 SA
HETATM   33  C   UNL     1      43.788 -18.865   4.502  1.00  0.00     0.035 A 
HETATM   34  C   UNL     1      43.348 -18.167   3.378  1.00  0.00     0.075 A 
HETATM   35  C   UNL     1      44.084 -20.237   4.457  1.00  0.00     0.021 A 
HETATM   36  N   UNL     1      43.102 -16.816   3.578  1.00  0.00    -0.240 NA
HETATM   37  C   UNL     1      43.195 -18.865   2.164  1.00  0.00     0.033 A 
HETATM   38  C   UNL     1      43.485 -20.232   2.106  1.00  0.00     0.002 A 
HETATM   39  C   UNL     1      43.925 -20.907   3.240  1.00  0.00     0.002 A 
ENDBRANCH   5  31
TORSDOF 9
ENDMDL
MODEL 2
REMARK VINA RESULT:      -8.9      4.224      7.633
REMARK  9 active torsions:
REMARK  status: ('A' for Active; 'I' for Inactive)
REMARK    1  A    between atoms: N_2  and  C_4 
REMARK    2  A    between atoms: C_4  and  C_5 
REMARK    3  A    between atoms: C_6  and  O_7 
REMARK    4  A    between atoms: O_7  and  C_8 
REMARK    5  A    between atoms: C_8  and  C_9 
REMARK       I    between atoms: C_9  and  N_10 
REMARK    6  A    between atoms: N_10  and  C_11 
REMARK    7  A    between atoms: C_11  and  C_12 
REMARK    8  A    between atoms: C_12  and  C_13 
REMARK    9  A    between atoms: C_27  and  C_28 
ROOT
HETATM    1  C   UNL     1      43.828 -11.939   6.496  1.00  0.00     0.002 A 
HETATM    2  C   UNL     1      42.617 -11.336   6.124  1.00  0.00     0.077 A 
HETATM    3  C   UNL     1      41.573 -12.135   5.650  1.00  0.00     0.038 A 
HETATM    4  C   UNL     1      41.719 -13.525   5.561  1.00  0.00     0.017 A 
HETATM    5  C   UNL     1      42.911 -14.152   5.944  1.00  0.00     0.000 A 
HETATM    6  C   UNL     1      43.959 -13.338   6.407  1.00  0.00     0.026 A 
ENDROOT
BRANCH   2   7
HETATM    7  O   UNL     1      42.570  -9.967   6.223  1.00  0.00    -0.342 OA
BRANCH   7   8
HETATM    8  C   UNL     1      41.266  -9.387   6.114  1.00  0.00     0.278 C 
BRANCH   8   9
HETATM    9  C   UNL     1      40.807  -9.207   4.667  1.00  0.00     0.241 C 
HETATM   10  N   UNL     1      39.507  -9.581   4.406  1.00  0.00    -0.359 N 
HETATM   11  H   UNL     1      39.065 -10.228   5.043  1.00  0.00     0.162 HD
HETATM   12  O   UNL     1      41.547  -8.724   3.814  1.00  0.00    -0.271 OA
BRANCH  10  13
HETATM   13  C   UNL     1      38.956  -9.484   3.064  1.00  0.00     0.130 C 
BRANCH  13  14
HETATM   14  C   UNL     1      38.196 -10.744   2.648  1.00  0.00     0.098 C 
BRANCH  14  15
HETATM   15  C   UNL     1      39.104 -11.904   2.379  1.00  0.00     0.106 A 
HETATM   16  N   UNL     1      40.364 -11.888   1.979  1.00  0.00    -0.233 NA
HETATM   17  C   UNL     1      40.764 -13.209   1.986  1.00  0.00     0.087 A 
HETATM   18  C   UNL     1      39.715 -14.045   2.350  1.00  0.00     0.062 A 
HETATM   19  C   UNL     1      42.015 -13.772   1.700  1.00  0.00     0.057 A 
HETATM   20  N   UNL     1      38.667 -13.194   2.573  1.00  0.00    -0.343 N 
HETATM   21  C   UNL     1      39.831 -15.434   2.447  1.00  0.00     0.034 A 
HETATM   22  H   UNL     1      37.740 -13.465   2.874  1.00  0.00     0.167 HD
HETATM   23  C   UNL     1      41.086 -15.979   2.160  1.00  0.00     0.026 A 
HETATM   24  C   UNL     1      42.155 -15.161   1.794  1.00  0.00     0.036 A 
HETATM   25 CL   UNL     1      43.689 -15.866   1.452  1.00  0.00    -0.084 Cl
ENDBRANCH  14  15
ENDBRANCH  13  14
ENDBRANCH  10  13
ENDBRANCH   8   9
ENDBRANCH   7   8
ENDBRANCH   2   7
BRANCH   1  26
HETATM   26  C   UNL     1      45.001 -11.111   6.951  1.00  0.00     0.275 C 
BRANCH  26  27
HETATM   27  N   UNL     1      44.635 -10.142   8.053  1.00  0.00    -0.075 N 
HETATM   28  C   UNL     1      45.686  -9.098   8.295  1.00  0.00     0.269 C 
HETATM   29  H   UNL     1      43.792  -9.655   7.719  1.00  0.00     0.279 HD
HETATM   30  C   UNL     1      44.252 -10.856   9.312  1.00  0.00     0.269 C 
ENDBRANCH  26  27
ENDBRANCH   1  26
BRANCH   5  31
HETATM   31  C   UNL     1      43.132 -15.608   5.854  1.00  0.00     0.109 A 
HETATM   32  S   UNL     1      42.821 -16.658   7.180  1.00  0.00    -0.068 SA
HETATM   33  C   UNL     1      43.350 -18.005   6.254  1.00  0.00     0.035 A 
HETATM   34  C   UNL     1      43.733 -17.563   4.988  1.00  0.00     0.075 A 
HETATM   35  C   UNL     1      43.422 -19.359   6.621  1.00  0.00     0.021 A 
HETATM   36  N   UNL     1      43.611 -16.197   4.776  1.00  0.00    -0.240 NA
HETATM   37  C   UNL     1      44.204 -18.506   4.053  1.00  0.00     0.033 A 
HETATM   38  C   UNL     1      44.280 -19.857   4.407  1.00  0.00     0.002 A 
HETATM   39  C   UNL     1      43.894 -20.276   5.676  1.00  0.00     0.002 A 
ENDBRANCH   5  31
TORSDOF 9
ENDMDL
MODEL 3
REMARK VINA RESULT:      -8.8      1.203      1.543
REMARK  9 active torsions:
REMARK  status: ('A' for Active; 'I' for Inactive)
REMARK    1  A    between atoms: N_2  and  C_4 
REMARK    2  A    between atoms: C_4  and  C_5 
REMARK    3  A    between atoms: C_6  and  O_7 
REMARK    4  A    between atoms: O_7  and  C_8 
REMARK    5  A    between atoms: C_8  and  C_9 
REMARK       I    between atoms: C_9  and  N_10 
REMARK    6  A    between atoms: N_10  and  C_11 
REMARK    7  A    between atoms: C_11  and  C_12 
REMARK    8  A    between atoms: C_12  and  C_13 
REMARK    9  A    between atoms: C_27  and  C_28 
ROOT
HETATM    1  C   UNL     1      42.273 -12.863   5.206  1.00  0.00     0.002 A 
HETATM    2  C   UNL     1      42.930 -12.555   6.408  1.00  0.00     0.077 A 
HETATM    3  C   UNL     1      43.731 -13.524   7.017  1.00  0.00     0.038 A 
HETATM    4  C   UNL     1      43.895 -14.787   6.433  1.00  0.00     0.017 A 
HETATM    5  C   UNL     1      43.266 -15.112   5.226  1.00  0.00     0.000 A 
HETATM    6  C   UNL     1      42.453 -14.135   4.628  1.00  0.00     0.026 A 
ENDROOT
BRANCH   2   7
HETATM    7  O   UNL     1      42.695 -11.302   6.919  1.00  0.00    -0.342 OA
BRANCH   7   8
HETATM    8  C   UNL     1      43.862 -10.530   7.216  1.00  0.00     0.278 C 
BRANCH   8   9
HETATM    9  C   UNL     1      44.275 -10.603   8.687  1.00  0.00     0.241 C 
HETATM   10  N   UNL     1      43.257 -10.425   9.598  1.00  0.00    -0.359 N 
HETATM   11  H   UNL     1      42.423  -9.948   9.287  1.00  0.00     0.162 HD
HETATM   12  O   UNL     1      45.433 -10.843   9.017  1.00  0.00    -0.271 OA
BRANCH  10  13
HETATM   13  C   UNL     1      43.522 -10.446  11.027  1.00  0.00     0.130 C 
BRANCH  13  14
HETATM   14  C   UNL     1      43.841  -9.059  11.587  1.00  0.00     0.098 C 
BRANCH  14  15
HETATM   15  C   UNL     1      42.721  -8.496  12.405  1.00  0.00     0.106 A 
HETATM   16  N   UNL     1      42.740  -8.101  13.667  1.00  0.00    -0.233 NA
HETATM   17  C   UNL     1      41.488  -7.572  13.901  1.00  0.00     0.087 A 
HETATM   18  C   UNL     1      40.678  -7.690  12.778  1.00  0.00     0.062 A 
HETATM   19  C   UNL     1      40.969  -6.961  15.051  1.00  0.00     0.057 A 
HETATM   20  N   UNL     1      41.477  -8.300  11.849  1.00  0.00    -0.343 N 
HETATM   21  C   UNL     1      39.359  -7.235  12.723  1.00  0.00     0.034 A 
HETATM   22  H   UNL     1      41.212  -8.527  10.899  1.00  0.00     0.167 HD
HETATM   23  C   UNL     1      38.857  -6.628  13.879  1.00  0.00     0.026 A 
HETATM   24  C   UNL     1      39.651  -6.494  15.019  1.00  0.00     0.036 A 
HETATM   25 CL   UNL     1      39.003  -5.736  16.423  1.00  0.00    -0.084 Cl
ENDBRANCH  14  15
ENDBRANCH  13  14
ENDBRANCH  10  13
ENDBRANCH   8   9
ENDBRANCH   7   8
ENDBRANCH   2   7
BRANCH   1  26
HETATM   26  C   UNL     1      41.351 -11.871   4.549  1.00  0.00     0.275 C 
BRANCH  26  27
HETATM   27  N   UNL     1      42.097 -10.731   3.891  1.00  0.00    -0.075 N 
HETATM   28  C   UNL     1      41.484  -9.389   4.164  1.00  0.00     0.269 C 
HETATM   29  H   UNL     1      43.032 -10.734   4.323  1.00  0.00     0.279 HD
HETATM   30  C   UNL     1      42.295 -10.971   2.427  1.00  0.00     0.269 C 
ENDBRANCH  26  27
ENDBRANCH   1  26
BRANCH   5  31
HETATM   31  C   UNL     1      43.384 -16.430   4.574  1.00  0.00     0.109 A 
HETATM   32  S   UNL     1      42.992 -16.661   2.915  1.00  0.00    -0.068 SA
HETATM   33  C   UNL     1      43.359 -18.335   3.048  1.00  0.00     0.035 A 
HETATM   34  C   UNL     1      43.756 -18.609   4.356  1.00  0.00     0.075 A 
HETATM   35  C   UNL     1      43.300 -19.335   2.064  1.00  0.00     0.021 A 
HETATM   36  N   UNL     1      43.759 -17.519   5.215  1.00  0.00    -0.240 NA
HETATM   37  C   UNL     1      44.109 -19.930   4.695  1.00  0.00     0.033 A 
HETATM   38  C   UNL     1      44.054 -20.935   3.724  1.00  0.00     0.002 A 
HETATM   39  C   UNL     1      43.653 -20.639   2.425  1.00  0.00     0.002 A 
ENDBRANCH   5  31
TORSDOF 9
ENDMDL
MODEL 4
REMARK VINA RESULT:      -8.8      1.645      2.291
REMARK  9 active torsions:
REMARK  status: ('A' for Active; 'I' for Inactive)
REMARK    1  A    between atoms: N_2  and  C_4 
REMARK    2  A    between atoms: C_4  and  C_5 
REMARK    3  A    between atoms: C_6  and  O_7 
REMARK    4  A    between atoms: O_7  and  C_8 
REMARK    5  A    between atoms: C_8  and  C_9 
REMARK       I    between atoms: C_9  and  N_10 
REMARK    6  A    between atoms: N_10  and  C_11 
REMARK    7  A    between atoms: C_11  and  C_12 
REMARK    8  A    between atoms: C_12  and  C_13 
REMARK    9  A    between atoms: C_27  and  C_28 
ROOT
HETATM    1  C   UNL     1      42.276 -12.772   4.694  1.00  0.00     0.002 A 
HETATM    2  C   UNL     1      42.800 -12.259   5.891  1.00  0.00     0.077 A 
HETATM    3  C   UNL     1      43.504 -13.107   6.748  1.00  0.00     0.038 A 
HETATM    4  C   UNL     1      43.707 -14.453   6.416  1.00  0.00     0.017 A 
HETATM    5  C   UNL     1      43.211 -14.984   5.220  1.00  0.00     0.000 A 
HETATM    6  C   UNL     1      42.492 -14.126   4.371  1.00  0.00     0.026 A 
ENDROOT
BRANCH   2   7
HETATM    7  O   UNL     1      42.535 -10.935   6.145  1.00  0.00    -0.342 OA
BRANCH   7   8
HETATM    8  C   UNL     1      43.122 -10.409   7.339  1.00  0.00     0.278 C 
BRANCH   8   9
HETATM    9  C   UNL     1      42.185  -9.481   8.113  1.00  0.00     0.241 C 
HETATM   10  N   UNL     1      40.913  -9.965   8.326  1.00  0.00    -0.359 N 
HETATM   11  H   UNL     1      40.577 -10.696   7.715  1.00  0.00     0.162 HD
HETATM   12  O   UNL     1      42.567  -8.396   8.542  1.00  0.00    -0.271 OA
BRANCH  10  13
HETATM   13  C   UNL     1      39.918  -9.170   9.026  1.00  0.00     0.130 C 
BRANCH  13  14
HETATM   14  C   UNL     1      39.542  -9.761  10.385  1.00  0.00     0.098 C 
BRANCH  14  15
HETATM   15  C   UNL     1      40.215  -9.063  11.525  1.00  0.00     0.106 A 
HETATM   16  N   UNL     1      39.731  -8.786  12.724  1.00  0.00    -0.233 NA
HETATM   17  C   UNL     1      40.784  -8.233  13.423  1.00  0.00     0.087 A 
HETATM   18  C   UNL     1      41.914  -8.128  12.621  1.00  0.00     0.062 A 
HETATM   19  C   UNL     1      40.853  -7.803  14.755  1.00  0.00     0.057 A 
HETATM   20  N   UNL     1      41.521  -8.642  11.414  1.00  0.00    -0.343 N 
HETATM   21  C   UNL     1      43.133  -7.609  13.065  1.00  0.00     0.034 A 
HETATM   22  H   UNL     1      42.105  -8.736  10.594  1.00  0.00     0.167 HD
HETATM   23  C   UNL     1      43.185  -7.185  14.397  1.00  0.00     0.026 A 
HETATM   24  C   UNL     1      42.065  -7.282  15.223  1.00  0.00     0.036 A 
HETATM   25 CL   UNL     1      42.166  -6.756  16.860  1.00  0.00    -0.084 Cl
ENDBRANCH  14  15
ENDBRANCH  13  14
ENDBRANCH  10  13
ENDBRANCH   8   9
ENDBRANCH   7   8
ENDBRANCH   2   7
BRANCH   1  26
HETATM   26  C   UNL     1      41.456 -11.910   3.772  1.00  0.00     0.275 C 
BRANCH  26  27
HETATM   27  N   UNL     1      40.733 -12.715   2.714  1.00  0.00    -0.075 N 
HETATM   28  C   UNL     1      41.081 -12.301   1.315  1.00  0.00     0.269 C 
HETATM   29  H   UNL     1      41.062 -13.683   2.837  1.00  0.00     0.279 HD
HETATM   30  C   UNL     1      39.254 -12.728   2.944  1.00  0.00     0.269 C 
ENDBRANCH  26  27
ENDBRANCH   1  26
BRANCH   5  31
HETATM   31  C   UNL     1      43.373 -16.396   4.826  1.00  0.00     0.109 A 
HETATM   32  S   UNL     1      43.857 -17.604   5.950  1.00  0.00    -0.068 SA
HETATM   33  C   UNL     1      43.818 -18.794   4.711  1.00  0.00     0.035 A 
HETATM   34  C   UNL     1      43.439 -18.187   3.513  1.00  0.00     0.075 A 
HETATM   35  C   UNL     1      44.103 -20.166   4.791  1.00  0.00     0.021 A 
HETATM   36  N   UNL     1      43.196 -16.823   3.591  1.00  0.00    -0.240 NA
HETATM   37  C   UNL     1      43.338 -18.981   2.353  1.00  0.00     0.033 A 
HETATM   38  C   UNL     1      43.620 -20.349   2.421  1.00  0.00     0.002 A 
HETATM   39  C   UNL     1      43.998 -20.933   3.626  1.00  0.00     0.002 A 
ENDBRANCH   5  31
TORSDOF 9
ENDMDL
MODEL 5
REMARK VINA RESULT:      -8.8      4.935      9.078
REMARK  9 active torsions:
REMARK  status: ('A' for Active; 'I' for Inactive)
REMARK    1  A    between atoms: N_2  and  C_4 
REMARK    2  A    between atoms: C_4  and  C_5 
REMARK    3  A    between atoms: C_6  and  O_7 
REMARK    4  A    between atoms: O_7  and  C_8 
REMARK    5  A    between atoms: C_8  and  C_9 
REMARK       I    between atoms: C_9  and  N_10 
REMARK    6  A    between atoms: N_10  and  C_11 
REMARK    7  A    between atoms: C_11  and  C_12 
REMARK    8  A    between atoms: C_12  and  C_13 
REMARK    9  A    between atoms: C_27  and  C_28 
ROOT
HETATM    1  C   UNL     1      42.998 -12.845   5.448  1.00  0.00     0.002 A 
HETATM    2  C   UNL     1      42.598 -12.067   4.350  1.00  0.00     0.077 A 
HETATM    3  C   UNL     1      42.421 -12.678   3.107  1.00  0.00     0.038 A 
HETATM    4  C   UNL     1      42.620 -14.057   2.952  1.00  0.00     0.017 A 
HETATM    5  C   UNL     1      43.001 -14.857   4.035  1.00  0.00     0.000 A 
HETATM    6  C   UNL     1      43.189 -14.230   5.278  1.00  0.00     0.026 A 
ENDROOT
BRANCH   2   7
HETATM    7  O   UNL     1      42.447 -10.722   4.588  1.00  0.00    -0.342 OA
BRANCH   7   8
HETATM    8  C   UNL     1      41.099 -10.243   4.572  1.00  0.00     0.278 C 
BRANCH   8   9
HETATM    9  C   UNL     1      40.561 -10.004   3.162  1.00  0.00     0.241 C 
HETATM   10  N   UNL     1      41.266  -9.096   2.404  1.00  0.00    -0.359 N 
HETATM   11  H   UNL     1      41.847  -8.426   2.887  1.00  0.00     0.162 HD
HETATM   12  O   UNL     1      39.586 -10.617   2.734  1.00  0.00    -0.271 OA
BRANCH  10  13
HETATM   13  C   UNL     1      40.843  -8.761   1.053  1.00  0.00     0.130 C 
BRANCH  13  14
HETATM   14  C   UNL     1      41.649  -9.499  -0.016  1.00  0.00     0.098 C 
BRANCH  14  15
HETATM   15  C   UNL     1      40.906 -10.660  -0.600  1.00  0.00     0.106 A 
HETATM   16  N   UNL     1      40.242 -10.724  -1.741  1.00  0.00    -0.233 NA
HETATM   17  C   UNL     1      39.837 -12.038  -1.853  1.00  0.00     0.087 A 
HETATM   18  C   UNL     1      40.220 -12.774  -0.739  1.00  0.00     0.062 A 
HETATM   19  C   UNL     1      39.143 -12.681  -2.888  1.00  0.00     0.057 A 
HETATM   20  N   UNL     1      40.878 -11.872   0.052  1.00  0.00    -0.343 N 
HETATM   21  C   UNL     1      39.949 -14.135  -0.580  1.00  0.00     0.034 A 
HETATM   22  H   UNL     1      41.309 -12.073   0.945  1.00  0.00     0.167 HD
HETATM   23  C   UNL     1      39.257 -14.762  -1.622  1.00  0.00     0.026 A 
HETATM   24  C   UNL     1      38.864 -14.045  -2.752  1.00  0.00     0.036 A 
HETATM   25 CL   UNL     1      38.017 -14.849  -4.018  1.00  0.00    -0.084 Cl
ENDBRANCH  14  15
ENDBRANCH  13  14
ENDBRANCH  10  13
ENDBRANCH   8   9
ENDBRANCH   7   8
ENDBRANCH   2   7
BRANCH   1  26
HETATM   26  C   UNL     1      43.263 -12.217   6.790  1.00  0.00     0.275 C 
BRANCH  26  27
HETATM   27  N   UNL     1      44.238 -11.063   6.710  1.00  0.00    -0.075 N 
HETATM   28  C   UNL     1      45.648 -11.499   6.439  1.00  0.00     0.269 C 
HETATM   29  H   UNL     1      43.930 -10.504   5.902  1.00  0.00     0.279 HD
HETATM   30  C   UNL     1      44.145 -10.177   7.912  1.00  0.00     0.269 C 
ENDBRANCH  26  27
ENDBRANCH   1  26
BRANCH   5  31
HETATM   31  C   UNL     1      43.246 -16.308   3.930  1.00  0.00     0.109 A 
HETATM   32  S   UNL     1      43.160 -17.138   2.427  1.00  0.00    -0.068 SA
HETATM   33  C   UNL     1      43.513 -18.625   3.212  1.00  0.00     0.035 A 
HETATM   34  C   UNL     1      43.673 -18.390   4.577  1.00  0.00     0.075 A 
HETATM   35  C   UNL     1      43.641 -19.910   2.659  1.00  0.00     0.021 A 
HETATM   36  N   UNL     1      43.511 -17.070   4.973  1.00  0.00    -0.240 NA
HETATM   37  C   UNL     1      43.972 -19.477   5.422  1.00  0.00     0.033 A 
HETATM   38  C   UNL     1      44.101 -20.761   4.883  1.00  0.00     0.002 A 
HETATM   39  C   UNL     1      43.936 -20.973   3.518  1.00  0.00     0.002 A 
ENDBRANCH   5  31
TORSDOF 9
ENDMDL
MODEL 6
REMARK VINA RESULT:      -8.7      4.203      5.685
REMARK  9 active torsions:
REMARK  status: ('A' for Active; 'I' for Inactive)
REMARK    1  A    between atoms: N_2  and  C_4 
REMARK    2  A    between atoms: C_4  and  C_5 
REMARK    3  A    between atoms: C_6  and  O_7 
REMARK    4  A    between atoms: O_7  and  C_8 
REMARK    5  A    between atoms: C_8  and  C_9 
REMARK       I    between atoms: C_9  and  N_10 
REMARK    6  A    between atoms: N_10  and  C_11 
REMARK    7  A    between atoms: C_11  and  C_12 
REMARK    8  A    between atoms: C_12  and  C_13 
REMARK    9  A    between atoms: C_27  and  C_28 
ROOT
HETATM    1  C   UNL     1      41.224 -12.938   0.933  1.00  0.00     0.002 A 
HETATM    2  C   UNL     1      41.746 -11.803   1.573  1.00  0.00     0.077 A 
HETATM    3  C   UNL     1      42.630 -11.968   2.642  1.00  0.00     0.038 A 
HETATM    4  C   UNL     1      43.011 -13.248   3.066  1.00  0.00     0.017 A 
HETATM    5  C   UNL     1      42.519 -14.395   2.430  1.00  0.00     0.000 A 
HETATM    6  C   UNL     1      41.620 -14.218   1.365  1.00  0.00     0.026 A 
ENDROOT
BRANCH   2   7
HETATM    7  O   UNL     1      41.302 -10.590   1.107  1.00  0.00    -0.342 OA
BRANCH   7   8
HETATM    8  C   UNL     1      40.857  -9.671   2.110  1.00  0.00     0.278 C 
BRANCH   8   9
HETATM    9  C   UNL     1      39.691 -10.204   2.941  1.00  0.00     0.241 C 
HETATM   10  N   UNL     1      39.717  -9.878   4.279  1.00  0.00    -0.359 N 
HETATM   11  H   UNL     1      40.606  -9.623   4.685  1.00  0.00     0.162 HD
HETATM   12  O   UNL     1      38.778 -10.847   2.428  1.00  0.00    -0.271 OA
BRANCH  10  13
HETATM   13  C   UNL     1      38.679 -10.346   5.183  1.00  0.00     0.130 C 
BRANCH  13  14
HETATM   14  C   UNL     1      39.227 -11.239   6.296  1.00  0.00     0.098 C 
BRANCH  14  15
HETATM   15  C   UNL     1      40.699 -11.063   6.505  1.00  0.00     0.106 A 
HETATM   16  N   UNL     1      41.345 -10.009   6.975  1.00  0.00    -0.233 NA
HETATM   17  C   UNL     1      42.664 -10.400   7.064  1.00  0.00     0.087 A 
HETATM   18  C   UNL     1      42.831 -11.698   6.595  1.00  0.00     0.062 A 
HETATM   19  C   UNL     1      43.780  -9.702   7.546  1.00  0.00     0.057 A 
HETATM   20  N   UNL     1      41.573 -12.088   6.225  1.00  0.00    -0.343 N 
HETATM   21  C   UNL     1      44.062 -12.359   6.569  1.00  0.00     0.034 A 
HETATM   22  H   UNL     1      41.321 -12.994   5.852  1.00  0.00     0.167 HD
HETATM   23  C   UNL     1      45.165 -11.648   7.054  1.00  0.00     0.026 A 
HETATM   24  C   UNL     1      45.022 -10.346   7.533  1.00  0.00     0.036 A 
HETATM   25 CL   UNL     1      46.401  -9.502   8.128  1.00  0.00    -0.084 Cl
ENDBRANCH  14  15
ENDBRANCH  13  14
ENDBRANCH  10  13
ENDBRANCH   8   9
ENDBRANCH   7   8
ENDBRANCH   2   7
BRANCH   1  26
HETATM   26  C   UNL     1      40.219 -12.808  -0.181  1.00  0.00     0.275 C 
BRANCH  26  27
HETATM   27  N   UNL     1      40.434 -13.826  -1.279  1.00  0.00    -0.075 N 
HETATM   28  C   UNL     1      40.691 -13.204  -2.620  1.00  0.00     0.269 C 
HETATM   29  H   UNL     1      41.286 -14.338  -1.012  1.00  0.00     0.279 HD
HETATM   30  C   UNL     1      39.324 -14.828  -1.328  1.00  0.00     0.269 C 
ENDBRANCH  26  27
ENDBRANCH   1  26
BRANCH   5  31
HETATM   31  C   UNL     1      42.866 -15.768   2.843  1.00  0.00     0.109 A 
HETATM   32  S   UNL     1      43.417 -16.128   4.431  1.00  0.00    -0.068 SA
HETATM   33  C   UNL     1      43.590 -17.785   4.011  1.00  0.00     0.035 A 
HETATM   34  C   UNL     1      43.215 -17.955   2.679  1.00  0.00     0.075 A 
HETATM   35  C   UNL     1      44.025 -18.859   4.804  1.00  0.00     0.021 A 
HETATM   36  N   UNL     1      42.813 -16.800   2.024  1.00  0.00    -0.240 NA
HETATM   37  C   UNL     1      43.277 -19.246   2.117  1.00  0.00     0.033 A 
HETATM   38  C   UNL     1      43.709 -20.324   2.897  1.00  0.00     0.002 A 
HETATM   39  C   UNL     1      44.079 -20.130   4.223  1.00  0.00     0.002 A 
ENDBRANCH   5  31
TORSDOF 9
ENDMDL
MODEL 7
REMARK VINA RESULT:      -8.6      4.662      5.999
REMARK  9 active torsions:
REMARK  status: ('A' for Active; 'I' for Inactive)
REMARK    1  A    between atoms: N_2  and  C_4 
REMARK    2  A    between atoms: C_4  and  C_5 
REMARK    3  A    between atoms: C_6  and  O_7 
REMARK    4  A    between atoms: O_7  and  C_8 
REMARK    5  A    between atoms: C_8  and  C_9 
REMARK       I    between atoms: C_9  and  N_10 
REMARK    6  A    between atoms: N_10  and  C_11 
REMARK    7  A    between atoms: C_11  and  C_12 
REMARK    8  A    between atoms: C_12  and  C_13 
REMARK    9  A    between atoms: C_27  and  C_28 
ROOT
HETATM    1  C   UNL     1      40.833 -13.793   1.028  1.00  0.00     0.002 A 
HETATM    2  C   UNL     1      41.460 -12.613   1.456  1.00  0.00     0.077 A 
HETATM    3  C   UNL     1      42.531 -12.694   2.350  1.00  0.00     0.038 A 
HETATM    4  C   UNL     1      42.992 -13.936   2.805  1.00  0.00     0.017 A 
HETATM    5  C   UNL     1      42.395 -15.128   2.377  1.00  0.00     0.000 A 
HETATM    6  C   UNL     1      41.311 -15.035   1.488  1.00  0.00     0.026 A 
ENDROOT
BRANCH   2   7
HETATM    7  O   UNL     1      40.929 -11.440   0.977  1.00  0.00    -0.342 OA
BRANCH   7   8
HETATM    8  C   UNL     1      41.589 -10.246   1.407  1.00  0.00     0.278 C 
BRANCH   8   9
HETATM    9  C   UNL     1      40.758  -9.418   2.388  1.00  0.00     0.241 C 
HETATM   10  N   UNL     1      41.477  -8.621   3.250  1.00  0.00    -0.359 N 
HETATM   11  H   UNL     1      42.444  -8.860   3.420  1.00  0.00     0.162 HD
HETATM   12  O   UNL     1      39.530  -9.445   2.370  1.00  0.00    -0.271 OA
BRANCH  10  13
HETATM   13  C   UNL     1      40.807  -7.805   4.249  1.00  0.00     0.130 C 
BRANCH  13  14
HETATM   14  C   UNL     1      41.201  -8.181   5.677  1.00  0.00     0.098 C 
BRANCH  14  15
HETATM   15  C   UNL     1      41.235  -9.663   5.895  1.00  0.00     0.106 A 
HETATM   16  N   UNL     1      40.251 -10.537   5.768  1.00  0.00    -0.233 NA
HETATM   17  C   UNL     1      40.832 -11.770   5.980  1.00  0.00     0.087 A 
HETATM   18  C   UNL     1      42.181 -11.640   6.289  1.00  0.00     0.062 A 
HETATM   19  C   UNL     1      40.271 -13.053   5.916  1.00  0.00     0.057 A 
HETATM   20  N   UNL     1      42.407 -10.290   6.250  1.00  0.00    -0.343 N 
HETATM   21  C   UNL     1      43.024 -12.723   6.548  1.00  0.00     0.034 A 
HETATM   22  H   UNL     1      43.296  -9.835   6.412  1.00  0.00     0.167 HD
HETATM   23  C   UNL     1      42.447 -13.996   6.479  1.00  0.00     0.026 A 
HETATM   24  C   UNL     1      41.097 -14.153   6.168  1.00  0.00     0.036 A 
HETATM   25 CL   UNL     1      40.421 -15.736   6.087  1.00  0.00    -0.084 Cl
ENDBRANCH  14  15
ENDBRANCH  13  14
ENDBRANCH  10  13
ENDBRANCH   8   9
ENDBRANCH   7   8
ENDBRANCH   2   7
BRANCH   1  26
HETATM   26  C   UNL     1      39.635 -13.750   0.116  1.00  0.00     0.275 C 
BRANCH  26  27
HETATM   27  N   UNL     1      39.895 -12.957  -1.146  1.00  0.00    -0.075 N 
HETATM   28  C   UNL     1      38.718 -12.131  -1.578  1.00  0.00     0.269 C 
HETATM   29  H   UNL     1      40.654 -12.305  -0.906  1.00  0.00     0.279 HD
HETATM   30  C   UNL     1      40.404 -13.828  -2.251  1.00  0.00     0.269 C 
ENDBRANCH  26  27
ENDBRANCH   1  26
BRANCH   5  31
HETATM   31  C   UNL     1      42.821 -16.464   2.836  1.00  0.00     0.109 A 
HETATM   32  S   UNL     1      43.423 -16.730   4.424  1.00  0.00    -0.068 SA
HETATM   33  C   UNL     1      43.673 -18.392   4.067  1.00  0.00     0.035 A 
HETATM   34  C   UNL     1      43.280 -18.635   2.751  1.00  0.00     0.075 A 
HETATM   35  C   UNL     1      44.180 -19.409   4.891  1.00  0.00     0.021 A 
HETATM   36  N   UNL     1      42.805 -17.530   2.060  1.00  0.00    -0.240 NA
HETATM   37  C   UNL     1      43.397 -19.943   2.239  1.00  0.00     0.033 A 
HETATM   38  C   UNL     1      43.901 -20.965   3.051  1.00  0.00     0.002 A 
HETATM   39  C   UNL     1      44.288 -20.699   4.361  1.00  0.00     0.002 A 
ENDBRANCH   5  31
TORSDOF 9
ENDMDL
MODEL 8
REMARK VINA RESULT:      -8.4      2.141      2.521
REMARK  9 active torsions:
REMARK  status: ('A' for Active; 'I' for Inactive)
REMARK    1  A    between atoms: N_2  and  C_4 
REMARK    2  A    between atoms: C_4  and  C_5 
REMARK    3  A    between atoms: C_6  and  O_7 
REMARK    4  A    between atoms: O_7  and  C_8 
REMARK    5  A    between atoms: C_8  and  C_9 
REMARK       I    between atoms: C_9  and  N_10 
REMARK    6  A    between atoms: N_10  and  C_11 
REMARK    7  A    between atoms: C_11  and  C_12 
REMARK    8  A    between atoms: C_12  and  C_13 
REMARK    9  A    between atoms: C_27  and  C_28 
ROOT
HETATM    1  C   UNL     1      42.627 -12.894   5.035  1.00  0.00     0.002 A 
HETATM    2  C   UNL     1      43.016 -12.575   6.345  1.00  0.00     0.077 A 
HETATM    3  C   UNL     1      43.532 -13.579   7.168  1.00  0.00     0.038 A 
HETATM    4  C   UNL     1      43.680 -14.889   6.693  1.00  0.00     0.017 A 
HETATM    5  C   UNL     1      43.317 -15.228   5.385  1.00  0.00     0.000 A 
HETATM    6  C   UNL     1      42.786 -14.214   4.569  1.00  0.00     0.026 A 
ENDROOT
BRANCH   2   7
HETATM    7  O   UNL     1      42.817 -11.272   6.732  1.00  0.00    -0.342 OA
BRANCH   7   8
HETATM    8  C   UNL     1      44.001 -10.538   7.054  1.00  0.00     0.278 C 
BRANCH   8   9
HETATM    9  C   UNL     1      44.420 -10.681   8.518  1.00  0.00     0.241 C 
HETATM   10  N   UNL     1      43.404 -10.558   9.440  1.00  0.00    -0.359 N 
HETATM   11  H   UNL     1      42.564 -10.074   9.156  1.00  0.00     0.162 HD
HETATM   12  O   UNL     1      45.581 -10.925   8.832  1.00  0.00    -0.271 OA
BRANCH  10  13
HETATM   13  C   UNL     1      43.673 -10.648  10.866  1.00  0.00     0.130 C 
BRANCH  13  14
HETATM   14  C   UNL     1      43.136  -9.446  11.642  1.00  0.00     0.098 C 
BRANCH  14  15
HETATM   15  C   UNL     1      42.207  -8.600  10.827  1.00  0.00     0.106 A 
HETATM   16  N   UNL     1      42.508  -7.700   9.905  1.00  0.00    -0.233 NA
HETATM   17  C   UNL     1      41.296  -7.289   9.391  1.00  0.00     0.087 A 
HETATM   18  C   UNL     1      40.239  -7.913  10.044  1.00  0.00     0.062 A 
HETATM   19  C   UNL     1      41.017  -6.389   8.353  1.00  0.00     0.057 A 
HETATM   20  N   UNL     1      40.844  -8.724  10.966  1.00  0.00    -0.343 N 
HETATM   21  C   UNL     1      38.896  -7.693   9.729  1.00  0.00     0.034 A 
HETATM   22  H   UNL     1      40.369  -9.343  11.610  1.00  0.00     0.167 HD
HETATM   23  C   UNL     1      38.636  -6.792   8.691  1.00  0.00     0.026 A 
HETATM   24  C   UNL     1      39.679  -6.154   8.019  1.00  0.00     0.036 A 
HETATM   25 CL   UNL     1      39.322  -5.054   6.742  1.00  0.00    -0.084 Cl
ENDBRANCH  14  15
ENDBRANCH  13  14
ENDBRANCH  10  13
ENDBRANCH   8   9
ENDBRANCH   7   8
ENDBRANCH   2   7
BRANCH   1  26
HETATM   26  C   UNL     1      42.006 -11.859   4.134  1.00  0.00     0.275 C 
BRANCH  26  27
HETATM   27  N   UNL     1      40.621 -11.452   4.586  1.00  0.00    -0.075 N 
HETATM   28  C   UNL     1      39.547 -12.390   4.119  1.00  0.00     0.269 C 
HETATM   29  H   UNL     1      40.645 -11.502   5.614  1.00  0.00     0.279 HD
HETATM   30  C   UNL     1      40.319 -10.030   4.229  1.00  0.00     0.269 C 
ENDBRANCH  26  27
ENDBRANCH   1  26
BRANCH   5  31
HETATM   31  C   UNL     1      43.428 -16.592   4.835  1.00  0.00     0.109 A 
HETATM   32  S   UNL     1      43.957 -17.918   5.794  1.00  0.00    -0.068 SA
HETATM   33  C   UNL     1      43.821 -18.969   4.441  1.00  0.00     0.035 A 
HETATM   34  C   UNL     1      43.380 -18.235   3.341  1.00  0.00     0.075 A 
HETATM   35  C   UNL     1      44.084 -20.346   4.359  1.00  0.00     0.021 A 
HETATM   36  N   UNL     1      43.168 -16.884   3.576  1.00  0.00    -0.240 NA
HETATM   37  C   UNL     1      43.195 -18.899   2.112  1.00  0.00     0.033 A 
HETATM   38  C   UNL     1      43.454 -20.270   2.018  1.00  0.00     0.002 A 
HETATM   39  C   UNL     1      43.895 -20.983   3.129  1.00  0.00     0.002 A 
ENDBRANCH   5  31
TORSDOF 9
ENDMDL
MODEL 9
REMARK VINA RESULT:      -8.3      1.845      2.263
REMARK  9 active torsions:
REMARK  status: ('A' for Active; 'I' for Inactive)
REMARK    1  A    between atoms: N_2  and  C_4 
REMARK    2  A    between atoms: C_4  and  C_5 
REMARK    3  A    between atoms: C_6  and  O_7 
REMARK    4  A    between atoms: O_7  and  C_8 
REMARK    5  A    between atoms: C_8  and  C_9 
REMARK       I    between atoms: C_9  and  N_10 
REMARK    6  A    between atoms: N_10  and  C_11 
REMARK    7  A    between atoms: C_11  and  C_12 
REMARK    8  A    between atoms: C_12  and  C_13 
REMARK    9  A    between atoms: C_27  and  C_28 
ROOT
HETATM    1  C   UNL     1      41.538 -12.820   3.877  1.00  0.00     0.002 A 
HETATM    2  C   UNL     1      40.701 -12.556   4.972  1.00  0.00     0.077 A 
HETATM    3  C   UNL     1      40.400 -13.585   5.867  1.00  0.00     0.038 A 
HETATM    4  C   UNL     1      40.938 -14.867   5.691  1.00  0.00     0.017 A 
HETATM    5  C   UNL     1      41.790 -15.151   4.617  1.00  0.00     0.000 A 
HETATM    6  C   UNL     1      42.076 -14.111   3.716  1.00  0.00     0.026 A 
ENDROOT
BRANCH   2   7
HETATM    7  O   UNL     1      40.202 -11.278   5.055  1.00  0.00    -0.342 OA
BRANCH   7   8
HETATM    8  C   UNL     1      40.208 -10.699   6.363  1.00  0.00     0.278 C 
BRANCH   8   9
HETATM    9  C   UNL     1      41.486  -9.920   6.672  1.00  0.00     0.241 C 
HETATM   10  N   UNL     1      42.273 -10.443   7.674  1.00  0.00    -0.359 N 
HETATM   11  H   UNL     1      41.838 -11.064   8.341  1.00  0.00     0.162 HD
HETATM   12  O   UNL     1      41.796  -8.917   6.034  1.00  0.00    -0.271 OA
BRANCH  10  13
HETATM   13  C   UNL     1      43.502  -9.782   8.081  1.00  0.00     0.130 C 
BRANCH  13  14
HETATM   14  C   UNL     1      44.159 -10.453   9.287  1.00  0.00     0.098 C 
BRANCH  14  15
HETATM   15  C   UNL     1      43.656  -9.918  10.591  1.00  0.00     0.106 A 
HETATM   16  N   UNL     1      44.132  -8.914  11.309  1.00  0.00    -0.233 NA
HETATM   17  C   UNL     1      43.249  -8.767  12.358  1.00  0.00     0.087 A 
HETATM   18  C   UNL     1      42.246  -9.728  12.304  1.00  0.00     0.062 A 
HETATM   19  C   UNL     1      43.232  -7.825  13.396  1.00  0.00     0.057 A 
HETATM   20  N   UNL     1      42.540 -10.460  11.186  1.00  0.00    -0.343 N 
HETATM   21  C   UNL     1      41.209  -9.818  13.236  1.00  0.00     0.034 A 
HETATM   22  H   UNL     1      42.001 -11.240  10.832  1.00  0.00     0.167 HD
HETATM   23  C   UNL     1      41.208  -8.870  14.265  1.00  0.00     0.026 A 
HETATM   24  C   UNL     1      42.202  -7.893  14.339  1.00  0.00     0.036 A 
HETATM   25 CL   UNL     1      42.166  -6.738  15.616  1.00  0.00    -0.084 Cl
ENDBRANCH  14  15
ENDBRANCH  13  14
ENDBRANCH  10  13
ENDBRANCH   8   9
ENDBRANCH   7   8
ENDBRANCH   2   7
BRANCH   1  26
HETATM   26  C   UNL     1      41.836 -11.757   2.853  1.00  0.00     0.275 C 
BRANCH  26  27
HETATM   27  N   UNL     1      40.596 -11.286   2.126  1.00  0.00    -0.075 N 
HETATM   28  C   UNL     1      40.062 -12.296   1.153  1.00  0.00     0.269 C 
HETATM   29  H   UNL     1      39.883 -11.160   2.858  1.00  0.00     0.279 HD
HETATM   30  C   UNL     1      40.804  -9.948   1.489  1.00  0.00     0.269 C 
ENDBRANCH  26  27
ENDBRANCH   1  26
BRANCH   5  31
HETATM   31  C   UNL     1      42.370 -16.484   4.367  1.00  0.00     0.109 A 
HETATM   32  S   UNL     1      43.169 -17.374   5.602  1.00  0.00    -0.068 SA
HETATM   33  C   UNL     1      43.507 -18.640   4.491  1.00  0.00     0.035 A 
HETATM   34  C   UNL     1      42.987 -18.298   3.243  1.00  0.00     0.075 A 
HETATM   35  C   UNL     1      44.184 -19.851   4.707  1.00  0.00     0.021 A 
HETATM   36  N   UNL     1      42.349 -17.067   3.184  1.00  0.00    -0.240 NA
HETATM   37  C   UNL     1      43.147 -19.198   2.171  1.00  0.00     0.033 A 
HETATM   38  C   UNL     1      43.819 -20.408   2.374  1.00  0.00     0.002 A 
HETATM   39  C   UNL     1      44.331 -20.728   3.627  1.00  0.00     0.002 A 
ENDBRANCH   5  31
TORSDOF 9
ENDMDL
MODEL 10
REMARK VINA RESULT:      -8.2      2.718      3.717
REMARK  9 active torsions:
REMARK  status: ('A' for Active; 'I' for Inactive)
REMARK    1  A    between atoms: N_2  and  C_4 
REMARK    2  A    between atoms: C_4  and  C_5 
REMARK    3  A    between atoms: C_6  and  O_7 
REMARK    4  A    between atoms: O_7  and  C_8 
REMARK    5  A    between atoms: C_8  and  C_9 
REMARK       I    between atoms: C_9  and  N_10 
REMARK    6  A    between atoms: N_10  and  C_11 
REMARK    7  A    between atoms: C_11  and  C_12 
REMARK    8  A    between atoms: C_12  and  C_13 
REMARK    9  A    between atoms: C_27  and  C_28 
ROOT
HETATM    1  C   UNL     1      42.881 -12.512   4.921  1.00  0.00     0.002 A 
HETATM    2  C   UNL     1      43.237 -12.289   6.260  1.00  0.00     0.077 A 
HETATM    3  C   UNL     1      43.662 -13.366   7.043  1.00  0.00     0.038 A 
HETATM    4  C   UNL     1      43.751 -14.654   6.500  1.00  0.00     0.017 A 
HETATM    5  C   UNL     1      43.419 -14.898   5.162  1.00  0.00     0.000 A 
HETATM    6  C   UNL     1      42.981 -13.811   4.387  1.00  0.00     0.026 A 
ENDROOT
BRANCH   2   7
HETATM    7  O   UNL     1      43.099 -11.000   6.714  1.00  0.00    -0.342 OA
BRANCH   7   8
HETATM    8  C   UNL     1      44.217 -10.480   7.439  1.00  0.00     0.278 C 
BRANCH   8   9
HETATM    9  C   UNL     1      43.889 -10.144   8.894  1.00  0.00     0.241 C 
HETATM   10  N   UNL     1      43.425  -8.867   9.118  1.00  0.00    -0.359 N 
HETATM   11  H   UNL     1      43.636  -8.160   8.428  1.00  0.00     0.162 HD
HETATM   12  O   UNL     1      44.000 -10.980   9.787  1.00  0.00    -0.271 OA
BRANCH  10  13
HETATM   13  C   UNL     1      43.101  -8.413  10.461  1.00  0.00     0.130 C 
BRANCH  13  14
HETATM   14  C   UNL     1      41.596  -8.389  10.726  1.00  0.00     0.098 C 
BRANCH  14  15
HETATM   15  C   UNL     1      40.787  -8.621   9.487  1.00  0.00     0.106 A 
HETATM   16  N   UNL     1      40.513  -7.773   8.511  1.00  0.00    -0.233 NA
HETATM   17  C   UNL     1      39.829  -8.512   7.568  1.00  0.00     0.087 A 
HETATM   18  C   UNL     1      39.643  -9.820   8.000  1.00  0.00     0.062 A 
HETATM   19  C   UNL     1      39.341  -8.136   6.309  1.00  0.00     0.057 A 
HETATM   20  N   UNL     1      40.241  -9.858   9.230  1.00  0.00    -0.343 N 
HETATM   21  C   UNL     1      38.985 -10.797   7.248  1.00  0.00     0.034 A 
HETATM   22  H   UNL     1      40.309 -10.670   9.830  1.00  0.00     0.167 HD
HETATM   23  C   UNL     1      38.505 -10.405   5.994  1.00  0.00     0.026 A 
HETATM   24  C   UNL     1      38.682  -9.099   5.537  1.00  0.00     0.036 A 
HETATM   25 CL   UNL     1      38.083  -8.652   3.985  1.00  0.00    -0.084 Cl
ENDBRANCH  14  15
ENDBRANCH  13  14
ENDBRANCH  10  13
ENDBRANCH   8   9
ENDBRANCH   7   8
ENDBRANCH   2   7
BRANCH   1  26
HETATM   26  C   UNL     1      42.357 -11.393   4.060  1.00  0.00     0.275 C 
BRANCH  26  27
HETATM   27  N   UNL     1      41.559 -11.896   2.877  1.00  0.00    -0.075 N 
HETATM   28  C   UNL     1      41.783 -11.092   1.629  1.00  0.00     0.269 C 
HETATM   29  H   UNL     1      41.911 -12.846   2.696  1.00  0.00     0.279 HD
HETATM   30  C   UNL     1      40.105 -12.027   3.207  1.00  0.00     0.269 C 
ENDBRANCH  26  27
ENDBRANCH   1  26
BRANCH   5  31
HETATM   31  C   UNL     1      43.472 -16.235   4.539  1.00  0.00     0.109 A 
HETATM   32  S   UNL     1      42.985 -16.498   2.912  1.00  0.00    -0.068 SA
HETATM   33  C   UNL     1      43.323 -18.176   3.068  1.00  0.00     0.035 A 
HETATM   34  C   UNL     1      43.785 -18.426   4.359  1.00  0.00     0.075 A 
HETATM   35  C   UNL     1      43.187 -19.200   2.116  1.00  0.00     0.021 A 
HETATM   36  N   UNL     1      43.859 -17.315   5.188  1.00  0.00    -0.240 NA
HETATM   37  C   UNL     1      44.128 -19.746   4.713  1.00  0.00     0.033 A 
HETATM   38  C   UNL     1      43.998 -20.774   3.774  1.00  0.00     0.002 A 
HETATM   39  C   UNL     1      43.532 -20.502   2.491  1.00  0.00     0.002 A 
ENDBRANCH   5  31
TORSDOF 9
ENDMDL
