MODEL 1
REMARK VINA RESULT:      -8.6      0.000      0.000
REMARK  5 active torsions:
REMARK  status: ('A' for Active; 'I' for Inactive)
REMARK    1  A    between atoms: C_8  and  C_9 
REMARK    2  A    between atoms: C_9  and  N_10 
REMARK       I    between atoms: N_10  and  C_11 
REMARK       I    between atoms: C_11  and  N_12 
REMARK    3  A    between atoms: N_12  and  C_13 
REMARK    4  A    between atoms: C_15  and  N_16 
REMARK       I    between atoms: N_16  and  C_17 
REMARK    5  A    between atoms: C_17  and  C_18 
ROOT
HETATM    1  C   UNL     1      40.487 -13.048   3.108  1.00  0.00     0.038 A 
HETATM    2  C   UNL     1      40.850 -14.392   3.146  1.00  0.00     0.059 A 
HETATM    3  C   UNL     1      42.166 -14.790   3.405  1.00  0.00     0.036 A 
HETATM    4  C   UNL     1      43.163 -13.827   3.528  1.00  0.00     0.029 A 
HETATM    5  C   UNL     1      42.823 -12.475   3.463  1.00  0.00     0.004 A 
HETATM    6  C   UNL     1      41.493 -12.088   3.264  1.00  0.00     0.029 A 
ENDROOT
BRANCH   1   7
HETATM    7  N   UNL     1      39.177 -12.593   2.853  1.00  0.00    -0.309 N 
HETATM    8  C   UNL     1      38.540 -12.239   1.699  1.00  0.00     0.320 C 
HETATM    9  N   UNL     1      39.051 -12.692   0.530  1.00  0.00    -0.338 N 
HETATM   10  O   UNL     1      37.538 -11.532   1.765  1.00  0.00    -0.247 OA
HETATM   11  H   UNL     1      39.597 -13.542   0.543  1.00  0.00     0.164 HD
HETATM   12  H   UNL     1      38.620 -12.352   3.664  1.00  0.00     0.170 HD
BRANCH   9  13
HETATM   13  C   UNL     1      38.675 -12.170  -0.761  1.00  0.00     0.167 C 
BRANCH  13  14
HETATM   14  C   UNL     1      39.740 -12.552  -1.737  1.00  0.00     0.009 A 
HETATM   15  C   UNL     1      40.887 -11.847  -2.064  1.00  0.00     0.034 A 
HETATM   16  C   UNL     1      41.426 -10.556  -1.575  1.00  0.00     0.070 C 
HETATM   17  N   UNL     1      41.542 -12.602  -2.995  1.00  0.00    -0.282 N 
HETATM   18  H   UNL     1      42.419 -12.395  -3.461  1.00  0.00     0.189 HD
HETATM   19  N   UNL     1      40.919 -13.746  -3.299  1.00  0.00    -0.179 NA
HETATM   20  C   UNL     1      39.817 -13.728  -2.539  1.00  0.00     0.060 A 
HETATM   21  C   UNL     1      38.859 -14.861  -2.601  1.00  0.00     0.073 C 
ENDBRANCH  13  14
ENDBRANCH   9  13
ENDBRANCH   1   7
BRANCH   3  22
HETATM   22  N   UNL     1      42.494 -16.159   3.476  1.00  0.00    -0.327 N 
HETATM   23  C   UNL     1      43.148 -16.837   2.456  1.00  0.00     0.226 C 
HETATM   24  O   UNL     1      43.259 -16.414   1.306  1.00  0.00    -0.273 OA
HETATM   25  H   UNL     1      42.033 -16.710   4.187  1.00  0.00     0.169 HD
BRANCH  23  26
HETATM   26  C   UNL     1      43.836 -18.128   2.879  1.00  0.00     0.078 C 
HETATM   27  C   UNL     1      43.769 -18.525   4.347  1.00  0.00     0.014 C 
HETATM   28  C   UNL     1      44.216 -19.978   4.321  1.00  0.00     0.001 C 
HETATM   29  C   UNL     1      43.621 -20.549   3.037  1.00  0.00     0.001 C 
HETATM   30  C   UNL     1      43.238 -19.347   2.174  1.00  0.00     0.014 C 
ENDBRANCH  23  26
ENDBRANCH   3  22
TORSDOF 5
ENDMDL
MODEL 2
REMARK VINA RESULT:      -8.3      2.954      5.324
REMARK  5 active torsions:
REMARK  status: ('A' for Active; 'I' for Inactive)
REMARK    1  A    between atoms: C_8  and  C_9 
REMARK    2  A    between atoms: C_9  and  N_10 
REMARK       I    between atoms: N_10  and  C_11 
REMARK       I    between atoms: C_11  and  N_12 
REMARK    3  A    between atoms: N_12  and  C_13 
REMARK    4  A    between atoms: C_15  and  N_16 
REMARK       I    between atoms: N_16  and  C_17 
REMARK    5  A    between atoms: C_17  and  C_18 
ROOT
HETATM    1  C   UNL     1      39.875 -13.805   3.320  1.00  0.00     0.038 A 
HETATM    2  C   UNL     1      40.578 -15.007   3.371  1.00  0.00     0.059 A 
HETATM    3  C   UNL     1      41.027 -15.645   2.210  1.00  0.00     0.036 A 
HETATM    4  C   UNL     1      40.681 -15.128   0.965  1.00  0.00     0.029 A 
HETATM    5  C   UNL     1      39.951 -13.940   0.893  1.00  0.00     0.004 A 
HETATM    6  C   UNL     1      39.559 -13.279   2.063  1.00  0.00     0.029 A 
ENDROOT
BRANCH   1   7
HETATM    7  N   UNL     1      39.401 -13.121   4.459  1.00  0.00    -0.309 N 
HETATM    8  C   UNL     1      40.046 -12.453   5.458  1.00  0.00     0.320 C 
HETATM    9  N   UNL     1      41.310 -12.030   5.223  1.00  0.00    -0.338 N 
HETATM   10  O   UNL     1      39.460 -12.262   6.521  1.00  0.00    -0.247 OA
HETATM   11  H   UNL     1      41.589 -11.861   4.267  1.00  0.00     0.164 HD
HETATM   12  H   UNL     1      38.418 -13.235   4.673  1.00  0.00     0.170 HD
BRANCH   9  13
HETATM   13  C   UNL     1      42.208 -11.584   6.261  1.00  0.00     0.167 C 
BRANCH  13  14
HETATM   14  C   UNL     1      43.573 -11.467   5.664  1.00  0.00     0.009 A 
HETATM   15  C   UNL     1      44.778 -11.286   6.325  1.00  0.00     0.034 A 
HETATM   16  C   UNL     1      45.107 -11.170   7.765  1.00  0.00     0.070 C 
HETATM   17  N   UNL     1      45.739 -11.245   5.356  1.00  0.00    -0.282 N 
HETATM   18  H   UNL     1      46.739 -11.122   5.473  1.00  0.00     0.189 HD
HETATM   19  N   UNL     1      45.260 -11.389   4.114  1.00  0.00    -0.179 NA
HETATM   20  C   UNL     1      43.940 -11.524   4.288  1.00  0.00     0.060 A 
HETATM   21  C   UNL     1      43.056 -11.715   3.111  1.00  0.00     0.073 C 
ENDBRANCH  13  14
ENDBRANCH   9  13
ENDBRANCH   1   7
BRANCH   3  22
HETATM   22  N   UNL     1      41.770 -16.840   2.296  1.00  0.00    -0.327 N 
HETATM   23  C   UNL     1      43.146 -16.892   2.119  1.00  0.00     0.226 C 
HETATM   24  O   UNL     1      43.811 -15.992   1.609  1.00  0.00    -0.273 OA
HETATM   25  H   UNL     1      41.256 -17.709   2.252  1.00  0.00     0.169 HD
BRANCH  23  26
HETATM   26  C   UNL     1      43.824 -18.121   2.709  1.00  0.00     0.078 C 
HETATM   27  C   UNL     1      43.753 -18.321   4.217  1.00  0.00     0.014 C 
HETATM   28  C   UNL     1      44.189 -19.768   4.383  1.00  0.00     0.001 C 
HETATM   29  C   UNL     1      43.591 -20.499   3.184  1.00  0.00     0.001 C 
HETATM   30  C   UNL     1      43.218 -19.418   2.170  1.00  0.00     0.014 C 
ENDBRANCH  23  26
ENDBRANCH   3  22
TORSDOF 5
ENDMDL
MODEL 3
REMARK VINA RESULT:      -8.2      6.159      9.396
REMARK  5 active torsions:
REMARK  status: ('A' for Active; 'I' for Inactive)
REMARK    1  A    between atoms: C_8  and  C_9 
REMARK    2  A    between atoms: C_9  and  N_10 
REMARK       I    between atoms: N_10  and  C_11 
REMARK       I    between atoms: C_11  and  N_12 
REMARK    3  A    between atoms: N_12  and  C_13 
REMARK    4  A    between atoms: C_15  and  N_16 
REMARK       I    between atoms: N_16  and  C_17 
REMARK    5  A    between atoms: C_17  and  C_18 
ROOT
HETATM    1  C   UNL     1      43.979 -11.234   5.915  1.00  0.00     0.038 A 
HETATM    2  C   UNL     1      43.227 -10.832   7.017  1.00  0.00     0.059 A 
HETATM    3  C   UNL     1      43.832 -10.447   8.218  1.00  0.00     0.036 A 
HETATM    4  C   UNL     1      45.211 -10.561   8.359  1.00  0.00     0.029 A 
HETATM    5  C   UNL     1      45.980 -10.990   7.276  1.00  0.00     0.004 A 
HETATM    6  C   UNL     1      45.369 -11.316   6.059  1.00  0.00     0.029 A 
ENDROOT
BRANCH   1   7
HETATM    7  N   UNL     1      43.421 -11.631   4.683  1.00  0.00    -0.309 N 
HETATM    8  C   UNL     1      42.717 -12.739   4.312  1.00  0.00     0.320 C 
HETATM    9  N   UNL     1      42.113 -13.459   5.286  1.00  0.00    -0.338 N 
HETATM   10  O   UNL     1      42.658 -13.037   3.122  1.00  0.00    -0.247 OA
HETATM   11  H   UNL     1      41.863 -12.990   6.145  1.00  0.00     0.164 HD
HETATM   12  H   UNL     1      43.679 -11.078   3.874  1.00  0.00     0.170 HD
BRANCH   9  13
HETATM   13  C   UNL     1      41.595 -14.792   5.089  1.00  0.00     0.167 C 
BRANCH  13  14
HETATM   14  C   UNL     1      42.714 -15.755   5.318  1.00  0.00     0.009 A 
HETATM   15  C   UNL     1      43.404 -16.499   4.373  1.00  0.00     0.034 A 
HETATM   16  C   UNL     1      43.285 -16.575   2.898  1.00  0.00     0.070 C 
HETATM   17  N   UNL     1      44.333 -17.222   5.065  1.00  0.00    -0.282 N 
HETATM   18  H   UNL     1      45.013 -17.878   4.698  1.00  0.00     0.189 HD
HETATM   19  N   UNL     1      44.310 -17.009   6.386  1.00  0.00    -0.179 NA
HETATM   20  C   UNL     1      43.326 -16.117   6.555  1.00  0.00     0.060 A 
HETATM   21  C   UNL     1      43.001 -15.624   7.917  1.00  0.00     0.073 C 
ENDBRANCH  13  14
ENDBRANCH   9  13
ENDBRANCH   1   7
BRANCH   3  22
HETATM   22  N   UNL     1      43.045 -10.007   9.302  1.00  0.00    -0.327 N 
HETATM   23  C   UNL     1      43.279 -10.393  10.615  1.00  0.00     0.226 C 
HETATM   24  O   UNL     1      43.989 -11.344  10.940  1.00  0.00    -0.273 OA
HETATM   25  H   UNL     1      42.150  -9.591   9.086  1.00  0.00     0.169 HD
BRANCH  23  26
HETATM   26  C   UNL     1      42.675  -9.479  11.672  1.00  0.00     0.078 C 
HETATM   27  C   UNL     1      42.326 -10.085  13.025  1.00  0.00     0.014 C 
HETATM   28  C   UNL     1      42.114  -8.857  13.896  1.00  0.00     0.001 C 
HETATM   29  C   UNL     1      43.157  -7.851  13.419  1.00  0.00     0.001 C 
HETATM   30  C   UNL     1      43.627  -8.342  12.050  1.00  0.00     0.014 C 
ENDBRANCH  23  26
ENDBRANCH   3  22
TORSDOF 5
ENDMDL
MODEL 4
REMARK VINA RESULT:      -8.2      2.062      2.924
REMARK  5 active torsions:
REMARK  status: ('A' for Active; 'I' for Inactive)
REMARK    1  A    between atoms: C_8  and  C_9 
REMARK    2  A    between atoms: C_9  and  N_10 
REMARK       I    between atoms: N_10  and  C_11 
REMARK       I    between atoms: C_11  and  N_12 
REMARK    3  A    between atoms: N_12  and  C_13 
REMARK    4  A    between atoms: C_15  and  N_16 
REMARK       I    between atoms: N_16  and  C_17 
REMARK    5  A    between atoms: C_17  and  C_18 
ROOT
HETATM    1  C   UNL     1      40.797 -13.669   5.004  1.00  0.00     0.038 A 
HETATM    2  C   UNL     1      41.547 -14.569   4.250  1.00  0.00     0.059 A 
HETATM    3  C   UNL     1      41.661 -15.915   4.612  1.00  0.00     0.036 A 
HETATM    4  C   UNL     1      41.099 -16.355   5.807  1.00  0.00     0.029 A 
HETATM    5  C   UNL     1      40.368 -15.461   6.592  1.00  0.00     0.004 A 
HETATM    6  C   UNL     1      40.211 -14.129   6.188  1.00  0.00     0.029 A 
ENDROOT
BRANCH   1   7
HETATM    7  N   UNL     1      40.650 -12.304   4.683  1.00  0.00    -0.309 N 
HETATM    8  C   UNL     1      40.033 -11.670   3.644  1.00  0.00     0.320 C 
HETATM    9  N   UNL     1      39.094 -12.357   2.952  1.00  0.00    -0.338 N 
HETATM   10  O   UNL     1      40.349 -10.513   3.381  1.00  0.00    -0.247 OA
HETATM   11  H   UNL     1      38.608 -13.109   3.420  1.00  0.00     0.164 HD
HETATM   12  H   UNL     1      41.197 -11.653   5.233  1.00  0.00     0.170 HD
BRANCH   9  13
HETATM   13  C   UNL     1      38.580 -11.936   1.670  1.00  0.00     0.167 C 
BRANCH  13  14
HETATM   14  C   UNL     1      39.613 -12.253   0.638  1.00  0.00     0.009 A 
HETATM   15  C   UNL     1      40.180 -13.485   0.352  1.00  0.00     0.034 A 
HETATM   16  C   UNL     1      39.956 -14.832   0.927  1.00  0.00     0.070 C 
HETATM   17  N   UNL     1      41.063 -13.268  -0.667  1.00  0.00    -0.282 N 
HETATM   18  H   UNL     1      41.659 -13.944  -1.131  1.00  0.00     0.189 HD
HETATM   19  N   UNL     1      41.116 -11.994  -1.074  1.00  0.00    -0.179 NA
HETATM   20  C   UNL     1      40.237 -11.364  -0.285  1.00  0.00     0.060 A 
HETATM   21  C   UNL     1      40.013  -9.905  -0.447  1.00  0.00     0.073 C 
ENDBRANCH  13  14
ENDBRANCH   9  13
ENDBRANCH   1   7
BRANCH   3  22
HETATM   22  N   UNL     1      42.394 -16.810   3.806  1.00  0.00    -0.327 N 
HETATM   23  C   UNL     1      43.630 -17.324   4.175  1.00  0.00     0.226 C 
HETATM   24  O   UNL     1      44.331 -16.861   5.074  1.00  0.00    -0.273 OA
HETATM   25  H   UNL     1      42.120 -16.892   2.837  1.00  0.00     0.169 HD
BRANCH  23  26
HETATM   26  C   UNL     1      44.038 -18.601   3.452  1.00  0.00     0.078 C 
HETATM   27  C   UNL     1      43.951 -19.914   4.219  1.00  0.00     0.014 C 
HETATM   28  C   UNL     1      44.067 -20.953   3.115  1.00  0.00     0.001 C 
HETATM   29  C   UNL     1      43.305 -20.359   1.934  1.00  0.00     0.001 C 
HETATM   30  C   UNL     1      43.156 -18.867   2.230  1.00  0.00     0.014 C 
ENDBRANCH  23  26
ENDBRANCH   3  22
TORSDOF 5
ENDMDL
MODEL 5
REMARK VINA RESULT:      -8.0      3.100      5.501
REMARK  5 active torsions:
REMARK  status: ('A' for Active; 'I' for Inactive)
REMARK    1  A    between atoms: C_8  and  C_9 
REMARK    2  A    between atoms: C_9  and  N_10 
REMARK       I    between atoms: N_10  and  C_11 
REMARK       I    between atoms: C_11  and  N_12 
REMARK    3  A    between atoms: N_12  and  C_13 
REMARK    4  A    between atoms: C_15  and  N_16 
REMARK       I    between atoms: N_16  and  C_17 
REMARK    5  A    between atoms: C_17  and  C_18 
ROOT
HETATM    1  C   UNL     1      39.877 -13.881   3.633  1.00  0.00     0.038 A 
HETATM    2  C   UNL     1      40.570 -15.089   3.645  1.00  0.00     0.059 A 
HETATM    3  C   UNL     1      41.011 -15.695   2.464  1.00  0.00     0.036 A 
HETATM    4  C   UNL     1      40.667 -15.137   1.236  1.00  0.00     0.029 A 
HETATM    5  C   UNL     1      39.947 -13.941   1.203  1.00  0.00     0.004 A 
HETATM    6  C   UNL     1      39.562 -13.313   2.393  1.00  0.00     0.029 A 
ENDROOT
BRANCH   1   7
HETATM    7  N   UNL     1      39.410 -13.228   4.793  1.00  0.00    -0.309 N 
HETATM    8  C   UNL     1      39.808 -12.084   5.421  1.00  0.00     0.320 C 
HETATM    9  N   UNL     1      40.521 -11.184   4.704  1.00  0.00    -0.338 N 
HETATM   10  O   UNL     1      39.505 -11.916   6.599  1.00  0.00    -0.247 OA
HETATM   11  H   UNL     1      40.409 -11.174   3.700  1.00  0.00     0.164 HD
HETATM   12  H   UNL     1      38.745 -13.741   5.359  1.00  0.00     0.170 HD
BRANCH   9  13
HETATM   13  C   UNL     1      41.252 -10.090   5.297  1.00  0.00     0.167 C 
BRANCH  13  14
HETATM   14  C   UNL     1      42.617 -10.588   5.644  1.00  0.00     0.009 A 
HETATM   15  C   UNL     1      43.503 -11.279   4.832  1.00  0.00     0.034 A 
HETATM   16  C   UNL     1      43.411 -11.718   3.420  1.00  0.00     0.070 C 
HETATM   17  N   UNL     1      44.613 -11.509   5.593  1.00  0.00    -0.282 N 
HETATM   18  H   UNL     1      45.464 -11.992   5.326  1.00  0.00     0.189 HD
HETATM   19  N   UNL     1      44.527 -11.021   6.837  1.00  0.00    -0.179 NA
HETATM   20  C   UNL     1      43.313 -10.458   6.882  1.00  0.00     0.060 A 
HETATM   21  C   UNL     1      42.854  -9.794   8.127  1.00  0.00     0.073 C 
ENDBRANCH  13  14
ENDBRANCH   9  13
ENDBRANCH   1   7
BRANCH   3  22
HETATM   22  N   UNL     1      41.745 -16.897   2.511  1.00  0.00    -0.327 N 
HETATM   23  C   UNL     1      43.094 -16.977   2.193  1.00  0.00     0.226 C 
HETATM   24  O   UNL     1      43.713 -16.103   1.586  1.00  0.00    -0.273 OA
HETATM   25  H   UNL     1      41.219 -17.759   2.550  1.00  0.00     0.169 HD
BRANCH  23  26
HETATM   26  C   UNL     1      43.816 -18.196   2.749  1.00  0.00     0.078 C 
HETATM   27  C   UNL     1      43.744 -18.446   4.250  1.00  0.00     0.014 C 
HETATM   28  C   UNL     1      44.234 -19.880   4.373  1.00  0.00     0.001 C 
HETATM   29  C   UNL     1      43.672 -20.595   3.148  1.00  0.00     0.001 C 
HETATM   30  C   UNL     1      43.263 -19.498   2.166  1.00  0.00     0.014 C 
ENDBRANCH  23  26
ENDBRANCH   3  22
TORSDOF 5
ENDMDL
MODEL 6
REMARK VINA RESULT:      -7.9      5.965      9.128
REMARK  5 active torsions:
REMARK  status: ('A' for Active; 'I' for Inactive)
REMARK    1  A    between atoms: C_8  and  C_9 
REMARK    2  A    between atoms: C_9  and  N_10 
REMARK       I    between atoms: N_10  and  C_11 
REMARK       I    between atoms: C_11  and  N_12 
REMARK    3  A    between atoms: N_12  and  C_13 
REMARK    4  A    between atoms: C_15  and  N_16 
REMARK       I    between atoms: N_16  and  C_17 
REMARK    5  A    between atoms: C_17  and  C_18 
ROOT
HETATM    1  C   UNL     1      44.079 -11.424   6.421  1.00  0.00     0.038 A 
HETATM    2  C   UNL     1      43.881 -12.774   6.140  1.00  0.00     0.059 A 
HETATM    3  C   UNL     1      42.621 -13.276   5.800  1.00  0.00     0.036 A 
HETATM    4  C   UNL     1      41.513 -12.435   5.840  1.00  0.00     0.029 A 
HETATM    5  C   UNL     1      41.687 -11.085   6.149  1.00  0.00     0.004 A 
HETATM    6  C   UNL     1      42.962 -10.581   6.429  1.00  0.00     0.029 A 
ENDROOT
BRANCH   1   7
HETATM    7  N   UNL     1      45.327 -10.866   6.768  1.00  0.00    -0.309 N 
HETATM    8  C   UNL     1      45.773 -10.258   7.905  1.00  0.00     0.320 C 
HETATM    9  N   UNL     1      45.096 -10.490   9.054  1.00  0.00    -0.338 N 
HETATM   10  O   UNL     1      46.762  -9.533   7.843  1.00  0.00    -0.247 OA
HETATM   11  H   UNL     1      44.571 -11.350   9.135  1.00  0.00     0.164 HD
HETATM   12  H   UNL     1      45.998 -10.767   6.016  1.00  0.00     0.170 HD
BRANCH   9  13
HETATM   13  C   UNL     1      45.260  -9.702  10.251  1.00  0.00     0.167 C 
BRANCH  13  14
HETATM   14  C   UNL     1      43.926  -9.138  10.614  1.00  0.00     0.009 A 
HETATM   15  C   UNL     1      43.033  -9.607  11.565  1.00  0.00     0.034 A 
HETATM   16  C   UNL     1      43.102 -10.751  12.504  1.00  0.00     0.070 C 
HETATM   17  N   UNL     1      41.964  -8.759  11.532  1.00  0.00    -0.282 N 
HETATM   18  H   UNL     1      41.119  -8.797  12.091  1.00  0.00     0.189 HD
HETATM   19  N   UNL     1      42.086  -7.770  10.638  1.00  0.00    -0.179 NA
HETATM   20  C   UNL     1      43.278  -7.990  10.070  1.00  0.00     0.060 A 
HETATM   21  C   UNL     1      43.771  -7.075   9.011  1.00  0.00     0.073 C 
ENDBRANCH  13  14
ENDBRANCH   9  13
ENDBRANCH   1   7
BRANCH   3  22
HETATM   22  N   UNL     1      42.461 -14.640   5.482  1.00  0.00    -0.327 N 
HETATM   23  C   UNL     1      42.529 -15.130   4.185  1.00  0.00     0.226 C 
HETATM   24  O   UNL     1      42.458 -14.428   3.176  1.00  0.00    -0.273 OA
HETATM   25  H   UNL     1      42.053 -15.236   6.189  1.00  0.00     0.169 HD
BRANCH  23  26
HETATM   26  C   UNL     1      42.815 -16.621   4.074  1.00  0.00     0.078 C 
HETATM   27  C   UNL     1      43.266 -17.163   2.724  1.00  0.00     0.014 C 
HETATM   28  C   UNL     1      43.794 -18.544   3.079  1.00  0.00     0.001 C 
HETATM   29  C   UNL     1      44.472 -18.371   4.435  1.00  0.00     0.001 C 
HETATM   30  C   UNL     1      43.952 -17.051   5.004  1.00  0.00     0.014 C 
ENDBRANCH  23  26
ENDBRANCH   3  22
TORSDOF 5
ENDMDL
MODEL 7
REMARK VINA RESULT:      -7.9      6.367      9.359
REMARK  5 active torsions:
REMARK  status: ('A' for Active; 'I' for Inactive)
REMARK    1  A    between atoms: C_8  and  C_9 
REMARK    2  A    between atoms: C_9  and  N_10 
REMARK       I    between atoms: N_10  and  C_11 
REMARK       I    between atoms: C_11  and  N_12 
REMARK    3  A    between atoms: N_12  and  C_13 
REMARK    4  A    between atoms: C_15  and  N_16 
REMARK       I    between atoms: N_16  and  C_17 
REMARK    5  A    between atoms: C_17  and  C_18 
ROOT
HETATM    1  C   UNL     1      43.835 -11.468   7.364  1.00  0.00     0.038 A 
HETATM    2  C   UNL     1      43.771 -12.806   6.981  1.00  0.00     0.059 A 
HETATM    3  C   UNL     1      43.269 -13.190   5.734  1.00  0.00     0.036 A 
HETATM    4  C   UNL     1      42.726 -12.229   4.887  1.00  0.00     0.029 A 
HETATM    5  C   UNL     1      42.754 -10.885   5.265  1.00  0.00     0.004 A 
HETATM    6  C   UNL     1      43.313 -10.507   6.491  1.00  0.00     0.029 A 
ENDROOT
BRANCH   1   7
HETATM    7  N   UNL     1      44.332 -11.027   8.608  1.00  0.00    -0.309 N 
HETATM    8  C   UNL     1      43.818 -10.187   9.552  1.00  0.00     0.320 C 
HETATM    9  N   UNL     1      42.482  -9.968   9.544  1.00  0.00    -0.338 N 
HETATM   10  O   UNL     1      44.578  -9.669  10.365  1.00  0.00    -0.247 OA
HETATM   11  H   UNL     1      41.882 -10.677   9.146  1.00  0.00     0.164 HD
HETATM   12  H   UNL     1      45.297 -11.255   8.812  1.00  0.00     0.170 HD
BRANCH   9  13
HETATM   13  C   UNL     1      41.844  -8.898  10.272  1.00  0.00     0.167 C 
BRANCH  13  14
HETATM   14  C   UNL     1      40.902  -9.512  11.256  1.00  0.00     0.009 A 
HETATM   15  C   UNL     1      39.638 -10.027  11.016  1.00  0.00     0.034 A 
HETATM   16  C   UNL     1      38.842 -10.153   9.772  1.00  0.00     0.070 C 
HETATM   17  N   UNL     1      39.177 -10.476  12.221  1.00  0.00    -0.282 N 
HETATM   18  H   UNL     1      38.285 -10.913  12.424  1.00  0.00     0.189 HD
HETATM   19  N   UNL     1      40.040 -10.301  13.228  1.00  0.00    -0.179 NA
HETATM   20  C   UNL     1      41.096  -9.712  12.654  1.00  0.00     0.060 A 
HETATM   21  C   UNL     1      42.282  -9.360  13.474  1.00  0.00     0.073 C 
ENDBRANCH  13  14
ENDBRANCH   9  13
ENDBRANCH   1   7
BRANCH   3  22
HETATM   22  N   UNL     1      43.254 -14.550   5.360  1.00  0.00    -0.327 N 
HETATM   23  C   UNL     1      42.090 -15.301   5.277  1.00  0.00     0.226 C 
HETATM   24  O   UNL     1      41.014 -14.965   5.772  1.00  0.00    -0.273 OA
HETATM   25  H   UNL     1      44.134 -15.046   5.383  1.00  0.00     0.169 HD
BRANCH  23  26
HETATM   26  C   UNL     1      42.192 -16.555   4.420  1.00  0.00     0.078 C 
HETATM   27  C   UNL     1      41.971 -16.413   2.920  1.00  0.00     0.014 C 
HETATM   28  C   UNL     1      42.501 -17.732   2.379  1.00  0.00     0.001 C 
HETATM   29  C   UNL     1      43.711 -18.057   3.249  1.00  0.00     0.001 C 
HETATM   30  C   UNL     1      43.586 -17.182   4.495  1.00  0.00     0.014 C 
ENDBRANCH  23  26
ENDBRANCH   3  22
TORSDOF 5
ENDMDL
MODEL 8
REMARK VINA RESULT:      -7.8      2.152      2.799
REMARK  5 active torsions:
REMARK  status: ('A' for Active; 'I' for Inactive)
REMARK    1  A    between atoms: C_8  and  C_9 
REMARK    2  A    between atoms: C_9  and  N_10 
REMARK       I    between atoms: N_10  and  C_11 
REMARK       I    between atoms: C_11  and  N_12 
REMARK    3  A    between atoms: N_12  and  C_13 
REMARK    4  A    between atoms: C_15  and  N_16 
REMARK       I    between atoms: N_16  and  C_17 
REMARK    5  A    between atoms: C_17  and  C_18 
ROOT
HETATM    1  C   UNL     1      41.299 -11.421   3.069  1.00  0.00     0.038 A 
HETATM    2  C   UNL     1      42.042 -12.586   3.248  1.00  0.00     0.059 A 
HETATM    3  C   UNL     1      41.694 -13.540   4.209  1.00  0.00     0.036 A 
HETATM    4  C   UNL     1      40.642 -13.282   5.083  1.00  0.00     0.029 A 
HETATM    5  C   UNL     1      39.903 -12.106   4.940  1.00  0.00     0.004 A 
HETATM    6  C   UNL     1      40.224 -11.186   3.934  1.00  0.00     0.029 A 
ENDROOT
BRANCH   1   7
HETATM    7  N   UNL     1      41.605 -10.430   2.115  1.00  0.00    -0.309 N 
HETATM    8  C   UNL     1      41.537 -10.419   0.752  1.00  0.00     0.320 C 
HETATM    9  N   UNL     1      40.735 -11.330   0.152  1.00  0.00    -0.338 N 
HETATM   10  O   UNL     1      42.197  -9.591   0.130  1.00  0.00    -0.247 OA
HETATM   11  H   UNL     1      39.954 -11.700   0.675  1.00  0.00     0.164 HD
HETATM   12  H   UNL     1      42.087  -9.608   2.461  1.00  0.00     0.170 HD
BRANCH   9  13
HETATM   13  C   UNL     1      40.787 -11.633  -1.258  1.00  0.00     0.167 C 
BRANCH  13  14
HETATM   14  C   UNL     1      39.504 -12.302  -1.629  1.00  0.00     0.009 A 
HETATM   15  C   UNL     1      39.099 -13.593  -1.327  1.00  0.00     0.034 A 
HETATM   16  C   UNL     1      39.755 -14.681  -0.565  1.00  0.00     0.070 C 
HETATM   17  N   UNL     1      37.857 -13.738  -1.876  1.00  0.00    -0.282 N 
HETATM   18  H   UNL     1      37.257 -14.555  -1.855  1.00  0.00     0.189 HD
HETATM   19  N   UNL     1      37.414 -12.644  -2.508  1.00  0.00    -0.179 NA
HETATM   20  C   UNL     1      38.410 -11.761  -2.366  1.00  0.00     0.060 A 
HETATM   21  C   UNL     1      38.278 -10.400  -2.944  1.00  0.00     0.073 C 
ENDBRANCH  13  14
ENDBRANCH   9  13
ENDBRANCH   1   7
BRANCH   3  22
HETATM   22  N   UNL     1      42.443 -14.728   4.339  1.00  0.00    -0.327 N 
HETATM   23  C   UNL     1      42.087 -15.920   3.724  1.00  0.00     0.226 C 
HETATM   24  O   UNL     1      40.975 -16.147   3.247  1.00  0.00    -0.273 OA
HETATM   25  H   UNL     1      43.122 -14.768   5.086  1.00  0.00     0.169 HD
BRANCH  23  26
HETATM   26  C   UNL     1      43.218 -16.927   3.569  1.00  0.00     0.078 C 
HETATM   27  C   UNL     1      43.536 -17.831   4.753  1.00  0.00     0.014 C 
HETATM   28  C   UNL     1      44.417 -18.901   4.128  1.00  0.00     0.001 C 
HETATM   29  C   UNL     1      43.829 -19.135   2.741  1.00  0.00     0.001 C 
HETATM   30  C   UNL     1      42.935 -17.930   2.449  1.00  0.00     0.014 C 
ENDBRANCH  23  26
ENDBRANCH   3  22
TORSDOF 5
ENDMDL
MODEL 9
REMARK VINA RESULT:      -7.6      2.176      2.727
REMARK  5 active torsions:
REMARK  status: ('A' for Active; 'I' for Inactive)
REMARK    1  A    between atoms: C_8  and  C_9 
REMARK    2  A    between atoms: C_9  and  N_10 
REMARK       I    between atoms: N_10  and  C_11 
REMARK       I    between atoms: C_11  and  N_12 
REMARK    3  A    between atoms: N_12  and  C_13 
REMARK    4  A    between atoms: C_15  and  N_16 
REMARK       I    between atoms: N_16  and  C_17 
REMARK    5  A    between atoms: C_17  and  C_18 
ROOT
HETATM    1  C   UNL     1      41.433 -13.603   1.608  1.00  0.00     0.038 A 
HETATM    2  C   UNL     1      42.391 -14.547   1.971  1.00  0.00     0.059 A 
HETATM    3  C   UNL     1      42.057 -15.889   2.181  1.00  0.00     0.036 A 
HETATM    4  C   UNL     1      40.722 -16.280   2.128  1.00  0.00     0.029 A 
HETATM    5  C   UNL     1      39.743 -15.342   1.795  1.00  0.00     0.004 A 
HETATM    6  C   UNL     1      40.098 -14.014   1.528  1.00  0.00     0.029 A 
ENDROOT
BRANCH   1   7
HETATM    7  N   UNL     1      41.717 -12.240   1.383  1.00  0.00    -0.309 N 
HETATM    8  C   UNL     1      41.266 -11.354   0.449  1.00  0.00     0.320 C 
HETATM    9  N   UNL     1      40.105 -11.640  -0.186  1.00  0.00    -0.338 N 
HETATM   10  O   UNL     1      41.922 -10.341   0.224  1.00  0.00    -0.247 OA
HETATM   11  H   UNL     1      39.437 -12.235   0.283  1.00  0.00     0.164 HD
HETATM   12  H   UNL     1      42.486 -11.849   1.913  1.00  0.00     0.170 HD
BRANCH   9  13
HETATM   13  C   UNL     1      39.663 -10.967  -1.384  1.00  0.00     0.167 C 
BRANCH  13  14
HETATM   14  C   UNL     1      38.728 -11.883  -2.103  1.00  0.00     0.009 A 
HETATM   15  C   UNL     1      37.397 -11.661  -2.422  1.00  0.00     0.034 A 
HETATM   16  C   UNL     1      36.506 -10.501  -2.187  1.00  0.00     0.070 C 
HETATM   17  N   UNL     1      36.973 -12.781  -3.079  1.00  0.00    -0.282 N 
HETATM   18  H   UNL     1      36.052 -12.971  -3.458  1.00  0.00     0.189 HD
HETATM   19  N   UNL     1      37.920 -13.716  -3.219  1.00  0.00    -0.179 NA
HETATM   20  C   UNL     1      38.996 -13.182  -2.627  1.00  0.00     0.060 A 
HETATM   21  C   UNL     1      40.270 -13.941  -2.588  1.00  0.00     0.073 C 
ENDBRANCH  13  14
ENDBRANCH   9  13
ENDBRANCH   1   7
BRANCH   3  22
HETATM   22  N   UNL     1      43.055 -16.829   2.509  1.00  0.00    -0.327 N 
HETATM   23  C   UNL     1      43.385 -17.162   3.815  1.00  0.00     0.226 C 
HETATM   24  O   UNL     1      43.059 -16.500   4.800  1.00  0.00    -0.273 OA
HETATM   25  H   UNL     1      43.704 -17.088   1.778  1.00  0.00     0.169 HD
BRANCH  23  26
HETATM   26  C   UNL     1      44.103 -18.494   3.978  1.00  0.00     0.078 C 
HETATM   27  C   UNL     1      43.926 -19.245   5.292  1.00  0.00     0.014 C 
HETATM   28  C   UNL     1      44.454 -20.631   4.957  1.00  0.00     0.001 C 
HETATM   29  C   UNL     1      44.010 -20.885   3.520  1.00  0.00     0.001 C 
HETATM   30  C   UNL     1      43.639 -19.520   2.942  1.00  0.00     0.014 C 
ENDBRANCH  23  26
ENDBRANCH   3  22
TORSDOF 5
ENDMDL
MODEL 10
REMARK VINA RESULT:      -7.6      6.650      9.521
REMARK  5 active torsions:
REMARK  status: ('A' for Active; 'I' for Inactive)
REMARK    1  A    between atoms: C_8  and  C_9 
REMARK    2  A    between atoms: C_9  and  N_10 
REMARK       I    between atoms: N_10  and  C_11 
REMARK       I    between atoms: C_11  and  N_12 
REMARK    3  A    between atoms: N_12  and  C_13 
REMARK    4  A    between atoms: C_15  and  N_16 
REMARK       I    between atoms: N_16  and  C_17 
REMARK    5  A    between atoms: C_17  and  C_18 
ROOT
HETATM    1  C   UNL     1      44.288  -8.985   8.277  1.00  0.00     0.038 A 
HETATM    2  C   UNL     1      43.383  -9.957   7.856  1.00  0.00     0.059 A 
HETATM    3  C   UNL     1      43.807 -11.220   7.430  1.00  0.00     0.036 A 
HETATM    4  C   UNL     1      45.168 -11.487   7.323  1.00  0.00     0.029 A 
HETATM    5  C   UNL     1      46.092 -10.514   7.711  1.00  0.00     0.004 A 
HETATM    6  C   UNL     1      45.654  -9.275   8.193  1.00  0.00     0.029 A 
ENDROOT
BRANCH   1   7
HETATM    7  N   UNL     1      43.914  -7.698   8.716  1.00  0.00    -0.309 N 
HETATM    8  C   UNL     1      42.914  -7.267   9.539  1.00  0.00     0.320 C 
HETATM    9  N   UNL     1      42.362  -8.166  10.387  1.00  0.00    -0.338 N 
HETATM   10  O   UNL     1      42.560  -6.093   9.480  1.00  0.00    -0.247 OA
HETATM   11  H   UNL     1      42.917  -8.961  10.671  1.00  0.00     0.164 HD
HETATM   12  H   UNL     1      44.368  -6.918   8.257  1.00  0.00     0.170 HD
BRANCH   9  13
HETATM   13  C   UNL     1      41.122  -7.942  11.091  1.00  0.00     0.167 C 
BRANCH  13  14
HETATM   14  C   UNL     1      40.156  -8.997  10.659  1.00  0.00     0.009 A 
HETATM   15  C   UNL     1      39.656 -10.051  11.408  1.00  0.00     0.034 A 
HETATM   16  C   UNL     1      39.884 -10.458  12.814  1.00  0.00     0.070 C 
HETATM   17  N   UNL     1      38.809 -10.734  10.582  1.00  0.00    -0.282 N 
HETATM   18  H   UNL     1      38.267 -11.564  10.793  1.00  0.00     0.189 HD
HETATM   19  N   UNL     1      38.710 -10.208   9.355  1.00  0.00    -0.179 NA
HETATM   20  C   UNL     1      39.528  -9.149   9.388  1.00  0.00     0.060 A 
HETATM   21  C   UNL     1      39.679  -8.296   8.183  1.00  0.00     0.073 C 
ENDBRANCH  13  14
ENDBRANCH   9  13
ENDBRANCH   1   7
BRANCH   3  22
HETATM   22  N   UNL     1      42.864 -12.196   7.048  1.00  0.00    -0.327 N 
HETATM   23  C   UNL     1      42.505 -12.430   5.728  1.00  0.00     0.226 C 
HETATM   24  O   UNL     1      42.743 -11.657   4.800  1.00  0.00    -0.273 OA
HETATM   25  H   UNL     1      42.265 -12.569   7.772  1.00  0.00     0.169 HD
BRANCH  23  26
HETATM   26  C   UNL     1      41.876 -13.790   5.463  1.00  0.00     0.078 C 
HETATM   27  C   UNL     1      42.697 -15.032   5.784  1.00  0.00     0.014 C 
HETATM   28  C   UNL     1      41.656 -16.139   5.750  1.00  0.00     0.001 C 
HETATM   29  C   UNL     1      40.397 -15.515   6.344  1.00  0.00     0.001 C 
HETATM   30  C   UNL     1      40.610 -14.002   6.296  1.00  0.00     0.014 C 
ENDBRANCH  23  26
ENDBRANCH   3  22
TORSDOF 5
ENDMDL
