MODEL 1
REMARK VINA RESULT:      -9.0      0.000      0.000
REMARK  10 active torsions:
REMARK  status: ('A' for Active; 'I' for Inactive)
REMARK    1  A    between atoms: C_4  and  C_5 
REMARK    2  A    between atoms: C_5  and  C_6 
REMARK    3  A    between atoms: C_6  and  N_7 
REMARK    4  A    between atoms: C_6  and  C_15 
REMARK       I    between atoms: N_7  and  C_8 
REMARK    5  A    between atoms: C_8  and  C_9 
REMARK       I    between atoms: C_15  and  N_16 
REMARK    6  A    between atoms: N_16  and  C_17 
REMARK    7  A    between atoms: C_17  and  C_18 
REMARK    8  A    between atoms: C_18  and  C_19 
REMARK    9  A    between atoms: C_21  and  O_22 
REMARK   10  A    between atoms: C_23  and  O_24 
ROOT
HETATM    1  C   UNL     1      42.024 -15.951   3.461  1.00  0.00     0.181 C 
ENDROOT
BRANCH   1   2
HETATM    2  C   UNL     1      43.475 -16.462   3.397  1.00  0.00     0.073 C 
BRANCH   2   3
HETATM    3  C   UNL     1      43.588 -17.970   3.380  1.00  0.00    -0.056 A 
HETATM    4  C   UNL     1      44.055 -18.662   4.506  1.00  0.00     0.007 A 
HETATM    5  C   UNL     1      44.151 -20.056   4.491  1.00  0.00     0.001 A 
HETATM    6  C   UNL     1      43.780 -20.770   3.354  1.00  0.00     0.000 A 
HETATM    7  C   UNL     1      43.310 -20.092   2.231  1.00  0.00     0.001 A 
HETATM    8  C   UNL     1      43.210 -18.700   2.245  1.00  0.00     0.007 A 
ENDBRANCH   2   3
ENDBRANCH   1   2
BRANCH   1   9
HETATM    9  N   UNL     1      41.678 -15.166   2.272  1.00  0.00    -0.342 N 
HETATM   10  C   UNL     1      40.422 -15.150   1.713  1.00  0.00     0.276 C 
HETATM   11  O   UNL     1      39.470 -15.714   2.251  1.00  0.00    -0.265 OA
HETATM   12  H   UNL     1      42.406 -14.655   1.784  1.00  0.00     0.163 HD
BRANCH  10  13
HETATM   13  C   UNL     1      40.321 -14.391   0.486  1.00  0.00     0.142 A 
HETATM   14  O   UNL     1      40.826 -13.116   0.437  1.00  0.00    -0.317 OA
HETATM   15  C   UNL     1      40.596 -12.643  -0.816  1.00  0.00     0.143 A 
HETATM   16  C   UNL     1      39.948 -13.587  -1.578  1.00  0.00     0.027 A 
HETATM   17  C   UNL     1      39.770 -14.714  -0.739  1.00  0.00     0.045 A 
ENDBRANCH  10  13
ENDBRANCH   1   9
BRANCH   1  18
HETATM   18  C   UNL     1      41.814 -15.110   4.744  1.00  0.00     0.240 C 
HETATM   19  N   UNL     1      42.865 -14.263   5.034  1.00  0.00    -0.359 N 
HETATM   20  H   UNL     1      43.664 -14.262   4.399  1.00  0.00     0.162 HD
HETATM   21  O   UNL     1      40.783 -15.144   5.412  1.00  0.00    -0.271 OA
BRANCH  19  22
HETATM   22  C   UNL     1      42.857 -13.336   6.147  1.00  0.00     0.127 C 
BRANCH  22  23
HETATM   23  C   UNL     1      44.264 -13.071   6.697  1.00  0.00     0.058 C 
BRANCH  23  24
HETATM   24  C   UNL     1      44.520 -11.667   7.202  1.00  0.00    -0.054 A 
HETATM   25  C   UNL     1      45.799 -11.089   7.142  1.00  0.00     0.046 A 
HETATM   26  C   UNL     1      45.986  -9.781   7.580  1.00  0.00     0.099 A 
HETATM   27  C   UNL     1      44.913  -9.038   8.063  1.00  0.00     0.098 A 
HETATM   28  C   UNL     1      43.643  -9.586   8.124  1.00  0.00     0.040 A 
HETATM   29  C   UNL     1      43.446 -10.899   7.690  1.00  0.00     0.010 A 
BRANCH  26  30
HETATM   30  O   UNL     1      47.215  -9.182   7.553  1.00  0.00    -0.358 OA
HETATM   31  H   UNL     1      47.787  -9.655   8.183  1.00  0.00     0.218 HD
ENDBRANCH  26  30
BRANCH  27  32
HETATM   32  O   UNL     1      45.108  -7.752   8.481  1.00  0.00    -0.358 OA
HETATM   33  H   UNL     1      45.823  -7.417   7.904  1.00  0.00     0.218 HD
ENDBRANCH  27  32
ENDBRANCH  23  24
ENDBRANCH  22  23
ENDBRANCH  19  22
ENDBRANCH   1  18
TORSDOF 10
ENDMDL
MODEL 2
REMARK VINA RESULT:      -8.7      1.504      2.189
REMARK  10 active torsions:
REMARK  status: ('A' for Active; 'I' for Inactive)
REMARK    1  A    between atoms: C_4  and  C_5 
REMARK    2  A    between atoms: C_5  and  C_6 
REMARK    3  A    between atoms: C_6  and  N_7 
REMARK    4  A    between atoms: C_6  and  C_15 
REMARK       I    between atoms: N_7  and  C_8 
REMARK    5  A    between atoms: C_8  and  C_9 
REMARK       I    between atoms: C_15  and  N_16 
REMARK    6  A    between atoms: N_16  and  C_17 
REMARK    7  A    between atoms: C_17  and  C_18 
REMARK    8  A    between atoms: C_18  and  C_19 
REMARK    9  A    between atoms: C_21  and  O_22 
REMARK   10  A    between atoms: C_23  and  O_24 
ROOT
HETATM    1  C   UNL     1      42.206 -16.071   3.106  1.00  0.00     0.181 C 
ENDROOT
BRANCH   1   2
HETATM    2  C   UNL     1      43.584 -16.692   2.815  1.00  0.00     0.073 C 
BRANCH   2   3
HETATM    3  C   UNL     1      43.665 -18.168   3.137  1.00  0.00    -0.056 A 
HETATM    4  C   UNL     1      43.295 -19.127   2.184  1.00  0.00     0.007 A 
HETATM    5  C   UNL     1      43.378 -20.489   2.481  1.00  0.00     0.001 A 
HETATM    6  C   UNL     1      43.833 -20.906   3.731  1.00  0.00     0.000 A 
HETATM    7  C   UNL     1      44.208 -19.961   4.683  1.00  0.00     0.001 A 
HETATM    8  C   UNL     1      44.129 -18.599   4.388  1.00  0.00     0.007 A 
ENDBRANCH   2   3
ENDBRANCH   1   2
BRANCH   1   9
HETATM    9  N   UNL     1      41.742 -15.245   1.987  1.00  0.00    -0.342 N 
HETATM   10  C   UNL     1      40.448 -15.254   1.522  1.00  0.00     0.276 C 
HETATM   11  O   UNL     1      39.562 -15.882   2.098  1.00  0.00    -0.265 OA
HETATM   12  H   UNL     1      42.412 -14.681   1.474  1.00  0.00     0.163 HD
BRANCH  10  13
HETATM   13  C   UNL     1      40.227 -14.441   0.346  1.00  0.00     0.142 A 
HETATM   14  O   UNL     1      39.447 -14.925  -0.672  1.00  0.00    -0.317 OA
HETATM   15  C   UNL     1      39.412 -13.969  -1.638  1.00  0.00     0.143 A 
HETATM   16  C   UNL     1      40.160 -12.878  -1.264  1.00  0.00     0.027 A 
HETATM   17  C   UNL     1      40.686 -13.181   0.015  1.00  0.00     0.045 A 
ENDBRANCH  10  13
ENDBRANCH   1   9
BRANCH   1  18
HETATM   18  C   UNL     1      42.266 -15.234   4.407  1.00  0.00     0.240 C 
HETATM   19  N   UNL     1      41.169 -14.418   4.598  1.00  0.00    -0.359 N 
HETATM   20  H   UNL     1      40.435 -14.437   3.889  1.00  0.00     0.162 HD
HETATM   21  O   UNL     1      43.175 -15.329   5.229  1.00  0.00    -0.271 OA
BRANCH  19  22
HETATM   22  C   UNL     1      40.980 -13.599   5.777  1.00  0.00     0.127 C 
BRANCH  22  23
HETATM   23  C   UNL     1      41.448 -12.154   5.566  1.00  0.00     0.058 C 
BRANCH  23  24
HETATM   24  C   UNL     1      42.921 -11.898   5.798  1.00  0.00    -0.054 A 
HETATM   25  C   UNL     1      43.807 -11.688   4.728  1.00  0.00     0.046 A 
HETATM   26  C   UNL     1      45.148 -11.417   4.984  1.00  0.00     0.099 A 
HETATM   27  C   UNL     1      45.615 -11.338   6.293  1.00  0.00     0.098 A 
HETATM   28  C   UNL     1      44.758 -11.534   7.363  1.00  0.00     0.040 A 
HETATM   29  C   UNL     1      43.411 -11.811   7.115  1.00  0.00     0.010 A 
BRANCH  26  30
HETATM   30  O   UNL     1      46.048 -11.219   3.974  1.00  0.00    -0.358 OA
HETATM   31  H   UNL     1      46.427 -10.330   4.088  1.00  0.00     0.218 HD
ENDBRANCH  26  30
BRANCH  27  32
HETATM   32  O   UNL     1      46.931 -11.062   6.531  1.00  0.00    -0.358 OA
HETATM   33  H   UNL     1      47.370 -11.227   5.674  1.00  0.00     0.218 HD
ENDBRANCH  27  32
ENDBRANCH  23  24
ENDBRANCH  22  23
ENDBRANCH  19  22
ENDBRANCH   1  18
TORSDOF 10
ENDMDL
MODEL 3
REMARK VINA RESULT:      -8.6      2.944      3.556
REMARK  10 active torsions:
REMARK  status: ('A' for Active; 'I' for Inactive)
REMARK    1  A    between atoms: C_4  and  C_5 
REMARK    2  A    between atoms: C_5  and  C_6 
REMARK    3  A    between atoms: C_6  and  N_7 
REMARK    4  A    between atoms: C_6  and  C_15 
REMARK       I    between atoms: N_7  and  C_8 
REMARK    5  A    between atoms: C_8  and  C_9 
REMARK       I    between atoms: C_15  and  N_16 
REMARK    6  A    between atoms: N_16  and  C_17 
REMARK    7  A    between atoms: C_17  and  C_18 
REMARK    8  A    between atoms: C_18  and  C_19 
REMARK    9  A    between atoms: C_21  and  O_22 
REMARK   10  A    between atoms: C_23  and  O_24 
ROOT
HETATM    1  C   UNL     1      42.058 -16.221   2.981  1.00  0.00     0.181 C 
ENDROOT
BRANCH   1   2
HETATM    2  C   UNL     1      43.485 -16.764   2.786  1.00  0.00     0.073 C 
BRANCH   2   3
HETATM    3  C   UNL     1      43.636 -18.223   3.154  1.00  0.00    -0.056 A 
HETATM    4  C   UNL     1      44.055 -18.594   4.439  1.00  0.00     0.007 A 
HETATM    5  C   UNL     1      44.186 -19.943   4.780  1.00  0.00     0.001 A 
HETATM    6  C   UNL     1      43.898 -20.932   3.841  1.00  0.00     0.000 A 
HETATM    7  C   UNL     1      43.476 -20.574   2.563  1.00  0.00     0.001 A 
HETATM    8  C   UNL     1      43.342 -19.227   2.221  1.00  0.00     0.007 A 
ENDBRANCH   2   3
ENDBRANCH   1   2
BRANCH   1   9
HETATM    9  N   UNL     1      41.619 -15.435   1.824  1.00  0.00    -0.342 N 
HETATM   10  C   UNL     1      40.319 -15.405   1.378  1.00  0.00     0.276 C 
HETATM   11  O   UNL     1      39.411 -15.954   1.999  1.00  0.00    -0.265 OA
HETATM   12  H   UNL     1      42.307 -14.936   1.272  1.00  0.00     0.163 HD
BRANCH  10  13
HETATM   13  C   UNL     1      40.120 -14.648   0.161  1.00  0.00     0.142 A 
HETATM   14  O   UNL     1      39.343 -15.171  -0.841  1.00  0.00    -0.317 OA
HETATM   15  C   UNL     1      39.331 -14.263  -1.852  1.00  0.00     0.143 A 
HETATM   16  C   UNL     1      40.090 -13.164  -1.525  1.00  0.00     0.027 A 
HETATM   17  C   UNL     1      40.599 -13.411  -0.227  1.00  0.00     0.045 A 
ENDBRANCH  10  13
ENDBRANCH   1   9
BRANCH   1  18
HETATM   18  C   UNL     1      41.987 -15.369   4.272  1.00  0.00     0.240 C 
HETATM   19  N   UNL     1      40.706 -15.001   4.629  1.00  0.00    -0.359 N 
HETATM   20  H   UNL     1      39.938 -15.314   4.033  1.00  0.00     0.162 HD
HETATM   21  O   UNL     1      42.972 -15.093   4.953  1.00  0.00    -0.271 OA
BRANCH  19  22
HETATM   22  C   UNL     1      40.396 -14.261   5.834  1.00  0.00     0.127 C 
BRANCH  22  23
HETATM   23  C   UNL     1      39.752 -12.901   5.535  1.00  0.00     0.058 C 
BRANCH  23  24
HETATM   24  C   UNL     1      40.402 -12.092   4.432  1.00  0.00    -0.054 A 
HETATM   25  C   UNL     1      41.781 -11.825   4.435  1.00  0.00     0.046 A 
HETATM   26  C   UNL     1      42.347 -11.111   3.383  1.00  0.00     0.099 A 
HETATM   27  C   UNL     1      41.561 -10.674   2.322  1.00  0.00     0.098 A 
HETATM   28  C   UNL     1      40.200 -10.932   2.296  1.00  0.00     0.040 A 
HETATM   29  C   UNL     1      39.622 -11.644   3.349  1.00  0.00     0.010 A 
BRANCH  26  30
HETATM   30  O   UNL     1      43.682 -10.817   3.349  1.00  0.00    -0.358 OA
HETATM   31  H   UNL     1      43.904 -10.358   4.179  1.00  0.00     0.218 HD
ENDBRANCH  26  30
BRANCH  27  32
HETATM   32  O   UNL     1      42.130  -9.982   1.291  1.00  0.00    -0.358 OA
HETATM   33  H   UNL     1      42.213 -10.643   0.575  1.00  0.00     0.218 HD
ENDBRANCH  27  32
ENDBRANCH  23  24
ENDBRANCH  22  23
ENDBRANCH  19  22
ENDBRANCH   1  18
TORSDOF 10
ENDMDL
MODEL 4
REMARK VINA RESULT:      -8.5      2.943      4.219
REMARK  10 active torsions:
REMARK  status: ('A' for Active; 'I' for Inactive)
REMARK    1  A    between atoms: C_4  and  C_5 
REMARK    2  A    between atoms: C_5  and  C_6 
REMARK    3  A    between atoms: C_6  and  N_7 
REMARK    4  A    between atoms: C_6  and  C_15 
REMARK       I    between atoms: N_7  and  C_8 
REMARK    5  A    between atoms: C_8  and  C_9 
REMARK       I    between atoms: C_15  and  N_16 
REMARK    6  A    between atoms: N_16  and  C_17 
REMARK    7  A    between atoms: C_17  and  C_18 
REMARK    8  A    between atoms: C_18  and  C_19 
REMARK    9  A    between atoms: C_21  and  O_22 
REMARK   10  A    between atoms: C_23  and  O_24 
ROOT
HETATM    1  C   UNL     1      42.089 -14.477   1.811  1.00  0.00     0.181 C 
ENDROOT
BRANCH   1   2
HETATM    2  C   UNL     1      43.307 -15.373   1.522  1.00  0.00     0.073 C 
BRANCH   2   3
HETATM    3  C   UNL     1      43.436 -16.547   2.466  1.00  0.00    -0.056 A 
HETATM    4  C   UNL     1      43.422 -17.860   1.977  1.00  0.00     0.007 A 
HETATM    5  C   UNL     1      43.549 -18.943   2.850  1.00  0.00     0.001 A 
HETATM    6  C   UNL     1      43.691 -18.724   4.219  1.00  0.00     0.000 A 
HETATM    7  C   UNL     1      43.711 -17.423   4.715  1.00  0.00     0.001 A 
HETATM    8  C   UNL     1      43.588 -16.339   3.844  1.00  0.00     0.007 A 
ENDBRANCH   2   3
ENDBRANCH   1   2
BRANCH   1   9
HETATM    9  N   UNL     1      41.385 -14.113   0.578  1.00  0.00    -0.342 N 
HETATM   10  C   UNL     1      40.281 -14.784   0.108  1.00  0.00     0.276 C 
HETATM   11  O   UNL     1      39.741 -15.674   0.763  1.00  0.00    -0.265 OA
HETATM   12  H   UNL     1      41.757 -13.372  -0.008  1.00  0.00     0.163 HD
BRANCH  10  13
HETATM   13  C   UNL     1      39.802 -14.326  -1.177  1.00  0.00     0.142 A 
HETATM   14  O   UNL     1      40.223 -13.114  -1.662  1.00  0.00    -0.317 OA
HETATM   15  C   UNL     1      39.624 -12.936  -2.869  1.00  0.00     0.143 A 
HETATM   16  C   UNL     1      38.820 -14.009  -3.172  1.00  0.00     0.027 A 
HETATM   17  C   UNL     1      38.933 -14.906  -2.082  1.00  0.00     0.045 A 
ENDBRANCH  10  13
ENDBRANCH   1   9
BRANCH   1  18
HETATM   18  C   UNL     1      42.536 -13.206   2.574  1.00  0.00     0.240 C 
HETATM   19  N   UNL     1      41.489 -12.416   3.004  1.00  0.00    -0.359 N 
HETATM   20  H   UNL     1      40.540 -12.728   2.791  1.00  0.00     0.162 HD
HETATM   21  O   UNL     1      43.710 -12.949   2.829  1.00  0.00    -0.271 OA
BRANCH  19  22
HETATM   22  C   UNL     1      41.668 -11.216   3.794  1.00  0.00     0.127 C 
BRANCH  22  23
HETATM   23  C   UNL     1      41.128 -11.369   5.222  1.00  0.00     0.058 C 
BRANCH  23  24
HETATM   24  C   UNL     1      41.378 -12.710   5.879  1.00  0.00    -0.054 A 
HETATM   25  C   UNL     1      40.363 -13.675   5.984  1.00  0.00     0.046 A 
HETATM   26  C   UNL     1      40.641 -14.911   6.560  1.00  0.00     0.099 A 
HETATM   27  C   UNL     1      41.921 -15.202   7.021  1.00  0.00     0.098 A 
HETATM   28  C   UNL     1      42.939 -14.268   6.922  1.00  0.00     0.040 A 
HETATM   29  C   UNL     1      42.668 -13.023   6.349  1.00  0.00     0.010 A 
BRANCH  26  30
HETATM   30  O   UNL     1      39.681 -15.876   6.694  1.00  0.00    -0.358 OA
HETATM   31  H   UNL     1      39.157 -15.661   7.486  1.00  0.00     0.218 HD
ENDBRANCH  26  30
BRANCH  27  32
HETATM   32  O   UNL     1      42.185 -16.422   7.577  1.00  0.00    -0.358 OA
HETATM   33  H   UNL     1      41.309 -16.751   7.859  1.00  0.00     0.218 HD
ENDBRANCH  27  32
ENDBRANCH  23  24
ENDBRANCH  22  23
ENDBRANCH  19  22
ENDBRANCH   1  18
TORSDOF 10
ENDMDL
MODEL 5
REMARK VINA RESULT:      -8.4      2.347      8.284
REMARK  10 active torsions:
REMARK  status: ('A' for Active; 'I' for Inactive)
REMARK    1  A    between atoms: C_4  and  C_5 
REMARK    2  A    between atoms: C_5  and  C_6 
REMARK    3  A    between atoms: C_6  and  N_7 
REMARK    4  A    between atoms: C_6  and  C_15 
REMARK       I    between atoms: N_7  and  C_8 
REMARK    5  A    between atoms: C_8  and  C_9 
REMARK       I    between atoms: C_15  and  N_16 
REMARK    6  A    between atoms: N_16  and  C_17 
REMARK    7  A    between atoms: C_17  and  C_18 
REMARK    8  A    between atoms: C_18  and  C_19 
REMARK    9  A    between atoms: C_21  and  O_22 
REMARK   10  A    between atoms: C_23  and  O_24 
ROOT
HETATM    1  C   UNL     1      42.775 -14.232   4.270  1.00  0.00     0.181 C 
ENDROOT
BRANCH   1   2
HETATM    2  C   UNL     1      42.379 -15.569   4.922  1.00  0.00     0.073 C 
BRANCH   2   3
HETATM    3  C   UNL     1      42.962 -16.780   4.228  1.00  0.00    -0.056 A 
HETATM    4  C   UNL     1      43.929 -17.569   4.864  1.00  0.00     0.007 A 
HETATM    5  C   UNL     1      44.460 -18.692   4.224  1.00  0.00     0.001 A 
HETATM    6  C   UNL     1      44.029 -19.036   2.944  1.00  0.00     0.000 A 
HETATM    7  C   UNL     1      43.064 -18.261   2.305  1.00  0.00     0.001 A 
HETATM    8  C   UNL     1      42.529 -17.141   2.944  1.00  0.00     0.007 A 
ENDBRANCH   2   3
ENDBRANCH   1   2
BRANCH   1   9
HETATM    9  N   UNL     1      43.238 -13.264   5.268  1.00  0.00    -0.342 N 
HETATM   10  C   UNL     1      43.894 -12.098   4.947  1.00  0.00     0.276 C 
HETATM   11  O   UNL     1      44.033 -11.738   3.779  1.00  0.00    -0.265 OA
HETATM   12  H   UNL     1      43.138 -13.479   6.254  1.00  0.00     0.163 HD
BRANCH  10  13
HETATM   13  C   UNL     1      44.354 -11.336   6.087  1.00  0.00     0.142 A 
HETATM   14  O   UNL     1      43.468 -10.543   6.771  1.00  0.00    -0.317 OA
HETATM   15  C   UNL     1      44.160  -9.948   7.778  1.00  0.00     0.143 A 
HETATM   16  C   UNL     1      45.478 -10.338   7.755  1.00  0.00     0.027 A 
HETATM   17  C   UNL     1      45.604 -11.232   6.664  1.00  0.00     0.045 A 
ENDBRANCH  10  13
ENDBRANCH   1   9
BRANCH   1  18
HETATM   18  C   UNL     1      41.578 -13.657   3.473  1.00  0.00     0.240 C 
HETATM   19  N   UNL     1      41.829 -13.498   2.125  1.00  0.00    -0.359 N 
HETATM   20  H   UNL     1      42.751 -13.767   1.779  1.00  0.00     0.162 HD
HETATM   21  O   UNL     1      40.483 -13.418   3.978  1.00  0.00    -0.271 OA
BRANCH  19  22
HETATM   22  C   UNL     1      40.834 -13.040   1.178  1.00  0.00     0.127 C 
BRANCH  22  23
HETATM   23  C   UNL     1      40.622 -14.031   0.026  1.00  0.00     0.058 C 
BRANCH  23  24
HETATM   24  C   UNL     1      39.536 -13.668  -0.963  1.00  0.00    -0.054 A 
HETATM   25  C   UNL     1      39.380 -14.369  -2.170  1.00  0.00     0.046 A 
HETATM   26  C   UNL     1      38.344 -14.030  -3.036  1.00  0.00     0.099 A 
HETATM   27  C   UNL     1      37.453 -13.013  -2.708  1.00  0.00     0.098 A 
HETATM   28  C   UNL     1      37.585 -12.314  -1.520  1.00  0.00     0.040 A 
HETATM   29  C   UNL     1      38.623 -12.643  -0.647  1.00  0.00     0.010 A 
BRANCH  26  30
HETATM   30  O   UNL     1      38.162 -14.676  -4.228  1.00  0.00    -0.358 OA
HETATM   31  H   UNL     1      38.432 -14.067  -4.938  1.00  0.00     0.218 HD
ENDBRANCH  26  30
BRANCH  27  32
HETATM   32  O   UNL     1      36.436 -12.696  -3.562  1.00  0.00    -0.358 OA
HETATM   33  H   UNL     1      36.251 -11.755  -3.378  1.00  0.00     0.218 HD
ENDBRANCH  27  32
ENDBRANCH  23  24
ENDBRANCH  22  23
ENDBRANCH  19  22
ENDBRANCH   1  18
TORSDOF 10
ENDMDL
MODEL 6
REMARK VINA RESULT:      -8.2      1.521      2.370
REMARK  10 active torsions:
REMARK  status: ('A' for Active; 'I' for Inactive)
REMARK    1  A    between atoms: C_4  and  C_5 
REMARK    2  A    between atoms: C_5  and  C_6 
REMARK    3  A    between atoms: C_6  and  N_7 
REMARK    4  A    between atoms: C_6  and  C_15 
REMARK       I    between atoms: N_7  and  C_8 
REMARK    5  A    between atoms: C_8  and  C_9 
REMARK       I    between atoms: C_15  and  N_16 
REMARK    6  A    between atoms: N_16  and  C_17 
REMARK    7  A    between atoms: C_17  and  C_18 
REMARK    8  A    between atoms: C_18  and  C_19 
REMARK    9  A    between atoms: C_21  and  O_22 
REMARK   10  A    between atoms: C_23  and  O_24 
ROOT
HETATM    1  C   UNL     1      42.065 -14.669   2.063  1.00  0.00     0.181 C 
ENDROOT
BRANCH   1   2
HETATM    2  C   UNL     1      43.313 -15.528   1.792  1.00  0.00     0.073 C 
BRANCH   2   3
HETATM    3  C   UNL     1      43.481 -16.677   2.761  1.00  0.00    -0.056 A 
HETATM    4  C   UNL     1      43.559 -17.997   2.294  1.00  0.00     0.007 A 
HETATM    5  C   UNL     1      43.722 -19.056   3.190  1.00  0.00     0.001 A 
HETATM    6  C   UNL     1      43.810 -18.807   4.558  1.00  0.00     0.000 A 
HETATM    7  C   UNL     1      43.740 -17.499   5.032  1.00  0.00     0.001 A 
HETATM    8  C   UNL     1      43.580 -16.439   4.138  1.00  0.00     0.007 A 
ENDBRANCH   2   3
ENDBRANCH   1   2
BRANCH   1   9
HETATM    9  N   UNL     1      41.423 -14.245   0.815  1.00  0.00    -0.342 N 
HETATM   10  C   UNL     1      40.289 -14.835   0.307  1.00  0.00     0.276 C 
HETATM   11  O   UNL     1      39.672 -15.693   0.936  1.00  0.00    -0.265 OA
HETATM   12  H   UNL     1      41.861 -13.526   0.249  1.00  0.00     0.163 HD
BRANCH  10  13
HETATM   13  C   UNL     1      39.880 -14.333  -0.986  1.00  0.00     0.142 A 
HETATM   14  O   UNL     1      39.047 -15.088  -1.772  1.00  0.00    -0.317 OA
HETATM   15  C   UNL     1      38.831 -14.386  -2.915  1.00  0.00     0.143 A 
HETATM   16  C   UNL     1      39.511 -13.192  -2.885  1.00  0.00     0.027 A 
HETATM   17  C   UNL     1      40.188 -13.157  -1.642  1.00  0.00     0.045 A 
ENDBRANCH  10  13
ENDBRANCH   1   9
BRANCH   1  18
HETATM   18  C   UNL     1      42.446 -13.436   2.920  1.00  0.00     0.240 C 
HETATM   19  N   UNL     1      41.625 -13.241   4.012  1.00  0.00    -0.359 N 
HETATM   20  H   UNL     1      40.863 -13.904   4.159  1.00  0.00     0.162 HD
HETATM   21  O   UNL     1      43.424 -12.729   2.688  1.00  0.00    -0.271 OA
BRANCH  19  22
HETATM   22  C   UNL     1      41.834 -12.192   4.988  1.00  0.00     0.127 C 
BRANCH  22  23
HETATM   23  C   UNL     1      42.704 -12.652   6.165  1.00  0.00     0.058 C 
BRANCH  23  24
HETATM   24  C   UNL     1      43.672 -11.623   6.710  1.00  0.00    -0.054 A 
HETATM   25  C   UNL     1      43.219 -10.473   7.378  1.00  0.00     0.046 A 
HETATM   26  C   UNL     1      44.141  -9.570   7.900  1.00  0.00     0.099 A 
HETATM   27  C   UNL     1      45.507  -9.804   7.777  1.00  0.00     0.098 A 
HETATM   28  C   UNL     1      45.975 -10.935   7.127  1.00  0.00     0.040 A 
HETATM   29  C   UNL     1      45.057 -11.845   6.597  1.00  0.00     0.010 A 
BRANCH  26  30
HETATM   30  O   UNL     1      43.746  -8.431   8.546  1.00  0.00    -0.358 OA
HETATM   31  H   UNL     1      42.807  -8.535   8.779  1.00  0.00     0.218 HD
ENDBRANCH  26  30
BRANCH  27  32
HETATM   32  O   UNL     1      46.401  -8.915   8.300  1.00  0.00    -0.358 OA
HETATM   33  H   UNL     1      45.974  -8.045   8.179  1.00  0.00     0.218 HD
ENDBRANCH  27  32
ENDBRANCH  23  24
ENDBRANCH  22  23
ENDBRANCH  19  22
ENDBRANCH   1  18
TORSDOF 10
ENDMDL
MODEL 7
REMARK VINA RESULT:      -8.1      2.155      8.252
REMARK  10 active torsions:
REMARK  status: ('A' for Active; 'I' for Inactive)
REMARK    1  A    between atoms: C_4  and  C_5 
REMARK    2  A    between atoms: C_5  and  C_6 
REMARK    3  A    between atoms: C_6  and  N_7 
REMARK    4  A    between atoms: C_6  and  C_15 
REMARK       I    between atoms: N_7  and  C_8 
REMARK    5  A    between atoms: C_8  and  C_9 
REMARK       I    between atoms: C_15  and  N_16 
REMARK    6  A    between atoms: N_16  and  C_17 
REMARK    7  A    between atoms: C_17  and  C_18 
REMARK    8  A    between atoms: C_18  and  C_19 
REMARK    9  A    between atoms: C_21  and  O_22 
REMARK   10  A    between atoms: C_23  and  O_24 
ROOT
HETATM    1  C   UNL     1      42.749 -13.135   6.217  1.00  0.00     0.181 C 
ENDROOT
BRANCH   1   2
HETATM    2  C   UNL     1      43.236 -12.851   4.785  1.00  0.00     0.073 C 
BRANCH   2   3
HETATM    3  C   UNL     1      42.137 -12.395   3.849  1.00  0.00    -0.056 A 
HETATM    4  C   UNL     1      40.790 -12.552   4.202  1.00  0.00     0.007 A 
HETATM    5  C   UNL     1      39.778 -12.123   3.341  1.00  0.00     0.001 A 
HETATM    6  C   UNL     1      40.101 -11.533   2.121  1.00  0.00     0.000 A 
HETATM    7  C   UNL     1      41.437 -11.368   1.763  1.00  0.00     0.001 A 
HETATM    8  C   UNL     1      42.451 -11.793   2.623  1.00  0.00     0.007 A 
ENDBRANCH   2   3
ENDBRANCH   1   2
BRANCH   1   9
HETATM    9  N   UNL     1      43.482 -12.333   7.202  1.00  0.00    -0.342 N 
HETATM   10  C   UNL     1      43.235 -10.999   7.429  1.00  0.00     0.276 C 
HETATM   11  O   UNL     1      42.294 -10.418   6.892  1.00  0.00    -0.265 OA
HETATM   12  H   UNL     1      44.260 -12.749   7.703  1.00  0.00     0.163 HD
BRANCH  10  13
HETATM   13  C   UNL     1      44.139 -10.373   8.369  1.00  0.00     0.142 A 
HETATM   14  O   UNL     1      45.174  -9.605   7.901  1.00  0.00    -0.317 OA
HETATM   15  C   UNL     1      45.855  -9.150   8.985  1.00  0.00     0.143 A 
HETATM   16  C   UNL     1      45.283  -9.613  10.146  1.00  0.00     0.027 A 
HETATM   17  C   UNL     1      44.176 -10.403   9.750  1.00  0.00     0.045 A 
ENDBRANCH  10  13
ENDBRANCH   1   9
BRANCH   1  18
HETATM   18  C   UNL     1      42.891 -14.643   6.536  1.00  0.00     0.240 C 
HETATM   19  N   UNL     1      43.422 -15.386   5.501  1.00  0.00    -0.359 N 
HETATM   20  H   UNL     1      43.670 -14.893   4.642  1.00  0.00     0.162 HD
HETATM   21  O   UNL     1      42.615 -15.130   7.631  1.00  0.00    -0.271 OA
BRANCH  19  22
HETATM   22  C   UNL     1      43.706 -16.802   5.600  1.00  0.00     0.127 C 
BRANCH  22  23
HETATM   23  C   UNL     1      43.360 -17.559   4.311  1.00  0.00     0.058 C 
BRANCH  23  24
HETATM   24  C   UNL     1      42.601 -16.769   3.267  1.00  0.00    -0.054 A 
HETATM   25  C   UNL     1      41.224 -16.523   3.392  1.00  0.00     0.046 A 
HETATM   26  C   UNL     1      40.569 -15.759   2.430  1.00  0.00     0.099 A 
HETATM   27  C   UNL     1      41.271 -15.226   1.353  1.00  0.00     0.098 A 
HETATM   28  C   UNL     1      42.630 -15.451   1.214  1.00  0.00     0.040 A 
HETATM   29  C   UNL     1      43.296 -16.220   2.172  1.00  0.00     0.010 A 
BRANCH  26  30
HETATM   30  O   UNL     1      39.228 -15.504   2.504  1.00  0.00    -0.358 OA
HETATM   31  H   UNL     1      38.791 -16.313   2.827  1.00  0.00     0.218 HD
ENDBRANCH  26  30
BRANCH  27  32
HETATM   32  O   UNL     1      40.619 -14.471   0.421  1.00  0.00    -0.358 OA
HETATM   33  H   UNL     1      41.332 -14.129  -0.153  1.00  0.00     0.218 HD
ENDBRANCH  27  32
ENDBRANCH  23  24
ENDBRANCH  22  23
ENDBRANCH  19  22
ENDBRANCH   1  18
TORSDOF 10
ENDMDL
MODEL 8
REMARK VINA RESULT:      -8.0      1.550      5.160
REMARK  10 active torsions:
REMARK  status: ('A' for Active; 'I' for Inactive)
REMARK    1  A    between atoms: C_4  and  C_5 
REMARK    2  A    between atoms: C_5  and  C_6 
REMARK    3  A    between atoms: C_6  and  N_7 
REMARK    4  A    between atoms: C_6  and  C_15 
REMARK       I    between atoms: N_7  and  C_8 
REMARK    5  A    between atoms: C_8  and  C_9 
REMARK       I    between atoms: C_15  and  N_16 
REMARK    6  A    between atoms: N_16  and  C_17 
REMARK    7  A    between atoms: C_17  and  C_18 
REMARK    8  A    between atoms: C_18  and  C_19 
REMARK    9  A    between atoms: C_21  and  O_22 
REMARK   10  A    between atoms: C_23  and  O_24 
ROOT
HETATM    1  C   UNL     1      41.680 -14.785   3.365  1.00  0.00     0.181 C 
ENDROOT
BRANCH   1   2
HETATM    2  C   UNL     1      40.202 -14.870   2.943  1.00  0.00     0.073 C 
BRANCH   2   3
HETATM    3  C   UNL     1      39.920 -14.252   1.591  1.00  0.00    -0.056 A 
HETATM    4  C   UNL     1      39.991 -15.027   0.425  1.00  0.00     0.007 A 
HETATM    5  C   UNL     1      39.722 -14.456  -0.821  1.00  0.00     0.001 A 
HETATM    6  C   UNL     1      39.378 -13.109  -0.914  1.00  0.00     0.000 A 
HETATM    7  C   UNL     1      39.300 -12.332   0.239  1.00  0.00     0.001 A 
HETATM    8  C   UNL     1      39.565 -12.900   1.486  1.00  0.00     0.007 A 
ENDBRANCH   2   3
ENDBRANCH   1   2
BRANCH   1   9
HETATM    9  N   UNL     1      42.256 -16.117   3.575  1.00  0.00    -0.342 N 
HETATM   10  C   UNL     1      42.981 -16.789   2.619  1.00  0.00     0.276 C 
HETATM   11  O   UNL     1      43.291 -16.258   1.554  1.00  0.00    -0.265 OA
HETATM   12  H   UNL     1      42.063 -16.611   4.439  1.00  0.00     0.163 HD
BRANCH  10  13
HETATM   13  C   UNL     1      43.371 -18.130   2.996  1.00  0.00     0.142 A 
HETATM   14  O   UNL     1      43.898 -18.356   4.242  1.00  0.00    -0.317 OA
HETATM   15  C   UNL     1      44.173 -19.684   4.324  1.00  0.00     0.143 A 
HETATM   16  C   UNL     1      43.838 -20.321   3.153  1.00  0.00     0.027 A 
HETATM   17  C   UNL     1      43.321 -19.320   2.296  1.00  0.00     0.045 A 
ENDBRANCH  10  13
ENDBRANCH   1   9
BRANCH   1  18
HETATM   18  C   UNL     1      41.817 -13.928   4.647  1.00  0.00     0.240 C 
HETATM   19  N   UNL     1      42.891 -14.278   5.440  1.00  0.00    -0.359 N 
HETATM   20  H   UNL     1      43.486 -15.046   5.124  1.00  0.00     0.162 HD
HETATM   21  O   UNL     1      41.077 -12.983   4.910  1.00  0.00    -0.271 OA
BRANCH  19  22
HETATM   22  C   UNL     1      43.252 -13.571   6.651  1.00  0.00     0.127 C 
BRANCH  22  23
HETATM   23  C   UNL     1      44.620 -12.886   6.544  1.00  0.00     0.058 C 
BRANCH  23  24
HETATM   24  C   UNL     1      44.690 -11.469   7.073  1.00  0.00    -0.054 A 
HETATM   25  C   UNL     1      43.526 -10.729   7.344  1.00  0.00     0.046 A 
HETATM   26  C   UNL     1      43.632  -9.444   7.866  1.00  0.00     0.099 A 
HETATM   27  C   UNL     1      44.880  -8.891   8.136  1.00  0.00     0.098 A 
HETATM   28  C   UNL     1      46.039  -9.605   7.883  1.00  0.00     0.040 A 
HETATM   29  C   UNL     1      45.944 -10.895   7.355  1.00  0.00     0.010 A 
BRANCH  26  30
HETATM   30  O   UNL     1      42.527  -8.682   8.133  1.00  0.00    -0.358 OA
HETATM   31  H   UNL     1      42.306  -8.190   7.323  1.00  0.00     0.218 HD
ENDBRANCH  26  30
BRANCH  27  32
HETATM   32  O   UNL     1      44.970  -7.632   8.657  1.00  0.00    -0.358 OA
HETATM   33  H   UNL     1      44.044  -7.319   8.690  1.00  0.00     0.218 HD
ENDBRANCH  27  32
ENDBRANCH  23  24
ENDBRANCH  22  23
ENDBRANCH  19  22
ENDBRANCH   1  18
TORSDOF 10
ENDMDL
MODEL 9
REMARK VINA RESULT:      -7.8      3.288      8.590
REMARK  10 active torsions:
REMARK  status: ('A' for Active; 'I' for Inactive)
REMARK    1  A    between atoms: C_4  and  C_5 
REMARK    2  A    between atoms: C_5  and  C_6 
REMARK    3  A    between atoms: C_6  and  N_7 
REMARK    4  A    between atoms: C_6  and  C_15 
REMARK       I    between atoms: N_7  and  C_8 
REMARK    5  A    between atoms: C_8  and  C_9 
REMARK       I    between atoms: C_15  and  N_16 
REMARK    6  A    between atoms: N_16  and  C_17 
REMARK    7  A    between atoms: C_17  and  C_18 
REMARK    8  A    between atoms: C_18  and  C_19 
REMARK    9  A    between atoms: C_21  and  O_22 
REMARK   10  A    between atoms: C_23  and  O_24 
ROOT
HETATM    1  C   UNL     1      43.136 -12.144   5.132  1.00  0.00     0.181 C 
ENDROOT
BRANCH   1   2
HETATM    2  C   UNL     1      43.724 -12.652   6.461  1.00  0.00     0.073 C 
BRANCH   2   3
HETATM    3  C   UNL     1      44.461 -11.588   7.244  1.00  0.00    -0.056 A 
HETATM    4  C   UNL     1      45.753 -11.193   6.871  1.00  0.00     0.007 A 
HETATM    5  C   UNL     1      46.428 -10.205   7.591  1.00  0.00     0.001 A 
HETATM    6  C   UNL     1      45.819  -9.601   8.689  1.00  0.00     0.000 A 
HETATM    7  C   UNL     1      44.533  -9.982   9.066  1.00  0.00     0.001 A 
HETATM    8  C   UNL     1      43.855 -10.967   8.346  1.00  0.00     0.007 A 
ENDBRANCH   2   3
ENDBRANCH   1   2
BRANCH   1   9
HETATM    9  N   UNL     1      41.884 -11.412   5.343  1.00  0.00    -0.342 N 
HETATM   10  C   UNL     1      41.453 -10.394   4.525  1.00  0.00     0.276 C 
HETATM   11  O   UNL     1      42.046 -10.107   3.487  1.00  0.00    -0.265 OA
HETATM   12  H   UNL     1      41.327 -11.607   6.168  1.00  0.00     0.163 HD
BRANCH  10  13
HETATM   13  C   UNL     1      40.244  -9.738   4.971  1.00  0.00     0.142 A 
HETATM   14  O   UNL     1      40.163  -9.270   6.258  1.00  0.00    -0.317 OA
HETATM   15  C   UNL     1      38.933  -8.711   6.404  1.00  0.00     0.143 A 
HETATM   16  C   UNL     1      38.215  -8.811   5.236  1.00  0.00     0.027 A 
HETATM   17  C   UNL     1      39.058  -9.474   4.312  1.00  0.00     0.045 A 
ENDBRANCH  10  13
ENDBRANCH   1   9
BRANCH   1  18
HETATM   18  C   UNL     1      42.911 -13.332   4.164  1.00  0.00     0.240 C 
HETATM   19  N   UNL     1      42.449 -14.476   4.783  1.00  0.00    -0.359 N 
HETATM   20  H   UNL     1      42.299 -14.443   5.792  1.00  0.00     0.162 HD
HETATM   21  O   UNL     1      43.068 -13.251   2.948  1.00  0.00    -0.271 OA
BRANCH  19  22
HETATM   22  C   UNL     1      42.106 -15.686   4.066  1.00  0.00     0.127 C 
BRANCH  22  23
HETATM   23  C   UNL     1      43.291 -16.254   3.275  1.00  0.00     0.058 C 
BRANCH  23  24
HETATM   24  C   UNL     1      43.474 -17.755   3.351  1.00  0.00    -0.054 A 
HETATM   25  C   UNL     1      43.229 -18.580   2.241  1.00  0.00     0.046 A 
HETATM   26  C   UNL     1      43.446 -19.952   2.339  1.00  0.00     0.099 A 
HETATM   27  C   UNL     1      43.919 -20.509   3.523  1.00  0.00     0.098 A 
HETATM   28  C   UNL     1      44.175 -19.713   4.626  1.00  0.00     0.040 A 
HETATM   29  C   UNL     1      43.955 -18.336   4.539  1.00  0.00     0.010 A 
BRANCH  26  30
HETATM   30  O   UNL     1      43.208 -20.795   1.289  1.00  0.00    -0.358 OA
HETATM   31  H   UNL     1      43.832 -20.564   0.578  1.00  0.00     0.218 HD
ENDBRANCH  26  30
BRANCH  27  32
HETATM   32  O   UNL     1      44.138 -21.855   3.603  1.00  0.00    -0.358 OA
HETATM   33  H   UNL     1      44.550 -21.979   4.480  1.00  0.00     0.218 HD
ENDBRANCH  27  32
ENDBRANCH  23  24
ENDBRANCH  22  23
ENDBRANCH  19  22
ENDBRANCH   1  18
TORSDOF 10
ENDMDL
MODEL 10
REMARK VINA RESULT:      -7.7      3.197      8.281
REMARK  10 active torsions:
REMARK  status: ('A' for Active; 'I' for Inactive)
REMARK    1  A    between atoms: C_4  and  C_5 
REMARK    2  A    between atoms: C_5  and  C_6 
REMARK    3  A    between atoms: C_6  and  N_7 
REMARK    4  A    between atoms: C_6  and  C_15 
REMARK       I    between atoms: N_7  and  C_8 
REMARK    5  A    between atoms: C_8  and  C_9 
REMARK       I    between atoms: C_15  and  N_16 
REMARK    6  A    between atoms: N_16  and  C_17 
REMARK    7  A    between atoms: C_17  and  C_18 
REMARK    8  A    between atoms: C_18  and  C_19 
REMARK    9  A    between atoms: C_21  and  O_22 
REMARK   10  A    between atoms: C_23  and  O_24 
ROOT
HETATM    1  C   UNL     1      42.282 -13.743   4.231  1.00  0.00     0.181 C 
ENDROOT
BRANCH   1   2
HETATM    2  C   UNL     1      41.550 -15.097   4.226  1.00  0.00     0.073 C 
BRANCH   2   3
HETATM    3  C   UNL     1      42.465 -16.281   4.004  1.00  0.00    -0.056 A 
HETATM    4  C   UNL     1      43.351 -16.695   5.009  1.00  0.00     0.007 A 
HETATM    5  C   UNL     1      44.190 -17.793   4.805  1.00  0.00     0.001 A 
HETATM    6  C   UNL     1      44.151 -18.488   3.598  1.00  0.00     0.000 A 
HETATM    7  C   UNL     1      43.270 -18.088   2.595  1.00  0.00     0.001 A 
HETATM    8  C   UNL     1      42.429 -16.993   2.797  1.00  0.00     0.007 A 
ENDBRANCH   2   3
ENDBRANCH   1   2
BRANCH   1   9
HETATM    9  N   UNL     1      41.725 -12.835   5.239  1.00  0.00    -0.342 N 
HETATM   10  C   UNL     1      40.461 -12.299   5.162  1.00  0.00     0.276 C 
HETATM   11  O   UNL     1      39.668 -12.643   4.287  1.00  0.00    -0.265 OA
HETATM   12  H   UNL     1      42.312 -12.522   6.005  1.00  0.00     0.163 HD
BRANCH  10  13
HETATM   13  C   UNL     1      40.148 -11.349   6.206  1.00  0.00     0.142 A 
HETATM   14  O   UNL     1      39.047 -11.554   6.998  1.00  0.00    -0.317 OA
HETATM   15  C   UNL     1      38.992 -10.521   7.880  1.00  0.00     0.143 A 
HETATM   16  C   UNL     1      40.034  -9.650   7.671  1.00  0.00     0.027 A 
HETATM   17  C   UNL     1      40.780 -10.182   6.592  1.00  0.00     0.045 A 
ENDBRANCH  10  13
ENDBRANCH   1   9
BRANCH   1  18
HETATM   18  C   UNL     1      42.211 -13.097   2.825  1.00  0.00     0.240 C 
HETATM   19  N   UNL     1      41.332 -13.724   1.966  1.00  0.00    -0.359 N 
HETATM   20  H   UNL     1      40.818 -14.533   2.319  1.00  0.00     0.162 HD
HETATM   21  O   UNL     1      42.833 -12.083   2.516  1.00  0.00    -0.271 OA
BRANCH  19  22
HETATM   22  C   UNL     1      41.055 -13.253   0.625  1.00  0.00     0.127 C 
BRANCH  22  23
HETATM   23  C   UNL     1      40.549 -14.371  -0.295  1.00  0.00     0.058 C 
BRANCH  23  24
HETATM   24  C   UNL     1      39.439 -13.986  -1.250  1.00  0.00    -0.054 A 
HETATM   25  C   UNL     1      39.246 -14.669  -2.462  1.00  0.00     0.046 A 
HETATM   26  C   UNL     1      38.190 -14.310  -3.296  1.00  0.00     0.099 A 
HETATM   27  C   UNL     1      37.317 -13.291  -2.930  1.00  0.00     0.098 A 
HETATM   28  C   UNL     1      37.485 -12.609  -1.737  1.00  0.00     0.040 A 
HETATM   29  C   UNL     1      38.544 -12.959  -0.896  1.00  0.00     0.010 A 
BRANCH  26  30
HETATM   30  O   UNL     1      37.971 -14.938  -4.491  1.00  0.00    -0.358 OA
HETATM   31  H   UNL     1      37.477 -14.323  -5.061  1.00  0.00     0.218 HD
ENDBRANCH  26  30
BRANCH  27  32
HETATM   32  O   UNL     1      36.279 -12.954  -3.753  1.00  0.00    -0.358 OA
HETATM   33  H   UNL     1      36.512 -13.360  -4.611  1.00  0.00     0.218 HD
ENDBRANCH  27  32
ENDBRANCH  23  24
ENDBRANCH  22  23
ENDBRANCH  19  22
ENDBRANCH   1  18
TORSDOF 10
ENDMDL
