MODEL 1
REMARK VINA RESULT:      -9.4      0.000      0.000
REMARK  8 active torsions:
REMARK  status: ('A' for Active; 'I' for Inactive)
REMARK    1  A    between atoms: C_2  and  C_3 
REMARK    2  A    between atoms: N_4  and  C_5 
REMARK    3  A    between atoms: C_5  and  C_6 
REMARK    4  A    between atoms: C_14  and  C_15 
REMARK       I    between atoms: C_15  and  N_16 
REMARK    5  A    between atoms: N_16  and  N_17 
REMARK       I    between atoms: N_17  and  C_18 
REMARK    6  A    between atoms: C_18  and  C_19 
REMARK    7  A    between atoms: C_23  and  C_24 
REMARK    8  A    between atoms: C_27  and  O_28 
ROOT
HETATM    1  C   UNL     1      42.016 -12.105   6.023  1.00  0.00     0.273 C 
HETATM    2  N   UNL     1      43.092 -11.811   6.831  1.00  0.00    -0.263 N 
HETATM    3  O   UNL     1      40.923 -11.568   6.216  1.00  0.00    -0.266 OA
HETATM    4  H   UNL     1      44.033 -12.158   6.687  1.00  0.00     0.190 HD
ENDROOT
BRANCH   2   5
HETATM    5  N   UNL     1      42.915 -10.884   7.867  1.00  0.00    -0.262 N 
HETATM    6  C   UNL     1      43.921 -10.705   8.789  1.00  0.00     0.288 C 
HETATM    7  O   UNL     1      45.001 -11.288   8.691  1.00  0.00    -0.264 OA
HETATM    8  H   UNL     1      41.986 -10.478   7.955  1.00  0.00     0.190 HD
BRANCH   6   9
HETATM    9  C   UNL     1      43.623  -9.797   9.860  1.00  0.00     0.121 A 
HETATM   10  N   UNL     1      43.642  -8.443   9.682  1.00  0.00    -0.272 N 
HETATM   11  H   UNL     1      43.863  -7.943   8.827  1.00  0.00     0.189 HD
HETATM   12  N   UNL     1      43.317  -7.739  10.776  1.00  0.00    -0.174 NA
HETATM   13  C   UNL     1      43.082  -8.663  11.721  1.00  0.00     0.089 A 
HETATM   14  C   UNL     1      43.268  -9.970  11.184  1.00  0.00     0.071 A 
BRANCH  13  15
HETATM   15  C   UNL     1      42.675  -8.289  13.081  1.00  0.00    -0.005 A 
HETATM   16  C   UNL     1      43.300  -7.224  13.741  1.00  0.00     0.016 A 
HETATM   17  C   UNL     1      42.899  -6.845  15.026  1.00  0.00     0.037 A 
HETATM   18  C   UNL     1      41.869  -7.521  15.679  1.00  0.00     0.068 A 
HETATM   19  C   UNL     1      41.251  -8.595  15.038  1.00  0.00     0.037 A 
HETATM   20  C   UNL     1      41.651  -8.975  13.749  1.00  0.00     0.016 A 
BRANCH  18  21
HETATM   21  O   UNL     1      41.568  -7.045  16.924  1.00  0.00    -0.356 OA
HETATM   22  C   UNL     1      40.680  -7.825  17.714  1.00  0.00     0.210 C 
ENDBRANCH  18  21
ENDBRANCH  13  15
ENDBRANCH   6   9
ENDBRANCH   2   5
BRANCH   1  23
HETATM   23  C   UNL     1      42.224 -13.051   4.935  1.00  0.00     0.077 A 
HETATM   24  C   UNL     1      41.652 -14.285   4.620  1.00  0.00     0.048 A 
HETATM   25  N   UNL     1      42.265 -14.685   3.443  1.00  0.00    -0.269 N 
HETATM   26  N   UNL     1      43.164 -13.793   2.981  1.00  0.00    -0.183 NA
HETATM   27  C   UNL     1      43.138 -12.816   3.880  1.00  0.00     0.158 A 
BRANCH  24  28
HETATM   28  C   UNL     1      40.589 -15.105   5.283  1.00  0.00     0.055 C 
HETATM   29  C   UNL     1      41.067 -15.723   6.589  1.00  0.00     0.011 C 
ENDBRANCH  24  28
BRANCH  25  30
HETATM   30  C   UNL     1      42.003 -15.870   2.624  1.00  0.00     0.189 C 
BRANCH  30  31
HETATM   31  C   UNL     1      42.800 -17.081   3.049  1.00  0.00    -0.038 A 
HETATM   32  C   UNL     1      42.826 -18.222   2.232  1.00  0.00     0.009 A 
HETATM   33  C   UNL     1      43.599 -19.332   2.584  1.00  0.00     0.001 A 
HETATM   34  C   UNL     1      44.361 -19.310   3.750  1.00  0.00     0.000 A 
HETATM   35  C   UNL     1      44.357 -18.179   4.561  1.00  0.00     0.001 A 
HETATM   36  C   UNL     1      43.589 -17.068   4.210  1.00  0.00     0.009 A 
ENDBRANCH  30  31
ENDBRANCH  25  30
ENDBRANCH   1  23
TORSDOF 8
ENDMDL
MODEL 2
REMARK VINA RESULT:      -8.9      1.219      2.031
REMARK  8 active torsions:
REMARK  status: ('A' for Active; 'I' for Inactive)
REMARK    1  A    between atoms: C_2  and  C_3 
REMARK    2  A    between atoms: N_4  and  C_5 
REMARK    3  A    between atoms: C_5  and  C_6 
REMARK    4  A    between atoms: C_14  and  C_15 
REMARK       I    between atoms: C_15  and  N_16 
REMARK    5  A    between atoms: N_16  and  N_17 
REMARK       I    between atoms: N_17  and  C_18 
REMARK    6  A    between atoms: C_18  and  C_19 
REMARK    7  A    between atoms: C_23  and  C_24 
REMARK    8  A    between atoms: C_27  and  O_28 
ROOT
HETATM    1  C   UNL     1      41.433 -12.936   5.891  1.00  0.00     0.273 C 
HETATM    2  N   UNL     1      42.633 -12.503   6.413  1.00  0.00    -0.263 N 
HETATM    3  O   UNL     1      40.385 -12.343   6.154  1.00  0.00    -0.266 OA
HETATM    4  H   UNL     1      43.537 -12.896   6.182  1.00  0.00     0.190 HD
ENDROOT
BRANCH   2   5
HETATM    5  N   UNL     1      42.630 -11.372   7.240  1.00  0.00    -0.262 N 
HETATM    6  C   UNL     1      43.766 -11.056   7.951  1.00  0.00     0.288 C 
HETATM    7  O   UNL     1      44.807 -11.701   7.829  1.00  0.00    -0.264 OA
HETATM    8  H   UNL     1      41.733 -10.909   7.368  1.00  0.00     0.190 HD
BRANCH   6   9
HETATM    9  C   UNL     1      43.648  -9.929   8.834  1.00  0.00     0.121 A 
HETATM   10  N   UNL     1      44.088  -8.686   8.476  1.00  0.00    -0.272 N 
HETATM   11  H   UNL     1      44.531  -8.423   7.602  1.00  0.00     0.189 HD
HETATM   12  N   UNL     1      43.882  -7.741   9.405  1.00  0.00    -0.174 NA
HETATM   13  C   UNL     1      43.290  -8.385  10.424  1.00  0.00     0.089 A 
HETATM   14  C   UNL     1      43.130  -9.764  10.103  1.00  0.00     0.071 A 
BRANCH  13  15
HETATM   15  C   UNL     1      42.883  -7.684  11.647  1.00  0.00    -0.005 A 
HETATM   16  C   UNL     1      43.284  -8.155  12.903  1.00  0.00     0.016 A 
HETATM   17  C   UNL     1      42.923  -7.475  14.071  1.00  0.00     0.037 A 
HETATM   18  C   UNL     1      42.152  -6.315  14.009  1.00  0.00     0.068 A 
HETATM   19  C   UNL     1      41.731  -5.846  12.765  1.00  0.00     0.037 A 
HETATM   20  C   UNL     1      42.095  -6.525  11.593  1.00  0.00     0.016 A 
BRANCH  18  21
HETATM   21  O   UNL     1      41.877  -5.743  15.220  1.00  0.00    -0.356 OA
HETATM   22  C   UNL     1      42.039  -6.564  16.370  1.00  0.00     0.210 C 
ENDBRANCH  18  21
ENDBRANCH  13  15
ENDBRANCH   6   9
ENDBRANCH   2   5
BRANCH   1  23
HETATM   23  C   UNL     1      41.458 -14.098   5.012  1.00  0.00     0.077 A 
HETATM   24  C   UNL     1      42.171 -14.401   3.850  1.00  0.00     0.048 A 
HETATM   25  N   UNL     1      41.763 -15.676   3.490  1.00  0.00    -0.269 N 
HETATM   26  N   UNL     1      40.864 -16.207   4.343  1.00  0.00    -0.183 NA
HETATM   27  C   UNL     1      40.683 -15.257   5.252  1.00  0.00     0.158 A 
BRANCH  24  28
HETATM   28  C   UNL     1      43.197 -13.642   3.067  1.00  0.00     0.055 C 
HETATM   29  C   UNL     1      42.666 -12.310   2.558  1.00  0.00     0.011 C 
ENDBRANCH  24  28
BRANCH  25  30
HETATM   30  C   UNL     1      42.234 -16.518   2.389  1.00  0.00     0.189 C 
BRANCH  30  31
HETATM   31  C   UNL     1      42.898 -17.794   2.850  1.00  0.00    -0.038 A 
HETATM   32  C   UNL     1      42.798 -18.955   2.069  1.00  0.00     0.009 A 
HETATM   33  C   UNL     1      43.450 -20.130   2.454  1.00  0.00     0.001 A 
HETATM   34  C   UNL     1      44.215 -20.154   3.618  1.00  0.00     0.000 A 
HETATM   35  C   UNL     1      44.336 -19.005   4.394  1.00  0.00     0.001 A 
HETATM   36  C   UNL     1      43.690 -17.829   4.009  1.00  0.00     0.009 A 
ENDBRANCH  30  31
ENDBRANCH  25  30
ENDBRANCH   1  23
TORSDOF 8
ENDMDL
MODEL 3
REMARK VINA RESULT:      -8.6      2.105      2.672
REMARK  8 active torsions:
REMARK  status: ('A' for Active; 'I' for Inactive)
REMARK    1  A    between atoms: C_2  and  C_3 
REMARK    2  A    between atoms: N_4  and  C_5 
REMARK    3  A    between atoms: C_5  and  C_6 
REMARK    4  A    between atoms: C_14  and  C_15 
REMARK       I    between atoms: C_15  and  N_16 
REMARK    5  A    between atoms: N_16  and  N_17 
REMARK       I    between atoms: N_17  and  C_18 
REMARK    6  A    between atoms: C_18  and  C_19 
REMARK    7  A    between atoms: C_23  and  C_24 
REMARK    8  A    between atoms: C_27  and  O_28 
ROOT
HETATM    1  C   UNL     1      42.085 -12.690   5.233  1.00  0.00     0.273 C 
HETATM    2  N   UNL     1      43.061 -12.474   6.180  1.00  0.00    -0.263 N 
HETATM    3  O   UNL     1      41.048 -12.025   5.238  1.00  0.00    -0.266 OA
HETATM    4  H   UNL     1      43.965 -12.931   6.192  1.00  0.00     0.190 HD
ENDROOT
BRANCH   2   5
HETATM    5  N   UNL     1      42.847 -11.477   7.141  1.00  0.00    -0.262 N 
HETATM    6  C   UNL     1      43.879 -11.119   7.980  1.00  0.00     0.288 C 
HETATM    7  O   UNL     1      45.005 -11.603   7.865  1.00  0.00    -0.264 OA
HETATM    8  H   UNL     1      41.889 -11.155   7.252  1.00  0.00     0.190 HD
BRANCH   6   9
HETATM    9  C   UNL     1      43.549 -10.149   8.986  1.00  0.00     0.121 A 
HETATM   10  N   UNL     1      43.386 -10.498  10.297  1.00  0.00    -0.272 N 
HETATM   11  H   UNL     1      43.467 -11.429  10.696  1.00  0.00     0.189 HD
HETATM   12  N   UNL     1      43.103  -9.471  11.110  1.00  0.00    -0.174 NA
HETATM   13  C   UNL     1      43.066  -8.397  10.304  1.00  0.00     0.089 A 
HETATM   14  C   UNL     1      43.337  -8.785   8.960  1.00  0.00     0.071 A 
BRANCH  13  15
HETATM   15  C   UNL     1      42.797  -7.052  10.825  1.00  0.00    -0.005 A 
HETATM   16  C   UNL     1      42.951  -5.928  10.003  1.00  0.00     0.016 A 
HETATM   17  C   UNL     1      42.669  -4.646  10.484  1.00  0.00     0.037 A 
HETATM   18  C   UNL     1      42.231  -4.457  11.795  1.00  0.00     0.068 A 
HETATM   19  C   UNL     1      42.091  -5.567  12.628  1.00  0.00     0.037 A 
HETATM   20  C   UNL     1      42.370  -6.853  12.146  1.00  0.00     0.016 A 
BRANCH  18  21
HETATM   21  O   UNL     1      41.982  -3.157  12.135  1.00  0.00    -0.356 OA
HETATM   22  C   UNL     1      42.106  -2.817  13.510  1.00  0.00     0.210 C 
ENDBRANCH  18  21
ENDBRANCH  13  15
ENDBRANCH   6   9
ENDBRANCH   2   5
BRANCH   1  23
HETATM   23  C   UNL     1      42.335 -13.712   4.225  1.00  0.00     0.077 A 
HETATM   24  C   UNL     1      41.801 -14.984   4.002  1.00  0.00     0.048 A 
HETATM   25  N   UNL     1      42.441 -15.457   2.867  1.00  0.00    -0.269 N 
HETATM   26  N   UNL     1      43.321 -14.579   2.347  1.00  0.00    -0.183 NA
HETATM   27  C   UNL     1      43.256 -13.536   3.165  1.00  0.00     0.158 A 
BRANCH  24  28
HETATM   28  C   UNL     1      40.753 -15.779   4.716  1.00  0.00     0.055 C 
HETATM   29  C   UNL     1      41.147 -16.098   6.151  1.00  0.00     0.011 C 
ENDBRANCH  24  28
BRANCH  25  30
HETATM   30  C   UNL     1      42.224 -16.711   2.142  1.00  0.00     0.189 C 
BRANCH  30  31
HETATM   31  C   UNL     1      42.988 -17.879   2.719  1.00  0.00    -0.038 A 
HETATM   32  C   UNL     1      43.681 -17.731   3.930  1.00  0.00     0.009 A 
HETATM   33  C   UNL     1      44.349 -18.816   4.504  1.00  0.00     0.001 A 
HETATM   34  C   UNL     1      44.325 -20.060   3.880  1.00  0.00     0.000 A 
HETATM   35  C   UNL     1      43.628 -20.226   2.686  1.00  0.00     0.001 A 
HETATM   36  C   UNL     1      42.956 -19.145   2.113  1.00  0.00     0.009 A 
ENDBRANCH  30  31
ENDBRANCH  25  30
ENDBRANCH   1  23
TORSDOF 8
ENDMDL
MODEL 4
REMARK VINA RESULT:      -8.5      2.371     11.937
REMARK  8 active torsions:
REMARK  status: ('A' for Active; 'I' for Inactive)
REMARK    1  A    between atoms: C_2  and  C_3 
REMARK    2  A    between atoms: N_4  and  C_5 
REMARK    3  A    between atoms: C_5  and  C_6 
REMARK    4  A    between atoms: C_14  and  C_15 
REMARK       I    between atoms: C_15  and  N_16 
REMARK    5  A    between atoms: N_16  and  N_17 
REMARK       I    between atoms: N_17  and  C_18 
REMARK    6  A    between atoms: C_18  and  C_19 
REMARK    7  A    between atoms: C_23  and  C_24 
REMARK    8  A    between atoms: C_27  and  O_28 
ROOT
HETATM    1  C   UNL     1      42.369  -9.792   8.016  1.00  0.00     0.273 C 
HETATM    2  N   UNL     1      41.267 -10.312   7.371  1.00  0.00    -0.263 N 
HETATM    3  O   UNL     1      43.483 -10.293   7.855  1.00  0.00    -0.266 OA
HETATM    4  H   UNL     1      40.339  -9.908   7.400  1.00  0.00     0.190 HD
ENDROOT
BRANCH   2   5
HETATM    5  N   UNL     1      41.449 -11.415   6.526  1.00  0.00    -0.262 N 
HETATM    6  C   UNL     1      40.369 -12.213   6.221  1.00  0.00     0.288 C 
HETATM    7  O   UNL     1      39.234 -11.945   6.614  1.00  0.00    -0.264 OA
HETATM    8  H   UNL     1      42.410 -11.643   6.282  1.00  0.00     0.190 HD
BRANCH   6   9
HETATM    9  C   UNL     1      40.662 -13.365   5.416  1.00  0.00     0.121 A 
HETATM   10  N   UNL     1      39.889 -13.708   4.342  1.00  0.00    -0.272 N 
HETATM   11  H   UNL     1      39.062 -13.225   4.006  1.00  0.00     0.189 HD
HETATM   12  N   UNL     1      40.312 -14.797   3.685  1.00  0.00    -0.174 NA
HETATM   13  C   UNL     1      41.404 -15.200   4.355  1.00  0.00     0.089 A 
HETATM   14  C   UNL     1      41.653 -14.326   5.453  1.00  0.00     0.071 A 
BRANCH  13  15
HETATM   15  C   UNL     1      42.180 -16.371   3.932  1.00  0.00    -0.005 A 
HETATM   16  C   UNL     1      41.938 -16.973   2.691  1.00  0.00     0.016 A 
HETATM   17  C   UNL     1      42.693 -18.073   2.270  1.00  0.00     0.037 A 
HETATM   18  C   UNL     1      43.702 -18.595   3.079  1.00  0.00     0.068 A 
HETATM   19  C   UNL     1      43.940 -18.015   4.325  1.00  0.00     0.037 A 
HETATM   20  C   UNL     1      43.186 -16.911   4.747  1.00  0.00     0.016 A 
BRANCH  18  21
HETATM   21  O   UNL     1      44.370 -19.662   2.546  1.00  0.00    -0.356 OA
HETATM   22  C   UNL     1      43.636 -20.510   1.673  1.00  0.00     0.210 C 
ENDBRANCH  18  21
ENDBRANCH  13  15
ENDBRANCH   6   9
ENDBRANCH   2   5
BRANCH   1  23
HETATM   23  C   UNL     1      42.166  -8.629   8.869  1.00  0.00     0.077 A 
HETATM   24  C   UNL     1      42.777  -8.191  10.047  1.00  0.00     0.048 A 
HETATM   25  N   UNL     1      42.148  -6.998  10.366  1.00  0.00    -0.269 N 
HETATM   26  N   UNL     1      41.203  -6.640   9.474  1.00  0.00    -0.183 NA
HETATM   27  C   UNL     1      41.216  -7.622   8.580  1.00  0.00     0.158 A 
BRANCH  24  28
HETATM   28  C   UNL     1      43.889  -8.753  10.878  1.00  0.00     0.055 C 
HETATM   29  C   UNL     1      43.516 -10.081  11.519  1.00  0.00     0.011 C 
ENDBRANCH  24  28
BRANCH  25  30
HETATM   30  C   UNL     1      42.432  -6.071  11.462  1.00  0.00     0.189 C 
BRANCH  30  31
HETATM   31  C   UNL     1      41.956  -6.567  12.807  1.00  0.00    -0.038 A 
HETATM   32  C   UNL     1      40.587  -6.779  13.029  1.00  0.00     0.009 A 
HETATM   33  C   UNL     1      40.135  -7.287  14.250  1.00  0.00     0.001 A 
HETATM   34  C   UNL     1      41.045  -7.596  15.258  1.00  0.00     0.000 A 
HETATM   35  C   UNL     1      42.408  -7.405  15.046  1.00  0.00     0.001 A 
HETATM   36  C   UNL     1      42.863  -6.903  13.826  1.00  0.00     0.009 A 
ENDBRANCH  30  31
ENDBRANCH  25  30
ENDBRANCH   1  23
TORSDOF 8
ENDMDL
MODEL 5
REMARK VINA RESULT:      -8.3      8.007     12.478
REMARK  8 active torsions:
REMARK  status: ('A' for Active; 'I' for Inactive)
REMARK    1  A    between atoms: C_2  and  C_3 
REMARK    2  A    between atoms: N_4  and  C_5 
REMARK    3  A    between atoms: C_5  and  C_6 
REMARK    4  A    between atoms: C_14  and  C_15 
REMARK       I    between atoms: C_15  and  N_16 
REMARK    5  A    between atoms: N_16  and  N_17 
REMARK       I    between atoms: N_17  and  C_18 
REMARK    6  A    between atoms: C_18  and  C_19 
REMARK    7  A    between atoms: C_23  and  C_24 
REMARK    8  A    between atoms: C_27  and  O_28 
ROOT
HETATM    1  C   UNL     1      40.102 -14.141   2.715  1.00  0.00     0.273 C 
HETATM    2  N   UNL     1      40.020 -14.388   1.363  1.00  0.00    -0.263 N 
HETATM    3  O   UNL     1      39.453 -13.226   3.225  1.00  0.00    -0.266 OA
HETATM    4  H   UNL     1      40.466 -15.165   0.890  1.00  0.00     0.190 HD
ENDROOT
BRANCH   2   5
HETATM    5  N   UNL     1      39.178 -13.579   0.587  1.00  0.00    -0.262 N 
HETATM    6  C   UNL     1      39.415 -13.463  -0.764  1.00  0.00     0.288 C 
HETATM    7  O   UNL     1      40.305 -14.104  -1.324  1.00  0.00    -0.264 OA
HETATM    8  H   UNL     1      38.503 -13.013   1.095  1.00  0.00     0.190 HD
BRANCH   6   9
HETATM    9  C   UNL     1      38.555 -12.552  -1.465  1.00  0.00     0.121 A 
HETATM   10  N   UNL     1      39.017 -11.368  -1.966  1.00  0.00    -0.272 N 
HETATM   11  H   UNL     1      39.963 -11.005  -1.902  1.00  0.00     0.189 HD
HETATM   12  N   UNL     1      38.092 -10.645  -2.613  1.00  0.00    -0.174 NA
HETATM   13  C   UNL     1      36.967 -11.374  -2.530  1.00  0.00     0.089 A 
HETATM   14  C   UNL     1      37.218 -12.579  -1.811  1.00  0.00     0.071 A 
BRANCH  13  15
HETATM   15  C   UNL     1      35.710 -10.925  -3.139  1.00  0.00    -0.005 A 
HETATM   16  C   UNL     1      34.927 -11.813  -3.886  1.00  0.00     0.016 A 
HETATM   17  C   UNL     1      33.714 -11.400  -4.446  1.00  0.00     0.037 A 
HETATM   18  C   UNL     1      33.259 -10.093  -4.275  1.00  0.00     0.068 A 
HETATM   19  C   UNL     1      34.040  -9.194  -3.548  1.00  0.00     0.037 A 
HETATM   20  C   UNL     1      35.255  -9.608  -2.984  1.00  0.00     0.016 A 
BRANCH  18  21
HETATM   21  O   UNL     1      32.056  -9.821  -4.864  1.00  0.00    -0.356 OA
HETATM   22  C   UNL     1      31.887  -8.520  -5.412  1.00  0.00     0.210 C 
ENDBRANCH  18  21
ENDBRANCH  13  15
ENDBRANCH   6   9
ENDBRANCH   2   5
BRANCH   1  23
HETATM   23  C   UNL     1      40.961 -15.008   3.511  1.00  0.00     0.077 A 
HETATM   24  C   UNL     1      42.294 -15.408   3.384  1.00  0.00     0.048 A 
HETATM   25  N   UNL     1      42.535 -16.231   4.473  1.00  0.00    -0.269 N 
HETATM   26  N   UNL     1      41.468 -16.367   5.285  1.00  0.00    -0.183 NA
HETATM   27  C   UNL     1      40.526 -15.634   4.703  1.00  0.00     0.158 A 
BRANCH  24  28
HETATM   28  C   UNL     1      43.355 -15.085   2.379  1.00  0.00     0.055 C 
HETATM   29  C   UNL     1      43.248 -15.946   1.129  1.00  0.00     0.011 C 
ENDBRANCH  24  28
BRANCH  25  30
HETATM   30  C   UNL     1      43.785 -16.877   4.881  1.00  0.00     0.189 C 
BRANCH  30  31
HETATM   31  C   UNL     1      43.860 -18.336   4.498  1.00  0.00    -0.038 A 
HETATM   32  C   UNL     1      43.886 -19.320   5.497  1.00  0.00     0.009 A 
HETATM   33  C   UNL     1      43.904 -20.676   5.160  1.00  0.00     0.001 A 
HETATM   34  C   UNL     1      43.886 -21.063   3.821  1.00  0.00     0.000 A 
HETATM   35  C   UNL     1      43.844 -20.097   2.820  1.00  0.00     0.001 A 
HETATM   36  C   UNL     1      43.822 -18.742   3.154  1.00  0.00     0.009 A 
ENDBRANCH  30  31
ENDBRANCH  25  30
ENDBRANCH   1  23
TORSDOF 8
ENDMDL
MODEL 6
REMARK VINA RESULT:      -8.1      2.608     11.851
REMARK  8 active torsions:
REMARK  status: ('A' for Active; 'I' for Inactive)
REMARK    1  A    between atoms: C_2  and  C_3 
REMARK    2  A    between atoms: N_4  and  C_5 
REMARK    3  A    between atoms: C_5  and  C_6 
REMARK    4  A    between atoms: C_14  and  C_15 
REMARK       I    between atoms: C_15  and  N_16 
REMARK    5  A    between atoms: N_16  and  N_17 
REMARK       I    between atoms: N_17  and  C_18 
REMARK    6  A    between atoms: C_18  and  C_19 
REMARK    7  A    between atoms: C_23  and  C_24 
REMARK    8  A    between atoms: C_27  and  O_28 
ROOT
HETATM    1  C   UNL     1      43.283  -9.871   8.537  1.00  0.00     0.273 C 
HETATM    2  N   UNL     1      42.290 -10.294   7.681  1.00  0.00    -0.263 N 
HETATM    3  O   UNL     1      44.358 -10.470   8.594  1.00  0.00    -0.266 OA
HETATM    4  H   UNL     1      41.414  -9.809   7.530  1.00  0.00     0.190 HD
ENDROOT
BRANCH   2   5
HETATM    5  N   UNL     1      42.538 -11.413   6.874  1.00  0.00    -0.262 N 
HETATM    6  C   UNL     1      42.439 -11.291   5.506  1.00  0.00     0.288 C 
HETATM    7  O   UNL     1      42.204 -10.210   4.967  1.00  0.00    -0.264 OA
HETATM    8  H   UNL     1      42.657 -12.300   7.358  1.00  0.00     0.190 HD
BRANCH   6   9
HETATM    9  C   UNL     1      42.629 -12.505   4.764  1.00  0.00     0.121 A 
HETATM   10  N   UNL     1      42.633 -12.520   3.397  1.00  0.00    -0.272 N 
HETATM   11  H   UNL     1      42.503 -11.726   2.778  1.00  0.00     0.189 HD
HETATM   12  N   UNL     1      42.847 -13.729   2.860  1.00  0.00    -0.174 NA
HETATM   13  C   UNL     1      42.980 -14.553   3.912  1.00  0.00     0.089 A 
HETATM   14  C   UNL     1      42.845 -13.820   5.126  1.00  0.00     0.071 A 
BRANCH  13  15
HETATM   15  C   UNL     1      43.246 -15.986   3.740  1.00  0.00    -0.005 A 
HETATM   16  C   UNL     1      43.118 -16.586   2.482  1.00  0.00     0.016 A 
HETATM   17  C   UNL     1      43.397 -17.945   2.305  1.00  0.00     0.037 A 
HETATM   18  C   UNL     1      43.806 -18.733   3.381  1.00  0.00     0.068 A 
HETATM   19  C   UNL     1      43.919 -18.150   4.643  1.00  0.00     0.037 A 
HETATM   20  C   UNL     1      43.643 -16.787   4.820  1.00  0.00     0.016 A 
BRANCH  18  21
HETATM   21  O   UNL     1      44.056 -20.041   3.072  1.00  0.00    -0.356 OA
HETATM   22  C   UNL     1      43.598 -20.502   1.808  1.00  0.00     0.210 C 
ENDBRANCH  18  21
ENDBRANCH  13  15
ENDBRANCH   6   9
ENDBRANCH   2   5
BRANCH   1  23
HETATM   23  C   UNL     1      43.018  -8.691   9.349  1.00  0.00     0.077 A 
HETATM   24  C   UNL     1      42.483  -8.511  10.627  1.00  0.00     0.048 A 
HETATM   25  N   UNL     1      42.505  -7.142  10.845  1.00  0.00    -0.269 N 
HETATM   26  N   UNL     1      43.027  -6.447   9.815  1.00  0.00    -0.183 NA
HETATM   27  C   UNL     1      43.332  -7.379   8.920  1.00  0.00     0.158 A 
BRANCH  24  28
HETATM   28  C   UNL     1      41.984  -9.474  11.658  1.00  0.00     0.055 C 
HETATM   29  C   UNL     1      43.082 -10.399  12.162  1.00  0.00     0.011 C 
ENDBRANCH  24  28
BRANCH  25  30
HETATM   30  C   UNL     1      42.125  -6.394  12.045  1.00  0.00     0.189 C 
BRANCH  30  31
HETATM   31  C   UNL     1      40.636  -6.381  12.298  1.00  0.00    -0.038 A 
HETATM   32  C   UNL     1      39.751  -6.080  11.251  1.00  0.00     0.009 A 
HETATM   33  C   UNL     1      38.369  -6.114  11.455  1.00  0.00     0.001 A 
HETATM   34  C   UNL     1      37.856  -6.458  12.704  1.00  0.00     0.000 A 
HETATM   35  C   UNL     1      38.721  -6.774  13.747  1.00  0.00     0.001 A 
HETATM   36  C   UNL     1      40.102  -6.746  13.545  1.00  0.00     0.009 A 
ENDBRANCH  30  31
ENDBRANCH  25  30
ENDBRANCH   1  23
TORSDOF 8
ENDMDL
MODEL 7
REMARK VINA RESULT:      -7.9      8.163     10.899
REMARK  8 active torsions:
REMARK  status: ('A' for Active; 'I' for Inactive)
REMARK    1  A    between atoms: C_2  and  C_3 
REMARK    2  A    between atoms: N_4  and  C_5 
REMARK    3  A    between atoms: C_5  and  C_6 
REMARK    4  A    between atoms: C_14  and  C_15 
REMARK       I    between atoms: C_15  and  N_16 
REMARK    5  A    between atoms: N_16  and  N_17 
REMARK       I    between atoms: N_17  and  C_18 
REMARK    6  A    between atoms: C_18  and  C_19 
REMARK    7  A    between atoms: C_23  and  C_24 
REMARK    8  A    between atoms: C_27  and  O_28 
ROOT
HETATM    1  C   UNL     1      39.915 -14.867   2.614  1.00  0.00     0.273 C 
HETATM    2  N   UNL     1      39.461 -13.645   3.058  1.00  0.00    -0.263 N 
HETATM    3  O   UNL     1      39.524 -15.329   1.540  1.00  0.00    -0.266 OA
HETATM    4  H   UNL     1      39.793 -13.173   3.890  1.00  0.00     0.190 HD
ENDROOT
BRANCH   2   5
HETATM    5  N   UNL     1      38.553 -12.940   2.255  1.00  0.00    -0.262 N 
HETATM    6  C   UNL     1      39.008 -11.894   1.483  1.00  0.00     0.288 C 
HETATM    7  O   UNL     1      40.203 -11.603   1.426  1.00  0.00    -0.264 OA
HETATM    8  H   UNL     1      37.569 -13.163   2.384  1.00  0.00     0.190 HD
BRANCH   6   9
HETATM    9  C   UNL     1      37.998 -11.179   0.757  1.00  0.00     0.121 A 
HETATM   10  N   UNL     1      38.140 -10.881  -0.570  1.00  0.00    -0.272 N 
HETATM   11  H   UNL     1      38.930 -11.109  -1.165  1.00  0.00     0.189 HD
HETATM   12  N   UNL     1      37.097 -10.230  -1.103  1.00  0.00    -0.174 NA
HETATM   13  C   UNL     1      36.231 -10.080  -0.088  1.00  0.00     0.089 A 
HETATM   14  C   UNL     1      36.765 -10.660   1.100  1.00  0.00     0.071 A 
BRANCH  13  15
HETATM   15  C   UNL     1      34.934  -9.418  -0.271  1.00  0.00    -0.005 A 
HETATM   16  C   UNL     1      34.352  -9.336  -1.542  1.00  0.00     0.016 A 
HETATM   17  C   UNL     1      33.104  -8.731  -1.720  1.00  0.00     0.037 A 
HETATM   18  C   UNL     1      32.413  -8.194  -0.634  1.00  0.00     0.068 A 
HETATM   19  C   UNL     1      32.990  -8.253   0.634  1.00  0.00     0.037 A 
HETATM   20  C   UNL     1      34.241  -8.862   0.813  1.00  0.00     0.016 A 
BRANCH  18  21
HETATM   21  O   UNL     1      31.201  -7.641  -0.942  1.00  0.00    -0.356 OA
HETATM   22  C   UNL     1      31.214  -6.343  -1.523  1.00  0.00     0.210 C 
ENDBRANCH  18  21
ENDBRANCH  13  15
ENDBRANCH   6   9
ENDBRANCH   2   5
BRANCH   1  23
HETATM   23  C   UNL     1      40.879 -15.573   3.448  1.00  0.00     0.077 A 
HETATM   24  C   UNL     1      42.169 -16.055   3.216  1.00  0.00     0.048 A 
HETATM   25  N   UNL     1      42.570 -16.624   4.416  1.00  0.00    -0.269 N 
HETATM   26  N   UNL     1      41.642 -16.523   5.388  1.00  0.00    -0.183 NA
HETATM   27  C   UNL     1      40.630 -15.895   4.803  1.00  0.00     0.158 A 
BRANCH  24  28
HETATM   28  C   UNL     1      43.063 -16.016   2.016  1.00  0.00     0.055 C 
HETATM   29  C   UNL     1      43.636 -14.629   1.768  1.00  0.00     0.011 C 
ENDBRANCH  24  28
BRANCH  25  30
HETATM   30  C   UNL     1      43.860 -17.220   4.767  1.00  0.00     0.189 C 
BRANCH  30  31
HETATM   31  C   UNL     1      43.932 -18.703   4.487  1.00  0.00    -0.038 A 
HETATM   32  C   UNL     1      43.939 -19.616   5.552  1.00  0.00     0.009 A 
HETATM   33  C   UNL     1      43.953 -20.992   5.309  1.00  0.00     0.001 A 
HETATM   34  C   UNL     1      43.953 -21.470   4.001  1.00  0.00     0.000 A 
HETATM   35  C   UNL     1      43.930 -20.576   2.935  1.00  0.00     0.001 A 
HETATM   36  C   UNL     1      43.911 -19.201   3.174  1.00  0.00     0.009 A 
ENDBRANCH  30  31
ENDBRANCH  25  30
ENDBRANCH   1  23
TORSDOF 8
ENDMDL
MODEL 8
REMARK VINA RESULT:      -7.8      2.029      2.547
REMARK  8 active torsions:
REMARK  status: ('A' for Active; 'I' for Inactive)
REMARK    1  A    between atoms: C_2  and  C_3 
REMARK    2  A    between atoms: N_4  and  C_5 
REMARK    3  A    between atoms: C_5  and  C_6 
REMARK    4  A    between atoms: C_14  and  C_15 
REMARK       I    between atoms: C_15  and  N_16 
REMARK    5  A    between atoms: N_16  and  N_17 
REMARK       I    between atoms: N_17  and  C_18 
REMARK    6  A    between atoms: C_18  and  C_19 
REMARK    7  A    between atoms: C_23  and  C_24 
REMARK    8  A    between atoms: C_27  and  O_28 
ROOT
HETATM    1  C   UNL     1      40.334 -11.555   6.417  1.00  0.00     0.273 C 
HETATM    2  N   UNL     1      41.141 -10.625   7.036  1.00  0.00    -0.263 N 
HETATM    3  O   UNL     1      39.213 -11.808   6.863  1.00  0.00    -0.266 OA
HETATM    4  H   UNL     1      42.039 -10.317   6.685  1.00  0.00     0.190 HD
ENDROOT
BRANCH   2   5
HETATM    5  N   UNL     1      40.651  -9.972   8.175  1.00  0.00    -0.262 N 
HETATM    6  C   UNL     1      41.543  -9.431   9.075  1.00  0.00     0.288 C 
HETATM    7  O   UNL     1      42.757  -9.445   8.872  1.00  0.00    -0.264 OA
HETATM    8  H   UNL     1      39.651 -10.044   8.342  1.00  0.00     0.190 HD
BRANCH   6   9
HETATM    9  C   UNL     1      40.958  -8.853  10.252  1.00  0.00     0.121 A 
HETATM   10  N   UNL     1      39.667  -8.405  10.268  1.00  0.00    -0.272 N 
HETATM   11  H   UNL     1      39.007  -8.418   9.497  1.00  0.00     0.189 HD
HETATM   12  N   UNL     1      39.268  -7.916  11.450  1.00  0.00    -0.174 NA
HETATM   13  C   UNL     1      40.341  -8.035  12.250  1.00  0.00     0.089 A 
HETATM   14  C   UNL     1      41.425  -8.616  11.530  1.00  0.00     0.071 A 
BRANCH  13  15
HETATM   15  C   UNL     1      40.305  -7.618  13.656  1.00  0.00    -0.005 A 
HETATM   16  C   UNL     1      41.112  -8.255  14.607  1.00  0.00     0.016 A 
HETATM   17  C   UNL     1      41.104  -7.844  15.943  1.00  0.00     0.037 A 
HETATM   18  C   UNL     1      40.289  -6.792  16.359  1.00  0.00     0.068 A 
HETATM   19  C   UNL     1      39.468  -6.161  15.425  1.00  0.00     0.037 A 
HETATM   20  C   UNL     1      39.477  -6.570  14.084  1.00  0.00     0.016 A 
BRANCH  18  21
HETATM   21  O   UNL     1      40.383  -6.484  17.688  1.00  0.00    -0.356 OA
HETATM   22  C   UNL     1      41.686  -6.478  18.256  1.00  0.00     0.210 C 
ENDBRANCH  18  21
ENDBRANCH  13  15
ENDBRANCH   6   9
ENDBRANCH   2   5
BRANCH   1  23
HETATM   23  C   UNL     1      40.847 -12.205   5.219  1.00  0.00     0.077 A 
HETATM   24  C   UNL     1      42.135 -12.529   4.785  1.00  0.00     0.048 A 
HETATM   25  N   UNL     1      41.964 -13.157   3.561  1.00  0.00    -0.269 N 
HETATM   26  N   UNL     1      40.671 -13.270   3.198  1.00  0.00    -0.183 NA
HETATM   27  C   UNL     1      40.006 -12.697   4.193  1.00  0.00     0.158 A 
BRANCH  24  28
HETATM   28  C   UNL     1      43.487 -12.337   5.400  1.00  0.00     0.055 C 
HETATM   29  C   UNL     1      43.688 -13.206   6.633  1.00  0.00     0.011 C 
ENDBRANCH  24  28
BRANCH  25  30
HETATM   30  C   UNL     1      42.970 -13.765   2.689  1.00  0.00     0.189 C 
BRANCH  30  31
HETATM   31  C   UNL     1      43.083 -15.262   2.853  1.00  0.00    -0.038 A 
HETATM   32  C   UNL     1      43.196 -16.083   1.721  1.00  0.00     0.009 A 
HETATM   33  C   UNL     1      43.353 -17.465   1.857  1.00  0.00     0.001 A 
HETATM   34  C   UNL     1      43.407 -18.040   3.124  1.00  0.00     0.000 A 
HETATM   35  C   UNL     1      43.312 -17.236   4.256  1.00  0.00     0.001 A 
HETATM   36  C   UNL     1      43.160 -15.855   4.124  1.00  0.00     0.009 A 
ENDBRANCH  30  31
ENDBRANCH  25  30
ENDBRANCH   1  23
TORSDOF 8
ENDMDL
MODEL 9
REMARK VINA RESULT:      -7.8      1.877      2.765
REMARK  8 active torsions:
REMARK  status: ('A' for Active; 'I' for Inactive)
REMARK    1  A    between atoms: C_2  and  C_3 
REMARK    2  A    between atoms: N_4  and  C_5 
REMARK    3  A    between atoms: C_5  and  C_6 
REMARK    4  A    between atoms: C_14  and  C_15 
REMARK       I    between atoms: C_15  and  N_16 
REMARK    5  A    between atoms: N_16  and  N_17 
REMARK       I    between atoms: N_17  and  C_18 
REMARK    6  A    between atoms: C_18  and  C_19 
REMARK    7  A    between atoms: C_23  and  C_24 
REMARK    8  A    between atoms: C_27  and  O_28 
ROOT
HETATM    1  C   UNL     1      41.827 -10.461   6.842  1.00  0.00     0.273 C 
HETATM    2  N   UNL     1      42.739 -10.422   7.873  1.00  0.00    -0.263 N 
HETATM    3  O   UNL     1      40.671 -10.068   7.012  1.00  0.00    -0.266 OA
HETATM    4  H   UNL     1      43.719 -10.659   7.786  1.00  0.00     0.190 HD
ENDROOT
BRANCH   2   5
HETATM    5  N   UNL     1      42.321  -9.917   9.113  1.00  0.00    -0.262 N 
HETATM    6  C   UNL     1      43.056 -10.211  10.240  1.00  0.00     0.288 C 
HETATM    7  O   UNL     1      44.107 -10.848  10.181  1.00  0.00    -0.264 OA
HETATM    8  H   UNL     1      41.414  -9.459   9.131  1.00  0.00     0.190 HD
BRANCH   6   9
HETATM    9  C   UNL     1      42.512  -9.722  11.475  1.00  0.00     0.121 A 
HETATM   10  N   UNL     1      41.511 -10.382  12.132  1.00  0.00    -0.272 N 
HETATM   11  H   UNL     1      41.053 -11.240  11.843  1.00  0.00     0.189 HD
HETATM   12  N   UNL     1      41.134  -9.805  13.282  1.00  0.00    -0.174 NA
HETATM   13  C   UNL     1      41.908  -8.713  13.388  1.00  0.00     0.089 A 
HETATM   14  C   UNL     1      42.784  -8.624  12.268  1.00  0.00     0.071 A 
BRANCH  13  15
HETATM   15  C   UNL     1      41.810  -7.807  14.538  1.00  0.00    -0.005 A 
HETATM   16  C   UNL     1      42.136  -6.451  14.405  1.00  0.00     0.016 A 
HETATM   17  C   UNL     1      42.018  -5.577  15.490  1.00  0.00     0.037 A 
HETATM   18  C   UNL     1      41.575  -6.037  16.730  1.00  0.00     0.068 A 
HETATM   19  C   UNL     1      41.264  -7.388  16.880  1.00  0.00     0.037 A 
HETATM   20  C   UNL     1      41.379  -8.265  15.792  1.00  0.00     0.016 A 
BRANCH  18  21
HETATM   21  O   UNL     1      41.496  -5.079  17.702  1.00  0.00    -0.356 OA
HETATM   22  C   UNL     1      41.346  -3.733  17.268  1.00  0.00     0.210 C 
ENDBRANCH  18  21
ENDBRANCH  13  15
ENDBRANCH   6   9
ENDBRANCH   2   5
BRANCH   1  23
HETATM   23  C   UNL     1      42.284 -10.964   5.553  1.00  0.00     0.077 A 
HETATM   24  C   UNL     1      42.919 -12.145   5.160  1.00  0.00     0.048 A 
HETATM   25  N   UNL     1      43.077 -12.037   3.787  1.00  0.00    -0.269 N 
HETATM   26  N   UNL     1      42.577 -10.892   3.282  1.00  0.00    -0.183 NA
HETATM   27  C   UNL     1      42.105 -10.251   4.345  1.00  0.00     0.158 A 
BRANCH  24  28
HETATM   28  C   UNL     1      43.363 -13.356   5.920  1.00  0.00     0.055 C 
HETATM   29  C   UNL     1      42.191 -14.214   6.374  1.00  0.00     0.011 C 
ENDBRANCH  24  28
BRANCH  25  30
HETATM   30  C   UNL     1      43.622 -13.014   2.843  1.00  0.00     0.189 C 
BRANCH  30  31
HETATM   31  C   UNL     1      42.736 -14.222   2.649  1.00  0.00    -0.038 A 
HETATM   32  C   UNL     1      41.482 -14.078   2.036  1.00  0.00     0.009 A 
HETATM   33  C   UNL     1      40.672 -15.192   1.802  1.00  0.00     0.001 A 
HETATM   34  C   UNL     1      41.110 -16.463   2.171  1.00  0.00     0.000 A 
HETATM   35  C   UNL     1      42.358 -16.622   2.765  1.00  0.00     0.001 A 
HETATM   36  C   UNL     1      43.171 -15.511   2.996  1.00  0.00     0.009 A 
ENDBRANCH  30  31
ENDBRANCH  25  30
ENDBRANCH   1  23
TORSDOF 8
ENDMDL
MODEL 10
REMARK VINA RESULT:      -7.7      7.597     12.789
REMARK  8 active torsions:
REMARK  status: ('A' for Active; 'I' for Inactive)
REMARK    1  A    between atoms: C_2  and  C_3 
REMARK    2  A    between atoms: N_4  and  C_5 
REMARK    3  A    between atoms: C_5  and  C_6 
REMARK    4  A    between atoms: C_14  and  C_15 
REMARK       I    between atoms: C_15  and  N_16 
REMARK    5  A    between atoms: N_16  and  N_17 
REMARK       I    between atoms: N_17  and  C_18 
REMARK    6  A    between atoms: C_18  and  C_19 
REMARK    7  A    between atoms: C_23  and  C_24 
REMARK    8  A    between atoms: C_27  and  O_28 
ROOT
HETATM    1  C   UNL     1      40.200 -13.959   1.864  1.00  0.00     0.273 C 
HETATM    2  N   UNL     1      40.099 -13.908   0.491  1.00  0.00    -0.263 N 
HETATM    3  O   UNL     1      39.319 -13.472   2.576  1.00  0.00    -0.266 OA
HETATM    4  H   UNL     1      40.745 -14.349  -0.152  1.00  0.00     0.190 HD
ENDROOT
BRANCH   2   5
HETATM    5  N   UNL     1      38.969 -13.297  -0.071  1.00  0.00    -0.262 N 
HETATM    6  C   UNL     1      39.138 -12.263  -0.964  1.00  0.00     0.288 C 
HETATM    7  O   UNL     1      40.256 -11.904  -1.336  1.00  0.00    -0.264 OA
HETATM    8  H   UNL     1      38.069 -13.573   0.314  1.00  0.00     0.190 HD
BRANCH   6   9
HETATM    9  C   UNL     1      37.929 -11.644  -1.427  1.00  0.00     0.121 A 
HETATM   10  N   UNL     1      37.257 -10.724  -0.673  1.00  0.00    -0.272 N 
HETATM   11  H   UNL     1      37.510 -10.391   0.252  1.00  0.00     0.189 HD
HETATM   12  N   UNL     1      36.160 -10.225  -1.260  1.00  0.00    -0.174 NA
HETATM   13  C   UNL     1      36.095 -10.846  -2.449  1.00  0.00     0.089 A 
HETATM   14  C   UNL     1      37.188 -11.750  -2.589  1.00  0.00     0.071 A 
BRANCH  13  15
HETATM   15  C   UNL     1      35.026 -10.558  -3.412  1.00  0.00    -0.005 A 
HETATM   16  C   UNL     1      33.684 -10.758  -3.065  1.00  0.00     0.016 A 
HETATM   17  C   UNL     1      32.659 -10.459  -3.968  1.00  0.00     0.037 A 
HETATM   18  C   UNL     1      32.952  -9.958  -5.237  1.00  0.00     0.068 A 
HETATM   19  C   UNL     1      34.285  -9.772  -5.601  1.00  0.00     0.037 A 
HETATM   20  C   UNL     1      35.314 -10.069  -4.695  1.00  0.00     0.016 A 
BRANCH  18  21
HETATM   21  O   UNL     1      31.860  -9.698  -6.017  1.00  0.00    -0.356 OA
HETATM   22  C   UNL     1      31.849 -10.271  -7.319  1.00  0.00     0.210 C 
ENDBRANCH  18  21
ENDBRANCH  13  15
ENDBRANCH   6   9
ENDBRANCH   2   5
BRANCH   1  23
HETATM   23  C   UNL     1      41.367 -14.620   2.432  1.00  0.00     0.077 A 
HETATM   24  C   UNL     1      41.544 -15.477   3.520  1.00  0.00     0.048 A 
HETATM   25  N   UNL     1      42.897 -15.779   3.535  1.00  0.00    -0.269 N 
HETATM   26  N   UNL     1      43.583 -15.195   2.533  1.00  0.00    -0.183 NA
HETATM   27  C   UNL     1      42.663 -14.500   1.875  1.00  0.00     0.158 A 
BRANCH  24  28
HETATM   28  C   UNL     1      40.588 -16.055   4.517  1.00  0.00     0.055 C 
HETATM   29  C   UNL     1      40.536 -15.243   5.803  1.00  0.00     0.011 C 
ENDBRANCH  24  28
BRANCH  25  30
HETATM   30  C   UNL     1      43.629 -16.688   4.419  1.00  0.00     0.189 C 
BRANCH  30  31
HETATM   31  C   UNL     1      43.629 -18.121   3.942  1.00  0.00    -0.038 A 
HETATM   32  C   UNL     1      43.335 -18.411   2.601  1.00  0.00     0.009 A 
HETATM   33  C   UNL     1      43.382 -19.726   2.131  1.00  0.00     0.001 A 
HETATM   34  C   UNL     1      43.731 -20.763   2.993  1.00  0.00     0.000 A 
HETATM   35  C   UNL     1      44.041 -20.488   4.321  1.00  0.00     0.001 A 
HETATM   36  C   UNL     1      43.999 -19.175   4.793  1.00  0.00     0.009 A 
ENDBRANCH  30  31
ENDBRANCH  25  30
ENDBRANCH   1  23
TORSDOF 8
ENDMDL
