MODEL 1
REMARK VINA RESULT:      -8.3      0.000      0.000
REMARK  4 active torsions:
REMARK  status: ('A' for Active; 'I' for Inactive)
REMARK    1  A    between atoms: C_7  and  C_8 
REMARK    2  A    between atoms: C_8  and  N_9 
REMARK    3  A    between atoms: N_15  and  C_17 
REMARK    4  A    between atoms: C_21  and  C_22 
ROOT
HETATM    1  N   UNL     1      43.219 -11.628   5.789  1.00  0.00    -0.067 N 
HETATM    2  H   UNL     1      43.669 -10.718   5.609  1.00  0.00     0.280 HD
HETATM    3  C   UNL     1      43.541 -12.481   4.596  1.00  0.00     0.236 C 
HETATM    4  C   UNL     1      42.773 -13.800   4.646  1.00  0.00     0.039 C 
HETATM    5  C   UNL     1      41.233 -13.650   4.798  1.00  0.00    -0.013 C 
HETATM    6  C   UNL     1      40.563 -13.132   3.500  1.00  0.00     0.245 C 
HETATM    7  N   UNL     1      40.592 -14.177   2.411  1.00  0.00    -0.065 N 
HETATM    8  H   UNL     1      41.564 -14.447   2.209  1.00  0.00     0.280 HD
HETATM    9  C   UNL     1      39.858 -15.454   2.813  1.00  0.00     0.244 C 
HETATM   10  C   UNL     1      40.519 -16.080   4.054  1.00  0.00     0.045 C 
HETATM   11  C   UNL     1      40.568 -15.010   5.177  1.00  0.00     0.022 C 
HETATM   12  C   UNL     1      40.961 -12.661   5.975  1.00  0.00     0.039 C 
HETATM   13  C   UNL     1      41.752 -11.355   5.928  1.00  0.00     0.236 C 
ENDROOT
BRANCH   7  14
HETATM   14  C   UNL     1      40.028 -13.639   1.127  1.00  0.00     0.188 A 
HETATM   15  C   UNL     1      40.995 -13.440  -0.007  1.00  0.00     0.035 A 
HETATM   16  C   UNL     1      40.005 -14.569  -0.052  1.00  0.00     0.035 A 
ENDBRANCH   7  14
BRANCH  10  17
HETATM   17  C   UNL     1      41.850 -16.795   3.839  1.00  0.00    -0.052 A 
HETATM   18  C   UNL     1      42.320 -17.211   2.581  1.00  0.00     0.007 A 
HETATM   19  C   UNL     1      43.555 -17.855   2.448  1.00  0.00     0.001 A 
HETATM   20  C   UNL     1      44.333 -18.122   3.568  1.00  0.00     0.000 A 
HETATM   21  C   UNL     1      43.867 -17.769   4.828  1.00  0.00     0.001 A 
HETATM   22  C   UNL     1      42.635 -17.125   4.962  1.00  0.00     0.007 A 
ENDBRANCH  10  17
BRANCH   1  23
HETATM   23  C   UNL     1      43.894 -12.061   7.091  1.00  0.00     0.277 C 
BRANCH  23  24
HETATM   24  C   UNL     1      44.217 -10.904   7.960  1.00  0.00     0.011 A 
HETATM   25  C   UNL     1      45.464 -10.226   8.075  1.00  0.00     0.060 A 
HETATM   26  C   UNL     1      46.759 -10.530   7.414  1.00  0.00     0.073 C 
HETATM   27  N   UNL     1      45.368  -9.164   8.875  1.00  0.00    -0.178 NA
HETATM   28  N   UNL     1      44.123  -9.212   9.367  1.00  0.00    -0.284 N 
HETATM   29  C   UNL     1      43.687  -8.223  10.326  1.00  0.00     0.179 C 
HETATM   30  C   UNL     1      43.378 -10.223   8.826  1.00  0.00     0.122 A 
ENDBRANCH  23  24
ENDBRANCH   1  23
TORSDOF 4
ENDMDL
MODEL 2
REMARK VINA RESULT:      -8.2      3.033      7.959
REMARK  4 active torsions:
REMARK  status: ('A' for Active; 'I' for Inactive)
REMARK    1  A    between atoms: C_7  and  C_8 
REMARK    2  A    between atoms: C_8  and  N_9 
REMARK    3  A    between atoms: N_15  and  C_17 
REMARK    4  A    between atoms: C_21  and  C_22 
ROOT
HETATM    1  N   UNL     1      41.421 -14.542   0.757  1.00  0.00    -0.067 N 
HETATM    2  H   UNL     1      41.790 -15.000  -0.091  1.00  0.00     0.280 HD
HETATM    3  C   UNL     1      42.570 -14.491   1.721  1.00  0.00     0.236 C 
HETATM    4  C   UNL     1      42.108 -14.005   3.093  1.00  0.00     0.039 C 
HETATM    5  C   UNL     1      40.929 -14.811   3.706  1.00  0.00    -0.013 C 
HETATM    6  C   UNL     1      41.366 -16.220   4.183  1.00  0.00     0.245 C 
HETATM    7  N   UNL     1      42.254 -16.137   5.400  1.00  0.00    -0.065 N 
HETATM    8  H   UNL     1      43.088 -15.573   5.190  1.00  0.00     0.280 HD
HETATM    9  C   UNL     1      41.558 -15.464   6.581  1.00  0.00     0.244 C 
HETATM   10  C   UNL     1      41.164 -14.021   6.214  1.00  0.00     0.045 C 
HETATM   11  C   UNL     1      40.303 -14.061   4.922  1.00  0.00     0.022 C 
HETATM   12  C   UNL     1      39.815 -14.933   2.619  1.00  0.00     0.039 C 
HETATM   13  C   UNL     1      40.292 -15.398   1.243  1.00  0.00     0.236 C 
ENDROOT
BRANCH   7  14
HETATM   14  C   UNL     1      42.752 -17.497   5.802  1.00  0.00     0.188 A 
HETATM   15  C   UNL     1      44.230 -17.742   5.669  1.00  0.00     0.035 A 
HETATM   16  C   UNL     1      43.615 -17.572   7.029  1.00  0.00     0.035 A 
ENDBRANCH   7  14
BRANCH  10  17
HETATM   17  C   UNL     1      42.289 -12.992   6.161  1.00  0.00    -0.052 A 
HETATM   18  C   UNL     1      42.150 -11.710   5.604  1.00  0.00     0.007 A 
HETATM   19  C   UNL     1      43.220 -10.807   5.594  1.00  0.00     0.001 A 
HETATM   20  C   UNL     1      44.455 -11.174   6.114  1.00  0.00     0.000 A 
HETATM   21  C   UNL     1      44.633 -12.454   6.623  1.00  0.00     0.001 A 
HETATM   22  C   UNL     1      43.566 -13.355   6.634  1.00  0.00     0.007 A 
ENDBRANCH  10  17
BRANCH   1  23
HETATM   23  C   UNL     1      40.977 -13.184   0.211  1.00  0.00     0.277 C 
BRANCH  23  24
HETATM   24  C   UNL     1      39.876 -13.314  -0.774  1.00  0.00     0.011 A 
HETATM   25  C   UNL     1      38.646 -12.597  -0.799  1.00  0.00     0.060 A 
HETATM   26  C   UNL     1      38.125 -11.595   0.167  1.00  0.00     0.073 C 
HETATM   27  N   UNL     1      37.934 -12.893  -1.886  1.00  0.00    -0.178 NA
HETATM   28  N   UNL     1      38.622 -13.867  -2.497  1.00  0.00    -0.284 N 
HETATM   29  C   UNL     1      38.102 -14.471  -3.702  1.00  0.00     0.179 C 
HETATM   30  C   UNL     1      39.814 -14.137  -1.884  1.00  0.00     0.122 A 
ENDBRANCH  23  24
ENDBRANCH   1  23
TORSDOF 4
ENDMDL
MODEL 3
REMARK VINA RESULT:      -8.2      2.602      7.602
REMARK  4 active torsions:
REMARK  status: ('A' for Active; 'I' for Inactive)
REMARK    1  A    between atoms: C_7  and  C_8 
REMARK    2  A    between atoms: C_8  and  N_9 
REMARK    3  A    between atoms: N_15  and  C_17 
REMARK    4  A    between atoms: C_21  and  C_22 
ROOT
HETATM    1  N   UNL     1      42.527 -16.496   5.437  1.00  0.00    -0.067 N 
HETATM    2  H   UNL     1      42.072 -17.322   5.854  1.00  0.00     0.280 HD
HETATM    3  C   UNL     1      42.447 -15.421   6.481  1.00  0.00     0.236 C 
HETATM    4  C   UNL     1      42.918 -14.081   5.920  1.00  0.00     0.039 C 
HETATM    5  C   UNL     1      42.189 -13.626   4.626  1.00  0.00    -0.013 C 
HETATM    6  C   UNL     1      40.732 -13.172   4.901  1.00  0.00     0.245 C 
HETATM    7  N   UNL     1      40.695 -11.870   5.663  1.00  0.00    -0.065 N 
HETATM    8  H   UNL     1      41.197 -11.971   6.556  1.00  0.00     0.280 HD
HETATM    9  C   UNL     1      41.379 -10.735   4.904  1.00  0.00     0.244 C 
HETATM   10  C   UNL     1      42.862 -11.073   4.662  1.00  0.00     0.045 C 
HETATM   11  C   UNL     1      42.941 -12.444   3.938  1.00  0.00     0.022 C 
HETATM   12  C   UNL     1      42.199 -14.822   3.623  1.00  0.00     0.039 C 
HETATM   13  C   UNL     1      41.749 -16.163   4.201  1.00  0.00     0.236 C 
ENDROOT
BRANCH   7  14
HETATM   14  C   UNL     1      39.286 -11.483   6.010  1.00  0.00     0.188 A 
HETATM   15  C   UNL     1      39.082 -10.776   7.321  1.00  0.00     0.035 A 
HETATM   16  C   UNL     1      38.966 -10.016   6.031  1.00  0.00     0.035 A 
ENDBRANCH   7  14
BRANCH  10  17
HETATM   17  C   UNL     1      43.797 -10.967   5.864  1.00  0.00    -0.052 A 
HETATM   18  C   UNL     1      45.155 -11.326   5.832  1.00  0.00     0.007 A 
HETATM   19  C   UNL     1      45.963 -11.196   6.967  1.00  0.00     0.001 A 
HETATM   20  C   UNL     1      45.427 -10.733   8.163  1.00  0.00     0.000 A 
HETATM   21  C   UNL     1      44.076 -10.422   8.235  1.00  0.00     0.001 A 
HETATM   22  C   UNL     1      43.269 -10.550   7.103  1.00  0.00     0.007 A 
ENDBRANCH  10  17
BRANCH   1  23
HETATM   23  C   UNL     1      43.936 -17.020   5.158  1.00  0.00     0.277 C 
BRANCH  23  24
HETATM   24  C   UNL     1      43.915 -18.303   4.414  1.00  0.00     0.011 A 
HETATM   25  C   UNL     1      43.786 -19.615   4.952  1.00  0.00     0.060 A 
HETATM   26  C   UNL     1      43.701 -20.042   6.372  1.00  0.00     0.073 C 
HETATM   27  N   UNL     1      43.701 -20.530   3.985  1.00  0.00    -0.178 NA
HETATM   28  N   UNL     1      43.890 -19.850   2.847  1.00  0.00    -0.284 N 
HETATM   29  C   UNL     1      43.912 -20.550   1.583  1.00  0.00     0.179 C 
HETATM   30  C   UNL     1      43.994 -18.501   3.047  1.00  0.00     0.122 A 
ENDBRANCH  23  24
ENDBRANCH   1  23
TORSDOF 4
ENDMDL
MODEL 4
REMARK VINA RESULT:      -7.7      1.730      2.538
REMARK  4 active torsions:
REMARK  status: ('A' for Active; 'I' for Inactive)
REMARK    1  A    between atoms: C_7  and  C_8 
REMARK    2  A    between atoms: C_8  and  N_9 
REMARK    3  A    between atoms: N_15  and  C_17 
REMARK    4  A    between atoms: C_21  and  C_22 
ROOT
HETATM    1  N   UNL     1      41.762 -10.326   4.979  1.00  0.00    -0.067 N 
HETATM    2  H   UNL     1      42.305  -9.461   5.122  1.00  0.00     0.280 HD
HETATM    3  C   UNL     1      42.526 -11.118   3.958  1.00  0.00     0.236 C 
HETATM    4  C   UNL     1      41.729 -12.343   3.512  1.00  0.00     0.039 C 
HETATM    5  C   UNL     1      40.299 -12.033   2.989  1.00  0.00    -0.013 C 
HETATM    6  C   UNL     1      40.317 -11.348   1.599  1.00  0.00     0.245 C 
HETATM    7  N   UNL     1      40.761 -12.305   0.519  1.00  0.00    -0.065 N 
HETATM    8  H   UNL     1      41.699 -12.668   0.735  1.00  0.00     0.280 HD
HETATM    9  C   UNL     1      39.839 -13.518   0.407  1.00  0.00     0.244 C 
HETATM   10  C   UNL     1      39.830 -14.305   1.730  1.00  0.00     0.045 C 
HETATM   11  C   UNL     1      39.444 -13.333   2.877  1.00  0.00     0.022 C 
HETATM   12  C   UNL     1      39.595 -11.109   4.034  1.00  0.00     0.039 C 
HETATM   13  C   UNL     1      40.410  -9.901   4.491  1.00  0.00     0.236 C 
ENDROOT
BRANCH   7  14
HETATM   14  C   UNL     1      40.869 -11.613  -0.810  1.00  0.00     0.188 A 
HETATM   15  C   UNL     1      41.088 -12.489  -2.012  1.00  0.00     0.035 A 
HETATM   16  C   UNL     1      39.753 -11.839  -1.789  1.00  0.00     0.035 A 
ENDBRANCH   7  14
BRANCH  10  17
HETATM   17  C   UNL     1      41.066 -15.147   2.039  1.00  0.00    -0.052 A 
HETATM   18  C   UNL     1      42.200 -15.203   1.211  1.00  0.00     0.007 A 
HETATM   19  C   UNL     1      43.306 -15.989   1.555  1.00  0.00     0.001 A 
HETATM   20  C   UNL     1      43.291 -16.755   2.714  1.00  0.00     0.000 A 
HETATM   21  C   UNL     1      42.161 -16.758   3.522  1.00  0.00     0.001 A 
HETATM   22  C   UNL     1      41.058 -15.974   3.180  1.00  0.00     0.007 A 
ENDBRANCH  10  17
BRANCH   1  23
HETATM   23  C   UNL     1      41.751 -10.927   6.385  1.00  0.00     0.277 C 
BRANCH  23  24
HETATM   24  C   UNL     1      43.073 -10.816   7.047  1.00  0.00     0.011 A 
HETATM   25  C   UNL     1      44.065 -11.829   7.179  1.00  0.00     0.060 A 
HETATM   26  C   UNL     1      44.015 -13.251   6.750  1.00  0.00     0.073 C 
HETATM   27  N   UNL     1      45.176 -11.351   7.740  1.00  0.00    -0.178 NA
HETATM   28  N   UNL     1      44.878 -10.090   8.078  1.00  0.00    -0.284 N 
HETATM   29  C   UNL     1      45.854  -9.278   8.768  1.00  0.00     0.179 C 
HETATM   30  C   UNL     1      43.635  -9.708   7.656  1.00  0.00     0.122 A 
ENDBRANCH  23  24
ENDBRANCH   1  23
TORSDOF 4
ENDMDL
MODEL 5
REMARK VINA RESULT:      -7.7     16.618     18.712
REMARK  4 active torsions:
REMARK  status: ('A' for Active; 'I' for Inactive)
REMARK    1  A    between atoms: C_7  and  C_8 
REMARK    2  A    between atoms: C_8  and  N_9 
REMARK    3  A    between atoms: N_15  and  C_17 
REMARK    4  A    between atoms: C_21  and  C_22 
ROOT
HETATM    1  N   UNL     1      45.639 -30.186   2.849  1.00  0.00    -0.067 N 
HETATM    2  H   UNL     1      45.442 -30.873   3.592  1.00  0.00     0.280 HD
HETATM    3  C   UNL     1      45.644 -30.967   1.567  1.00  0.00     0.236 C 
HETATM    4  C   UNL     1      46.113 -30.098   0.402  1.00  0.00     0.039 C 
HETATM    5  C   UNL     1      47.491 -29.411   0.616  1.00  0.00    -0.013 C 
HETATM    6  C   UNL     1      48.667 -30.418   0.539  1.00  0.00     0.245 C 
HETATM    7  N   UNL     1      48.870 -30.920  -0.869  1.00  0.00    -0.065 N 
HETATM    8  H   UNL     1      48.011 -31.372  -1.209  1.00  0.00     0.280 HD
HETATM    9  C   UNL     1      49.186 -29.790  -1.847  1.00  0.00     0.244 C 
HETATM   10  C   UNL     1      48.021 -28.784  -1.892  1.00  0.00     0.045 C 
HETATM   11  C   UNL     1      47.737 -28.296  -0.447  1.00  0.00     0.022 C 
HETATM   12  C   UNL     1      47.468 -28.716   2.014  1.00  0.00     0.039 C 
HETATM   13  C   UNL     1      46.975 -29.587   3.169  1.00  0.00     0.236 C 
ENDROOT
BRANCH   7  14
HETATM   14  C   UNL     1      49.949 -31.965  -0.923  1.00  0.00     0.188 A 
HETATM   15  C   UNL     1      49.580 -33.285  -1.541  1.00  0.00     0.035 A 
HETATM   16  C   UNL     1      50.475 -32.333  -2.280  1.00  0.00     0.035 A 
ENDBRANCH   7  14
BRANCH  10  17
HETATM   17  C   UNL     1      46.765 -29.219  -2.643  1.00  0.00    -0.052 A 
HETATM   18  C   UNL     1      46.619 -30.470  -3.265  1.00  0.00     0.007 A 
HETATM   19  C   UNL     1      45.437 -30.812  -3.932  1.00  0.00     0.001 A 
HETATM   20  C   UNL     1      44.390 -29.904  -4.017  1.00  0.00     0.000 A 
HETATM   21  C   UNL     1      44.529 -28.640  -3.456  1.00  0.00     0.001 A 
HETATM   22  C   UNL     1      45.707 -28.298  -2.790  1.00  0.00     0.007 A 
ENDBRANCH  10  17
BRANCH   1  23
HETATM   23  C   UNL     1      44.471 -29.211   3.005  1.00  0.00     0.277 C 
BRANCH  23  24
HETATM   24  C   UNL     1      43.170 -29.849   2.689  1.00  0.00     0.011 A 
HETATM   25  C   UNL     1      42.437 -29.769   1.471  1.00  0.00     0.060 A 
HETATM   26  C   UNL     1      42.746 -28.995   0.241  1.00  0.00     0.073 C 
HETATM   27  N   UNL     1      41.358 -30.551   1.501  1.00  0.00    -0.178 NA
HETATM   28  N   UNL     1      41.317 -31.038   2.748  1.00  0.00    -0.284 N 
HETATM   29  C   UNL     1      40.229 -31.898   3.153  1.00  0.00     0.179 C 
HETATM   30  C   UNL     1      42.402 -30.670   3.496  1.00  0.00     0.122 A 
ENDBRANCH  23  24
ENDBRANCH   1  23
TORSDOF 4
ENDMDL
MODEL 6
REMARK VINA RESULT:      -7.4      3.798      7.192
REMARK  4 active torsions:
REMARK  status: ('A' for Active; 'I' for Inactive)
REMARK    1  A    between atoms: C_7  and  C_8 
REMARK    2  A    between atoms: C_8  and  N_9 
REMARK    3  A    between atoms: N_15  and  C_17 
REMARK    4  A    between atoms: C_21  and  C_22 
ROOT
HETATM    1  N   UNL     1      41.171 -12.502   3.738  1.00  0.00    -0.067 N 
HETATM    2  H   UNL     1      42.002 -12.575   4.345  1.00  0.00     0.280 HD
HETATM    3  C   UNL     1      41.699 -12.477   2.333  1.00  0.00     0.236 C 
HETATM    4  C   UNL     1      40.579 -12.180   1.337  1.00  0.00     0.039 C 
HETATM    5  C   UNL     1      39.774 -10.884   1.631  1.00  0.00    -0.013 C 
HETATM    6  C   UNL     1      40.591  -9.603   1.327  1.00  0.00     0.245 C 
HETATM    7  N   UNL     1      40.798  -9.421  -0.157  1.00  0.00    -0.065 N 
HETATM    8  H   UNL     1      41.286 -10.238  -0.546  1.00  0.00     0.280 HD
HETATM    9  C   UNL     1      39.478  -9.297  -0.915  1.00  0.00     0.244 C 
HETATM   10  C   UNL     1      38.637 -10.574  -0.731  1.00  0.00     0.045 C 
HETATM   11  C   UNL     1      38.461 -10.832   0.789  1.00  0.00     0.022 C 
HETATM   12  C   UNL     1      39.354 -10.911   3.135  1.00  0.00     0.039 C 
HETATM   13  C   UNL     1      40.476 -11.231   4.121  1.00  0.00     0.236 C 
ENDROOT
BRANCH   7  14
HETATM   14  C   UNL     1      41.670  -8.231  -0.441  1.00  0.00     0.188 A 
HETATM   15  C   UNL     1      42.814  -8.444  -1.394  1.00  0.00     0.035 A 
HETATM   16  C   UNL     1      41.610  -7.657  -1.828  1.00  0.00     0.035 A 
ENDBRANCH   7  14
BRANCH  10  17
HETATM   17  C   UNL     1      39.083 -11.809  -1.509  1.00  0.00    -0.052 A 
HETATM   18  C   UNL     1      40.245 -11.859  -2.298  1.00  0.00     0.007 A 
HETATM   19  C   UNL     1      40.604 -13.027  -2.981  1.00  0.00     0.001 A 
HETATM   20  C   UNL     1      39.799 -14.158  -2.913  1.00  0.00     0.000 A 
HETATM   21  C   UNL     1      38.618 -14.117  -2.182  1.00  0.00     0.001 A 
HETATM   22  C   UNL     1      38.259 -12.953  -1.500  1.00  0.00     0.007 A 
ENDBRANCH  10  17
BRANCH   1  23
HETATM   23  C   UNL     1      40.398 -13.768   4.113  1.00  0.00     0.277 C 
BRANCH  23  24
HETATM   24  C   UNL     1      41.151 -15.000   3.774  1.00  0.00     0.011 A 
HETATM   25  C   UNL     1      40.948 -15.861   2.658  1.00  0.00     0.060 A 
HETATM   26  C   UNL     1      39.912 -15.789   1.595  1.00  0.00     0.073 C 
HETATM   27  N   UNL     1      41.874 -16.819   2.609  1.00  0.00    -0.178 NA
HETATM   28  N   UNL     1      42.593 -16.663   3.728  1.00  0.00    -0.284 N 
HETATM   29  C   UNL     1      43.668 -17.580   4.029  1.00  0.00     0.179 C 
HETATM   30  C   UNL     1      42.218 -15.563   4.450  1.00  0.00     0.122 A 
ENDBRANCH  23  24
ENDBRANCH   1  23
TORSDOF 4
ENDMDL
MODEL 7
REMARK VINA RESULT:      -7.2     16.654     20.494
REMARK  4 active torsions:
REMARK  status: ('A' for Active; 'I' for Inactive)
REMARK    1  A    between atoms: C_7  and  C_8 
REMARK    2  A    between atoms: C_8  and  N_9 
REMARK    3  A    between atoms: N_15  and  C_17 
REMARK    4  A    between atoms: C_21  and  C_22 
ROOT
HETATM    1  N   UNL     1      44.478 -30.770  -3.989  1.00  0.00    -0.067 N 
HETATM    2  H   UNL     1      43.698 -31.417  -4.180  1.00  0.00     0.280 HD
HETATM    3  C   UNL     1      45.223 -31.365  -2.830  1.00  0.00     0.236 C 
HETATM    4  C   UNL     1      46.295 -30.404  -2.321  1.00  0.00     0.039 C 
HETATM    5  C   UNL     1      45.776 -28.986  -1.953  1.00  0.00    -0.013 C 
HETATM    6  C   UNL     1      44.940 -28.986  -0.648  1.00  0.00     0.245 C 
HETATM    7  N   UNL     1      45.807 -29.241   0.561  1.00  0.00    -0.065 N 
HETATM    8  H   UNL     1      46.289 -30.144   0.463  1.00  0.00     0.280 HD
HETATM    9  C   UNL     1      46.893 -28.181   0.728  1.00  0.00     0.244 C 
HETATM   10  C   UNL     1      47.824 -28.174  -0.499  1.00  0.00     0.045 C 
HETATM   11  C   UNL     1      46.956 -27.981  -1.771  1.00  0.00     0.022 C 
HETATM   12  C   UNL     1      44.911 -28.467  -3.146  1.00  0.00     0.039 C 
HETATM   13  C   UNL     1      43.857 -29.445  -3.662  1.00  0.00     0.236 C 
ENDROOT
BRANCH   7  14
HETATM   14  C   UNL     1      44.980 -29.335   1.812  1.00  0.00     0.188 A 
HETATM   15  C   UNL     1      44.793 -30.707   2.398  1.00  0.00     0.035 A 
HETATM   16  C   UNL     1      45.696 -29.716   3.076  1.00  0.00     0.035 A 
ENDBRANCH   7  14
BRANCH  10  17
HETATM   17  C   UNL     1      48.822 -29.322  -0.612  1.00  0.00    -0.052 A 
HETATM   18  C   UNL     1      49.526 -29.633  -1.788  1.00  0.00     0.007 A 
HETATM   19  C   UNL     1      50.436 -30.696  -1.826  1.00  0.00     0.001 A 
HETATM   20  C   UNL     1      50.641 -31.486  -0.702  1.00  0.00     0.000 A 
HETATM   21  C   UNL     1      49.918 -31.233   0.457  1.00  0.00     0.001 A 
HETATM   22  C   UNL     1      49.011 -30.172   0.496  1.00  0.00     0.007 A 
ENDBRANCH  10  17
BRANCH   1  23
HETATM   23  C   UNL     1      45.234 -30.788  -5.318  1.00  0.00     0.277 C 
BRANCH  23  24
HETATM   24  C   UNL     1      44.597 -31.690  -6.308  1.00  0.00     0.011 A 
HETATM   25  C   UNL     1      44.179 -33.037  -6.111  1.00  0.00     0.060 A 
HETATM   26  C   UNL     1      44.323 -33.896  -4.907  1.00  0.00     0.073 C 
HETATM   27  N   UNL     1      43.550 -33.512  -7.186  1.00  0.00    -0.178 NA
HETATM   28  N   UNL     1      43.657 -32.545  -8.106  1.00  0.00    -0.284 N 
HETATM   29  C   UNL     1      43.122 -32.748  -9.433  1.00  0.00     0.179 C 
HETATM   30  C   UNL     1      44.253 -31.414  -7.620  1.00  0.00     0.122 A 
ENDBRANCH  23  24
ENDBRANCH   1  23
TORSDOF 4
ENDMDL
MODEL 8
REMARK VINA RESULT:      -7.1      2.438      3.026
REMARK  4 active torsions:
REMARK  status: ('A' for Active; 'I' for Inactive)
REMARK    1  A    between atoms: C_7  and  C_8 
REMARK    2  A    between atoms: C_8  and  N_9 
REMARK    3  A    between atoms: N_15  and  C_17 
REMARK    4  A    between atoms: C_21  and  C_22 
ROOT
HETATM    1  N   UNL     1      41.711 -10.293   6.075  1.00  0.00    -0.067 N 
HETATM    2  H   UNL     1      41.993  -9.394   5.655  1.00  0.00     0.280 HD
HETATM    3  C   UNL     1      42.516 -11.341   5.364  1.00  0.00     0.236 C 
HETATM    4  C   UNL     1      42.056 -12.742   5.760  1.00  0.00     0.039 C 
HETATM    5  C   UNL     1      40.537 -13.008   5.564  1.00  0.00    -0.013 C 
HETATM    6  C   UNL     1      40.152 -13.138   4.068  1.00  0.00     0.245 C 
HETATM    7  N   UNL     1      40.694 -14.414   3.469  1.00  0.00    -0.065 N 
HETATM    8  H   UNL     1      41.719 -14.438   3.562  1.00  0.00     0.280 HD
HETATM    9  C   UNL     1      40.162 -15.658   4.176  1.00  0.00     0.244 C 
HETATM   10  C   UNL     1      40.576 -15.646   5.659  1.00  0.00     0.045 C 
HETATM   11  C   UNL     1      40.093 -14.314   6.293  1.00  0.00     0.022 C 
HETATM   12  C   UNL     1      39.755 -11.827   6.219  1.00  0.00     0.039 C 
HETATM   13  C   UNL     1      40.238 -10.429   5.834  1.00  0.00     0.236 C 
ENDROOT
BRANCH   7  14
HETATM   14  C   UNL     1      40.401 -14.490   1.998  1.00  0.00     0.188 A 
HETATM   15  C   UNL     1      41.415 -15.197   1.141  1.00  0.00     0.035 A 
HETATM   16  C   UNL     1      40.093 -15.848   1.433  1.00  0.00     0.035 A 
ENDBRANCH   7  14
BRANCH  10  17
HETATM   17  C   UNL     1      42.034 -15.972   5.969  1.00  0.00    -0.052 A 
HETATM   18  C   UNL     1      42.971 -16.365   4.998  1.00  0.00     0.007 A 
HETATM   19  C   UNL     1      44.298 -16.642   5.346  1.00  0.00     0.001 A 
HETATM   20  C   UNL     1      44.710 -16.562   6.671  1.00  0.00     0.000 A 
HETATM   21  C   UNL     1      43.790 -16.227   7.657  1.00  0.00     0.001 A 
HETATM   22  C   UNL     1      42.466 -15.949   7.311  1.00  0.00     0.007 A 
ENDBRANCH  10  17
BRANCH   1  23
HETATM   23  C   UNL     1      42.081 -10.083   7.544  1.00  0.00     0.277 C 
BRANCH  23  24
HETATM   24  C   UNL     1      41.221  -9.064   8.193  1.00  0.00     0.011 A 
HETATM   25  C   UNL     1      41.180  -7.666   7.927  1.00  0.00     0.060 A 
HETATM   26  C   UNL     1      42.011  -6.866   6.991  1.00  0.00     0.073 C 
HETATM   27  N   UNL     1      40.214  -7.067   8.624  1.00  0.00    -0.178 NA
HETATM   28  N   UNL     1      39.714  -8.024   9.417  1.00  0.00    -0.284 N 
HETATM   29  C   UNL     1      38.666  -7.706  10.360  1.00  0.00     0.179 C 
HETATM   30  C   UNL     1      40.265  -9.252   9.176  1.00  0.00     0.122 A 
ENDBRANCH  23  24
ENDBRANCH   1  23
TORSDOF 4
ENDMDL
MODEL 9
REMARK VINA RESULT:      -7.1      3.517      9.022
REMARK  4 active torsions:
REMARK  status: ('A' for Active; 'I' for Inactive)
REMARK    1  A    between atoms: C_7  and  C_8 
REMARK    2  A    between atoms: C_8  and  N_9 
REMARK    3  A    between atoms: N_15  and  C_17 
REMARK    4  A    between atoms: C_21  and  C_22 
ROOT
HETATM    1  N   UNL     1      39.343  -9.732   6.397  1.00  0.00    -0.067 N 
HETATM    2  H   UNL     1      38.483 -10.299   6.357  1.00  0.00     0.280 HD
HETATM    3  C   UNL     1      39.893  -9.928   7.780  1.00  0.00     0.236 C 
HETATM    4  C   UNL     1      41.070  -8.990   8.036  1.00  0.00     0.039 C 
HETATM    5  C   UNL     1      40.770  -7.485   7.786  1.00  0.00    -0.013 C 
HETATM    6  C   UNL     1      39.852  -6.880   8.880  1.00  0.00     0.245 C 
HETATM    7  N   UNL     1      40.575  -6.761  10.199  1.00  0.00    -0.065 N 
HETATM    8  H   UNL     1      40.906  -7.686  10.504  1.00  0.00     0.280 HD
HETATM    9  C   UNL     1      41.808  -5.864  10.106  1.00  0.00     0.244 C 
HETATM   10  C   UNL     1      42.813  -6.445   9.094  1.00  0.00     0.045 C 
HETATM   11  C   UNL     1      42.084  -6.646   7.739  1.00  0.00     0.022 C 
HETATM   12  C   UNL     1      40.092  -7.358   6.385  1.00  0.00     0.039 C 
HETATM   13  C   UNL     1      38.930  -8.317   6.131  1.00  0.00     0.236 C 
ENDROOT
BRANCH   7  14
HETATM   14  C   UNL     1      39.655  -6.263  11.278  1.00  0.00     0.188 A 
HETATM   15  C   UNL     1      39.343  -7.220  12.396  1.00  0.00     0.035 A 
HETATM   16  C   UNL     1      40.253  -6.050  12.640  1.00  0.00     0.035 A 
ENDBRANCH   7  14
BRANCH  10  17
HETATM   17  C   UNL     1      43.611  -7.667   9.541  1.00  0.00    -0.052 A 
HETATM   18  C   UNL     1      43.453  -8.289  10.791  1.00  0.00     0.007 A 
HETATM   19  C   UNL     1      44.211  -9.413  11.139  1.00  0.00     0.001 A 
HETATM   20  C   UNL     1      45.160  -9.921  10.260  1.00  0.00     0.000 A 
HETATM   21  C   UNL     1      45.373  -9.292   9.040  1.00  0.00     0.001 A 
HETATM   22  C   UNL     1      44.617  -8.171   8.692  1.00  0.00     0.007 A 
ENDBRANCH  10  17
BRANCH   1  23
HETATM   23  C   UNL     1      40.181 -10.353   5.278  1.00  0.00     0.277 C 
BRANCH  23  24
HETATM   24  C   UNL     1      40.634 -11.724   5.618  1.00  0.00     0.011 A 
HETATM   25  C   UNL     1      41.955 -12.146   5.937  1.00  0.00     0.060 A 
HETATM   26  C   UNL     1      43.213 -11.356   5.955  1.00  0.00     0.073 C 
HETATM   27  N   UNL     1      41.982 -13.431   6.293  1.00  0.00    -0.178 NA
HETATM   28  N   UNL     1      40.732 -13.871   6.097  1.00  0.00    -0.284 N 
HETATM   29  C   UNL     1      40.409 -15.259   6.337  1.00  0.00     0.179 C 
HETATM   30  C   UNL     1      39.873 -12.876   5.719  1.00  0.00     0.122 A 
ENDBRANCH  23  24
ENDBRANCH   1  23
TORSDOF 4
ENDMDL
MODEL 10
REMARK VINA RESULT:      -7.0     16.822     18.916
REMARK  4 active torsions:
REMARK  status: ('A' for Active; 'I' for Inactive)
REMARK    1  A    between atoms: C_7  and  C_8 
REMARK    2  A    between atoms: C_8  and  N_9 
REMARK    3  A    between atoms: N_15  and  C_17 
REMARK    4  A    between atoms: C_21  and  C_22 
ROOT
HETATM    1  N   UNL     1      44.766 -30.797   2.528  1.00  0.00    -0.067 N 
HETATM    2  H   UNL     1      44.714 -31.584   3.192  1.00  0.00     0.280 HD
HETATM    3  C   UNL     1      45.083 -31.412   1.196  1.00  0.00     0.236 C 
HETATM    4  C   UNL     1      45.377 -30.334   0.155  1.00  0.00     0.039 C 
HETATM    5  C   UNL     1      46.489 -29.326   0.559  1.00  0.00    -0.013 C 
HETATM    6  C   UNL     1      47.902 -29.964   0.521  1.00  0.00     0.245 C 
HETATM    7  N   UNL     1      48.341 -30.245  -0.896  1.00  0.00    -0.065 N 
HETATM    8  H   UNL     1      47.668 -30.875  -1.354  1.00  0.00     0.280 HD
HETATM    9  C   UNL     1      48.401 -28.978  -1.746  1.00  0.00     0.244 C 
HETATM   10  C   UNL     1      47.009 -28.325  -1.828  1.00  0.00     0.045 C 
HETATM   11  C   UNL     1      46.494 -28.082  -0.384  1.00  0.00     0.022 C 
HETATM   12  C   UNL     1      46.171 -28.810   1.997  1.00  0.00     0.039 C 
HETATM   13  C   UNL     1      45.855 -29.895   3.026  1.00  0.00     0.236 C 
ENDROOT
BRANCH   7  14
HETATM   14  C   UNL     1      49.668 -30.949  -0.923  1.00  0.00     0.188 A 
HETATM   15  C   UNL     1      49.685 -32.337  -1.500  1.00  0.00     0.035 A 
HETATM   16  C   UNL     1      50.281 -31.195  -2.272  1.00  0.00     0.035 A 
ENDBRANCH   7  14
BRANCH  10  17
HETATM   17  C   UNL     1      45.982 -29.003  -2.732  1.00  0.00    -0.052 A 
HETATM   18  C   UNL     1      44.654 -28.567  -2.871  1.00  0.00     0.007 A 
HETATM   19  C   UNL     1      43.762 -29.227  -3.724  1.00  0.00     0.001 A 
HETATM   20  C   UNL     1      44.169 -30.351  -4.433  1.00  0.00     0.000 A 
HETATM   21  C   UNL     1      45.462 -30.834  -4.273  1.00  0.00     0.001 A 
HETATM   22  C   UNL     1      46.352 -30.175  -3.422  1.00  0.00     0.007 A 
ENDBRANCH  10  17
BRANCH   1  23
HETATM   23  C   UNL     1      43.365 -30.195   2.643  1.00  0.00     0.277 C 
BRANCH  23  24
HETATM   24  C   UNL     1      42.390 -31.161   3.206  1.00  0.00     0.011 A 
HETATM   25  C   UNL     1      42.590 -32.063   4.289  1.00  0.00     0.060 A 
HETATM   26  C   UNL     1      43.818 -32.312   5.087  1.00  0.00     0.073 C 
HETATM   27  N   UNL     1      41.465 -32.711   4.595  1.00  0.00    -0.178 NA
HETATM   28  N   UNL     1      40.583 -32.334   3.660  1.00  0.00    -0.284 N 
HETATM   29  C   UNL     1      39.251 -32.895   3.657  1.00  0.00     0.179 C 
HETATM   30  C   UNL     1      41.080 -31.379   2.817  1.00  0.00     0.122 A 
ENDBRANCH  23  24
ENDBRANCH   1  23
TORSDOF 4
ENDMDL
