MODEL 1
REMARK VINA RESULT:      -8.7      0.000      0.000
REMARK  2 active torsions:
REMARK  status: ('A' for Active; 'I' for Inactive)
REMARK    1  A    between atoms: C_5  and  O_6 
REMARK    2  A    between atoms: C_5  and  C_7 
ROOT
HETATM    1  C   UNL     1      42.358 -10.890   4.859  1.00  0.00     0.050 C 
HETATM    2  C   UNL     1      41.771 -12.264   4.957  1.00  0.00    -0.034 A 
HETATM    3  C   UNL     1      42.177 -13.309   4.138  1.00  0.00     0.052 A 
HETATM    4  C   UNL     1      41.657 -14.608   4.238  1.00  0.00     0.039 A 
HETATM    5  C   UNL     1      42.285 -15.481   3.184  1.00  0.00     0.200 A 
HETATM    6  C   UNL     1      43.257 -14.473   2.474  1.00  0.00     0.266 A 
HETATM    7  O   UNL     1      43.997 -14.668   1.519  1.00  0.00    -0.269 OA
HETATM    8  N   UNL     1      43.119 -13.247   3.120  1.00  0.00    -0.323 N 
HETATM    9  C   UNL     1      40.672 -14.880   5.173  1.00  0.00     0.046 A 
HETATM   10 CL   UNL     1      39.951 -16.434   5.316  1.00  0.00    -0.084 Cl
HETATM   11  C   UNL     1      40.256 -13.854   6.029  1.00  0.00     0.025 A 
HETATM   12  C   UNL     1      40.805 -12.563   5.926  1.00  0.00     0.011 A 
HETATM   13  H   UNL     1      43.631 -12.428   2.828  1.00  0.00     0.169 HD
ENDROOT
BRANCH   5  14
HETATM   14  O   UNL     1      41.239 -15.916   2.320  1.00  0.00    -0.371 OA
HETATM   15  H   UNL     1      40.499 -16.149   2.906  1.00  0.00     0.212 HD
ENDBRANCH   5  14
BRANCH   5  16
HETATM   16  C   UNL     1      43.079 -16.622   3.801  1.00  0.00     0.025 A 
HETATM   17  C   UNL     1      43.225 -17.998   3.365  1.00  0.00     0.003 A 
HETATM   18  C   UNL     1      44.059 -18.644   4.279  1.00  0.00     0.043 A 
HETATM   19  C   UNL     1      42.733 -18.774   2.287  1.00  0.00     0.014 A 
HETATM   20  C   UNL     1      44.441 -19.987   4.163  1.00  0.00     0.030 A 
HETATM   21  N   UNL     1      44.379 -17.734   5.253  1.00  0.00    -0.359 N 
HETATM   22  C   UNL     1      43.953 -20.713   3.077  1.00  0.00     0.002 A 
HETATM   23  C   UNL     1      43.106 -20.117   2.152  1.00  0.00     0.001 A 
HETATM   24  H   UNL     1      44.948 -17.946   6.060  1.00  0.00     0.166 HD
HETATM   25  C   UNL     1      43.771 -16.532   5.011  1.00  0.00     0.016 A 
HETATM   26  C   UNL     1      43.892 -15.418   5.993  1.00  0.00     0.069 C 
ENDBRANCH   5  16
TORSDOF 2
ENDMDL
MODEL 2
REMARK VINA RESULT:      -8.5      2.647      6.229
REMARK  2 active torsions:
REMARK  status: ('A' for Active; 'I' for Inactive)
REMARK    1  A    between atoms: C_5  and  O_6 
REMARK    2  A    between atoms: C_5  and  C_7 
ROOT
HETATM    1  C   UNL     1      43.308 -17.656   3.738  1.00  0.00     0.050 C 
HETATM    2  C   UNL     1      42.889 -16.264   3.384  1.00  0.00    -0.034 A 
HETATM    3  C   UNL     1      42.010 -15.528   4.168  1.00  0.00     0.052 A 
HETATM    4  C   UNL     1      41.631 -14.212   3.865  1.00  0.00     0.039 A 
HETATM    5  C   UNL     1      40.645 -13.726   4.894  1.00  0.00     0.200 A 
HETATM    6  C   UNL     1      40.532 -14.974   5.841  1.00  0.00     0.266 A 
HETATM    7  O   UNL     1      39.834 -15.118   6.835  1.00  0.00    -0.269 OA
HETATM    8  N   UNL     1      41.377 -15.954   5.328  1.00  0.00    -0.323 N 
HETATM    9  C   UNL     1      42.124 -13.604   2.722  1.00  0.00     0.046 A 
HETATM   10 CL   UNL     1      41.660 -12.014   2.259  1.00  0.00    -0.084 Cl
HETATM   11  C   UNL     1      43.029 -14.310   1.922  1.00  0.00     0.025 A 
HETATM   12  C   UNL     1      43.412 -15.622   2.254  1.00  0.00     0.011 A 
HETATM   13  H   UNL     1      41.462 -16.864   5.756  1.00  0.00     0.169 HD
ENDROOT
BRANCH   5  14
HETATM   14  O   UNL     1      39.423 -13.458   4.212  1.00  0.00    -0.371 OA
HETATM   15  H   UNL     1      38.762 -13.314   4.911  1.00  0.00     0.212 HD
ENDBRANCH   5  14
BRANCH   5  16
HETATM   16  C   UNL     1      41.184 -12.533   5.668  1.00  0.00     0.025 A 
HETATM   17  C   UNL     1      42.530 -12.254   6.134  1.00  0.00     0.003 A 
HETATM   18  C   UNL     1      42.501 -11.026   6.797  1.00  0.00     0.043 A 
HETATM   19  C   UNL     1      43.778 -12.918   6.067  1.00  0.00     0.014 A 
HETATM   20  C   UNL     1      43.634 -10.426   7.363  1.00  0.00     0.030 A 
HETATM   21  N   UNL     1      41.204 -10.586   6.784  1.00  0.00    -0.359 N 
HETATM   22  C   UNL     1      44.850 -11.101   7.259  1.00  0.00     0.002 A 
HETATM   23  C   UNL     1      44.923 -12.333   6.624  1.00  0.00     0.001 A 
HETATM   24  H   UNL     1      40.891  -9.732   7.225  1.00  0.00     0.166 HD
HETATM   25  C   UNL     1      40.392 -11.488   6.152  1.00  0.00     0.016 A 
HETATM   26  C   UNL     1      38.918 -11.270   6.105  1.00  0.00     0.069 C 
ENDBRANCH   5  16
TORSDOF 2
ENDMDL
MODEL 3
REMARK VINA RESULT:      -8.5      2.168      5.995
REMARK  2 active torsions:
REMARK  status: ('A' for Active; 'I' for Inactive)
REMARK    1  A    between atoms: C_5  and  O_6 
REMARK    2  A    between atoms: C_5  and  C_7 
ROOT
HETATM    1  C   UNL     1      43.574 -19.035   6.405  1.00  0.00     0.050 C 
HETATM    2  C   UNL     1      43.257 -18.192   5.209  1.00  0.00    -0.034 A 
HETATM    3  C   UNL     1      42.314 -17.174   5.243  1.00  0.00     0.052 A 
HETATM    4  C   UNL     1      42.027 -16.357   4.139  1.00  0.00     0.039 A 
HETATM    5  C   UNL     1      40.937 -15.385   4.505  1.00  0.00     0.200 A 
HETATM    6  C   UNL     1      40.657 -15.770   6.001  1.00  0.00     0.266 A 
HETATM    7  O   UNL     1      39.832 -15.296   6.771  1.00  0.00    -0.269 OA
HETATM    8  N   UNL     1      41.522 -16.812   6.325  1.00  0.00    -0.323 N 
HETATM    9  C   UNL     1      42.685 -16.574   2.939  1.00  0.00     0.046 A 
HETATM   10 CL   UNL     1      42.347 -15.648   1.530  1.00  0.00    -0.084 Cl
HETATM   11  C   UNL     1      43.657 -17.578   2.877  1.00  0.00     0.025 A 
HETATM   12  C   UNL     1      43.945 -18.373   4.002  1.00  0.00     0.011 A 
HETATM   13  H   UNL     1      41.517 -17.249   7.234  1.00  0.00     0.169 HD
ENDROOT
BRANCH   5  14
HETATM   14  O   UNL     1      39.824 -15.664   3.661  1.00  0.00    -0.371 OA
HETATM   15  H   UNL     1      39.046 -15.330   4.139  1.00  0.00     0.212 HD
ENDBRANCH   5  14
BRANCH   5  16
HETATM   16  C   UNL     1      41.419 -13.945   4.421  1.00  0.00     0.025 A 
HETATM   17  C   UNL     1      42.472 -13.269   5.155  1.00  0.00     0.003 A 
HETATM   18  C   UNL     1      42.516 -11.947   4.709  1.00  0.00     0.043 A 
HETATM   19  C   UNL     1      43.397 -13.637   6.161  1.00  0.00     0.014 A 
HETATM   20  C   UNL     1      43.432 -11.000   5.185  1.00  0.00     0.030 A 
HETATM   21  N   UNL     1      41.519 -11.796   3.782  1.00  0.00    -0.359 N 
HETATM   22  C   UNL     1      44.342 -11.406   6.161  1.00  0.00     0.002 A 
HETATM   23  C   UNL     1      44.324 -12.706   6.648  1.00  0.00     0.001 A 
HETATM   24  H   UNL     1      41.303 -10.924   3.319  1.00  0.00     0.166 HD
HETATM   25  C   UNL     1      40.823 -12.963   3.623  1.00  0.00     0.016 A 
HETATM   26  C   UNL     1      39.625 -13.011   2.738  1.00  0.00     0.069 C 
ENDBRANCH   5  16
TORSDOF 2
ENDMDL
MODEL 4
REMARK VINA RESULT:      -8.4      2.842      3.957
REMARK  2 active torsions:
REMARK  status: ('A' for Active; 'I' for Inactive)
REMARK    1  A    between atoms: C_5  and  O_6 
REMARK    2  A    between atoms: C_5  and  C_7 
ROOT
HETATM    1  C   UNL     1      38.342 -11.247   2.338  1.00  0.00     0.050 C 
HETATM    2  C   UNL     1      39.779 -11.382   2.733  1.00  0.00    -0.034 A 
HETATM    3  C   UNL     1      40.185 -12.134   3.827  1.00  0.00     0.052 A 
HETATM    4  C   UNL     1      41.530 -12.293   4.192  1.00  0.00     0.039 A 
HETATM    5  C   UNL     1      41.615 -13.136   5.438  1.00  0.00     0.200 A 
HETATM    6  C   UNL     1      40.100 -13.442   5.718  1.00  0.00     0.266 A 
HETATM    7  O   UNL     1      39.607 -14.077   6.640  1.00  0.00    -0.269 OA
HETATM    8  N   UNL     1      39.364 -12.820   4.712  1.00  0.00    -0.323 N 
HETATM    9  C   UNL     1      42.517 -11.659   3.457  1.00  0.00     0.046 A 
HETATM   10 CL   UNL     1      44.182 -11.764   3.877  1.00  0.00    -0.084 Cl
HETATM   11  C   UNL     1      42.144 -10.910   2.336  1.00  0.00     0.025 A 
HETATM   12  C   UNL     1      40.791 -10.780   1.974  1.00  0.00     0.011 A 
HETATM   13  H   UNL     1      38.356 -12.857   4.687  1.00  0.00     0.169 HD
ENDROOT
BRANCH   5  14
HETATM   14  O   UNL     1      42.195 -12.324   6.455  1.00  0.00    -0.371 OA
HETATM   15  H   UNL     1      43.139 -12.262   6.230  1.00  0.00     0.212 HD
ENDBRANCH   5  14
BRANCH   5  16
HETATM   16  C   UNL     1      42.370 -14.432   5.189  1.00  0.00     0.025 A 
HETATM   17  C   UNL     1      42.536 -15.194   3.965  1.00  0.00     0.003 A 
HETATM   18  C   UNL     1      43.317 -16.311   4.267  1.00  0.00     0.043 A 
HETATM   19  C   UNL     1      42.102 -15.058   2.625  1.00  0.00     0.014 A 
HETATM   20  C   UNL     1      43.701 -17.266   3.316  1.00  0.00     0.030 A 
HETATM   21  N   UNL     1      43.585 -16.270   5.610  1.00  0.00    -0.359 N 
HETATM   22  C   UNL     1      43.271 -17.087   2.001  1.00  0.00     0.002 A 
HETATM   23  C   UNL     1      42.477 -16.000   1.658  1.00  0.00     0.001 A 
HETATM   24  H   UNL     1      44.109 -16.980   6.104  1.00  0.00     0.166 HD
HETATM   25  C   UNL     1      42.996 -15.180   6.189  1.00  0.00     0.016 A 
HETATM   26  C   UNL     1      43.065 -14.983   7.665  1.00  0.00     0.069 C 
ENDBRANCH   5  16
TORSDOF 2
ENDMDL
MODEL 5
REMARK VINA RESULT:      -8.4      2.578      5.325
REMARK  2 active torsions:
REMARK  status: ('A' for Active; 'I' for Inactive)
REMARK    1  A    between atoms: C_5  and  O_6 
REMARK    2  A    between atoms: C_5  and  C_7 
ROOT
HETATM    1  C   UNL     1      43.990 -16.760   7.910  1.00  0.00     0.050 C 
HETATM    2  C   UNL     1      43.562 -16.904   6.482  1.00  0.00    -0.034 A 
HETATM    3  C   UNL     1      42.499 -16.190   5.947  1.00  0.00     0.052 A 
HETATM    4  C   UNL     1      42.106 -16.292   4.604  1.00  0.00     0.039 A 
HETATM    5  C   UNL     1      40.905 -15.415   4.366  1.00  0.00     0.200 A 
HETATM    6  C   UNL     1      40.684 -14.786   5.788  1.00  0.00     0.266 A 
HETATM    7  O   UNL     1      39.811 -14.010   6.153  1.00  0.00    -0.269 OA
HETATM    8  N   UNL     1      41.675 -15.298   6.620  1.00  0.00    -0.323 N 
HETATM    9  C   UNL     1      42.779 -17.159   3.759  1.00  0.00     0.046 A 
HETATM   10 CL   UNL     1      42.318 -17.376   2.116  1.00  0.00    -0.084 Cl
HETATM   11  C   UNL     1      43.868 -17.878   4.261  1.00  0.00     0.025 A 
HETATM   12  C   UNL     1      44.260 -17.746   5.606  1.00  0.00     0.011 A 
HETATM   13  H   UNL     1      41.730 -15.055   7.598  1.00  0.00     0.169 HD
ENDROOT
BRANCH   5  14
HETATM   14  O   UNL     1      39.830 -16.269   3.984  1.00  0.00    -0.371 OA
HETATM   15  H   UNL     1      39.498 -16.653   4.813  1.00  0.00     0.212 HD
ENDBRANCH   5  14
BRANCH   5  16
HETATM   16  C   UNL     1      41.202 -14.320   3.353  1.00  0.00     0.025 A 
HETATM   17  C   UNL     1      40.784 -14.192   1.969  1.00  0.00     0.003 A 
HETATM   18  C   UNL     1      41.325 -13.004   1.474  1.00  0.00     0.043 A 
HETATM   19  C   UNL     1      40.004 -14.963   1.075  1.00  0.00     0.014 A 
HETATM   20  C   UNL     1      41.111 -12.542   0.168  1.00  0.00     0.030 A 
HETATM   21  N   UNL     1      42.072 -12.446   2.477  1.00  0.00    -0.359 N 
HETATM   22  C   UNL     1      40.319 -13.319  -0.677  1.00  0.00     0.002 A 
HETATM   23  C   UNL     1      39.775 -14.517  -0.233  1.00  0.00     0.001 A 
HETATM   24  H   UNL     1      42.604 -11.593   2.379  1.00  0.00     0.166 HD
HETATM   25  C   UNL     1      42.048 -13.235   3.595  1.00  0.00     0.016 A 
HETATM   26  C   UNL     1      42.874 -12.880   4.784  1.00  0.00     0.069 C 
ENDBRANCH   5  16
TORSDOF 2
ENDMDL
MODEL 6
REMARK VINA RESULT:      -8.2      2.857      3.851
REMARK  2 active torsions:
REMARK  status: ('A' for Active; 'I' for Inactive)
REMARK    1  A    between atoms: C_5  and  O_6 
REMARK    2  A    between atoms: C_5  and  C_7 
ROOT
HETATM    1  C   UNL     1      39.049 -11.002   5.399  1.00  0.00     0.050 C 
HETATM    2  C   UNL     1      40.442 -11.510   5.605  1.00  0.00    -0.034 A 
HETATM    3  C   UNL     1      40.712 -12.828   5.950  1.00  0.00     0.052 A 
HETATM    4  C   UNL     1      42.013 -13.325   6.118  1.00  0.00     0.039 A 
HETATM    5  C   UNL     1      41.946 -14.774   6.523  1.00  0.00     0.200 A 
HETATM    6  C   UNL     1      40.396 -15.026   6.548  1.00  0.00     0.266 A 
HETATM    7  O   UNL     1      39.793 -16.049   6.843  1.00  0.00    -0.269 OA
HETATM    8  N   UNL     1      39.781 -13.831   6.186  1.00  0.00    -0.323 N 
HETATM    9  C   UNL     1      43.095 -12.475   5.962  1.00  0.00     0.046 A 
HETATM   10 CL   UNL     1      44.714 -13.002   6.206  1.00  0.00    -0.084 Cl
HETATM   11  C   UNL     1      42.859 -11.146   5.594  1.00  0.00     0.025 A 
HETATM   12  C   UNL     1      41.547 -10.672   5.410  1.00  0.00     0.011 A 
HETATM   13  H   UNL     1      38.777 -13.736   6.150  1.00  0.00     0.169 HD
ENDROOT
BRANCH   5  14
HETATM   14  O   UNL     1      42.526 -14.875   7.821  1.00  0.00    -0.371 OA
HETATM   15  H   UNL     1      42.304 -14.041   8.269  1.00  0.00     0.212 HD
ENDBRANCH   5  14
BRANCH   5  16
HETATM   16  C   UNL     1      42.604 -15.676   5.491  1.00  0.00     0.025 A 
HETATM   17  C   UNL     1      42.639 -15.567   4.045  1.00  0.00     0.003 A 
HETATM   18  C   UNL     1      43.372 -16.651   3.558  1.00  0.00     0.043 A 
HETATM   19  C   UNL     1      42.123 -14.661   3.088  1.00  0.00     0.014 A 
HETATM   20  C   UNL     1      43.632 -16.860   2.196  1.00  0.00     0.030 A 
HETATM   21  N   UNL     1      43.734 -17.416   4.635  1.00  0.00    -0.359 N 
HETATM   22  C   UNL     1      43.123 -15.934   1.285  1.00  0.00     0.002 A 
HETATM   23  C   UNL     1      42.374 -14.850   1.723  1.00  0.00     0.001 A 
HETATM   24  H   UNL     1      44.247 -18.283   4.566  1.00  0.00     0.166 HD
HETATM   25  C   UNL     1      43.251 -16.877   5.796  1.00  0.00     0.016 A 
HETATM   26  C   UNL     1      43.435 -17.592   7.091  1.00  0.00     0.069 C 
ENDBRANCH   5  16
TORSDOF 2
ENDMDL
MODEL 7
REMARK VINA RESULT:      -8.1      2.581      3.823
REMARK  2 active torsions:
REMARK  status: ('A' for Active; 'I' for Inactive)
REMARK    1  A    between atoms: C_5  and  O_6 
REMARK    2  A    between atoms: C_5  and  C_7 
ROOT
HETATM    1  C   UNL     1      38.563 -10.236   4.765  1.00  0.00     0.050 C 
HETATM    2  C   UNL     1      39.872 -10.852   4.379  1.00  0.00    -0.034 A 
HETATM    3  C   UNL     1      40.250 -12.122   4.792  1.00  0.00     0.052 A 
HETATM    4  C   UNL     1      41.460 -12.722   4.415  1.00  0.00     0.039 A 
HETATM    5  C   UNL     1      41.570 -14.078   5.062  1.00  0.00     0.200 A 
HETATM    6  C   UNL     1      40.220 -14.159   5.861  1.00  0.00     0.266 A 
HETATM    7  O   UNL     1      39.815 -15.055   6.589  1.00  0.00    -0.269 OA
HETATM    8  N   UNL     1      39.530 -12.973   5.620  1.00  0.00    -0.323 N 
HETATM    9  C   UNL     1      42.348 -12.025   3.613  1.00  0.00     0.046 A 
HETATM   10 CL   UNL     1      43.873 -12.677   3.155  1.00  0.00    -0.084 Cl
HETATM   11  C   UNL     1      41.989 -10.751   3.162  1.00  0.00     0.025 A 
HETATM   12  C   UNL     1      40.761 -10.174   3.535  1.00  0.00     0.011 A 
HETATM   13  H   UNL     1      38.636 -12.780   6.044  1.00  0.00     0.169 HD
ENDROOT
BRANCH   5  14
HETATM   14  O   UNL     1      42.702 -14.041   5.926  1.00  0.00    -0.371 OA
HETATM   15  H   UNL     1      43.141 -14.902   5.816  1.00  0.00     0.212 HD
ENDBRANCH   5  14
BRANCH   5  16
HETATM   16  C   UNL     1      41.629 -15.191   4.028  1.00  0.00     0.025 A 
HETATM   17  C   UNL     1      42.553 -16.304   3.908  1.00  0.00     0.003 A 
HETATM   18  C   UNL     1      42.180 -17.041   2.782  1.00  0.00     0.043 A 
HETATM   19  C   UNL     1      43.675 -16.766   4.635  1.00  0.00     0.014 A 
HETATM   20  C   UNL     1      42.840 -18.206   2.368  1.00  0.00     0.030 A 
HETATM   21  N   UNL     1      41.114 -16.400   2.209  1.00  0.00    -0.359 N 
HETATM   22  C   UNL     1      43.929 -18.643   3.122  1.00  0.00     0.002 A 
HETATM   23  C   UNL     1      44.346 -17.931   4.239  1.00  0.00     0.001 A 
HETATM   24  H   UNL     1      40.663 -16.703   1.357  1.00  0.00     0.166 HD
HETATM   25  C   UNL     1      40.793 -15.270   2.911  1.00  0.00     0.016 A 
HETATM   26  C   UNL     1      39.727 -14.354   2.416  1.00  0.00     0.069 C 
ENDBRANCH   5  16
TORSDOF 2
ENDMDL
MODEL 8
REMARK VINA RESULT:      -8.0      9.926     13.199
REMARK  2 active torsions:
REMARK  status: ('A' for Active; 'I' for Inactive)
REMARK    1  A    between atoms: C_5  and  O_6 
REMARK    2  A    between atoms: C_5  and  C_7 
ROOT
HETATM    1  C   UNL     1      44.257 -10.722  11.256  1.00  0.00     0.050 C 
HETATM    2  C   UNL     1      43.322  -9.570  11.055  1.00  0.00    -0.034 A 
HETATM    3  C   UNL     1      42.068  -9.515  11.647  1.00  0.00     0.052 A 
HETATM    4  C   UNL     1      41.193  -8.429  11.491  1.00  0.00     0.039 A 
HETATM    5  C   UNL     1      39.913  -8.707  12.233  1.00  0.00     0.200 A 
HETATM    6  C   UNL     1      40.202 -10.123  12.847  1.00  0.00     0.266 A 
HETATM    7  O   UNL     1      39.468 -10.825  13.529  1.00  0.00    -0.269 OA
HETATM    8  N   UNL     1      41.487 -10.486  12.451  1.00  0.00    -0.323 N 
HETATM    9  C   UNL     1      41.567  -7.360  10.693  1.00  0.00     0.046 A 
HETATM   10 CL   UNL     1      40.525  -6.020  10.413  1.00  0.00    -0.084 Cl
HETATM   11  C   UNL     1      42.833  -7.374  10.099  1.00  0.00     0.025 A 
HETATM   12  C   UNL     1      43.703  -8.463  10.285  1.00  0.00     0.011 A 
HETATM   13  H   UNL     1      41.894 -11.373  12.707  1.00  0.00     0.169 HD
ENDROOT
BRANCH   5  14
HETATM   14  O   UNL     1      38.867  -8.746  11.266  1.00  0.00    -0.371 OA
HETATM   15  H   UNL     1      39.226  -8.304  10.477  1.00  0.00     0.212 HD
ENDBRANCH   5  14
BRANCH   5  16
HETATM   16  C   UNL     1      39.676  -7.696  13.344  1.00  0.00     0.025 A 
HETATM   17  C   UNL     1      40.445  -7.436  14.547  1.00  0.00     0.003 A 
HETATM   18  C   UNL     1      39.806  -6.407  15.241  1.00  0.00     0.043 A 
HETATM   19  C   UNL     1      41.620  -7.969  15.128  1.00  0.00     0.014 A 
HETATM   20  C   UNL     1      40.283  -5.876  16.448  1.00  0.00     0.030 A 
HETATM   21  N   UNL     1      38.680  -6.076  14.535  1.00  0.00    -0.359 N 
HETATM   22  C   UNL     1      41.455  -6.413  16.979  1.00  0.00     0.002 A 
HETATM   23  C   UNL     1      42.115  -7.449  16.331  1.00  0.00     0.001 A 
HETATM   24  H   UNL     1      38.011  -5.378  14.830  1.00  0.00     0.166 HD
HETATM   25  C   UNL     1      38.559  -6.860  13.420  1.00  0.00     0.016 A 
HETATM   26  C   UNL     1      37.355  -6.749  12.549  1.00  0.00     0.069 C 
ENDBRANCH   5  16
TORSDOF 2
ENDMDL
MODEL 9
REMARK VINA RESULT:      -7.9      2.195      3.092
REMARK  2 active torsions:
REMARK  status: ('A' for Active; 'I' for Inactive)
REMARK    1  A    between atoms: C_5  and  O_6 
REMARK    2  A    between atoms: C_5  and  C_7 
ROOT
HETATM    1  C   UNL     1      41.330 -10.816   1.428  1.00  0.00     0.050 C 
HETATM    2  C   UNL     1      41.872 -11.617   2.571  1.00  0.00    -0.034 A 
HETATM    3  C   UNL     1      41.449 -12.912   2.840  1.00  0.00     0.052 A 
HETATM    4  C   UNL     1      41.969 -13.685   3.890  1.00  0.00     0.039 A 
HETATM    5  C   UNL     1      41.270 -15.019   3.922  1.00  0.00     0.200 A 
HETATM    6  C   UNL     1      40.276 -14.886   2.713  1.00  0.00     0.266 A 
HETATM    7  O   UNL     1      39.448 -15.693   2.313  1.00  0.00    -0.269 OA
HETATM    8  N   UNL     1      40.478 -13.627   2.153  1.00  0.00    -0.323 N 
HETATM    9  C   UNL     1      42.931 -13.144   4.726  1.00  0.00     0.046 A 
HETATM   10 CL   UNL     1      43.573 -14.013   6.064  1.00  0.00    -0.084 Cl
HETATM   11  C   UNL     1      43.394 -11.849   4.469  1.00  0.00     0.025 A 
HETATM   12  C   UNL     1      42.875 -11.098   3.399  1.00  0.00     0.011 A 
HETATM   13  H   UNL     1      39.937 -13.299   1.368  1.00  0.00     0.169 HD
ENDROOT
BRANCH   5  14
HETATM   14  O   UNL     1      40.588 -15.106   5.170  1.00  0.00    -0.371 OA
HETATM   15  H   UNL     1      41.287 -15.142   5.845  1.00  0.00     0.212 HD
ENDBRANCH   5  14
BRANCH   5  16
HETATM   16  C   UNL     1      42.238 -16.165   3.676  1.00  0.00     0.025 A 
HETATM   17  C   UNL     1      42.740 -17.174   4.591  1.00  0.00     0.003 A 
HETATM   18  C   UNL     1      43.608 -17.999   3.873  1.00  0.00     0.043 A 
HETATM   19  C   UNL     1      42.555 -17.475   5.961  1.00  0.00     0.014 A 
HETATM   20  C   UNL     1      44.266 -19.102   4.434  1.00  0.00     0.030 A 
HETATM   21  N   UNL     1      43.676 -17.508   2.596  1.00  0.00    -0.359 N 
HETATM   22  C   UNL     1      44.042 -19.380   5.782  1.00  0.00     0.002 A 
HETATM   23  C   UNL     1      43.201 -18.576   6.540  1.00  0.00     0.001 A 
HETATM   24  H   UNL     1      44.261 -17.897   1.870  1.00  0.00     0.166 HD
HETATM   25  C   UNL     1      42.900 -16.389   2.466  1.00  0.00     0.016 A 
HETATM   26  C   UNL     1      42.896 -15.620   1.189  1.00  0.00     0.069 C 
ENDBRANCH   5  16
TORSDOF 2
ENDMDL
MODEL 10
REMARK VINA RESULT:      -7.8     14.603     15.951
REMARK  2 active torsions:
REMARK  status: ('A' for Active; 'I' for Inactive)
REMARK    1  A    between atoms: C_5  and  O_6 
REMARK    2  A    between atoms: C_5  and  C_7 
ROOT
HETATM    1  C   UNL     1      51.070 -31.115   3.522  1.00  0.00     0.050 C 
HETATM    2  C   UNL     1      49.781 -30.450   3.152  1.00  0.00    -0.034 A 
HETATM    3  C   UNL     1      49.479 -30.082   1.848  1.00  0.00     0.052 A 
HETATM    4  C   UNL     1      48.264 -29.485   1.482  1.00  0.00     0.039 A 
HETATM    5  C   UNL     1      48.278 -29.185   0.006  1.00  0.00     0.200 A 
HETATM    6  C   UNL     1      49.694 -29.719  -0.413  1.00  0.00     0.266 A 
HETATM    7  O   UNL     1      50.225 -29.694  -1.515  1.00  0.00    -0.269 OA
HETATM    8  N   UNL     1      50.296 -30.228   0.735  1.00  0.00    -0.323 N 
HETATM    9  C   UNL     1      47.314 -29.217   2.454  1.00  0.00     0.046 A 
HETATM   10 CL   UNL     1      45.824 -28.438   2.087  1.00  0.00    -0.084 Cl
HETATM   11  C   UNL     1      47.577 -29.595   3.774  1.00  0.00     0.025 A 
HETATM   12  C   UNL     1      48.794 -30.211   4.118  1.00  0.00     0.011 A 
HETATM   13  H   UNL     1      51.228 -30.613   0.724  1.00  0.00     0.169 HD
ENDROOT
BRANCH   5  14
HETATM   14  O   UNL     1      48.174 -27.771  -0.136  1.00  0.00    -0.371 OA
HETATM   15  H   UNL     1      48.426 -27.584  -1.056  1.00  0.00     0.212 HD
ENDBRANCH   5  14
BRANCH   5  16
HETATM   16  C   UNL     1      47.193 -29.952  -0.733  1.00  0.00     0.025 A 
HETATM   17  C   UNL     1      46.235 -29.493  -1.722  1.00  0.00     0.003 A 
HETATM   18  C   UNL     1      45.453 -30.588  -2.091  1.00  0.00     0.043 A 
HETATM   19  C   UNL     1      45.942 -28.256  -2.345  1.00  0.00     0.014 A 
HETATM   20  C   UNL     1      44.432 -30.522  -3.049  1.00  0.00     0.030 A 
HETATM   21  N   UNL     1      45.870 -31.658  -1.345  1.00  0.00    -0.359 N 
HETATM   22  C   UNL     1      44.186 -29.290  -3.656  1.00  0.00     0.002 A 
HETATM   23  C   UNL     1      44.928 -28.169  -3.307  1.00  0.00     0.001 A 
HETATM   24  H   UNL     1      45.450 -32.576  -1.387  1.00  0.00     0.166 HD
HETATM   25  C   UNL     1      46.880 -31.293  -0.496  1.00  0.00     0.016 A 
HETATM   26  C   UNL     1      47.425 -32.270   0.488  1.00  0.00     0.069 C 
ENDBRANCH   5  16
TORSDOF 2
ENDMDL
