MODEL 1
REMARK VINA RESULT:      -8.9      0.000      0.000
REMARK  6 active torsions:
REMARK  status: ('A' for Active; 'I' for Inactive)
REMARK    1  A    between atoms: C_2  and  O_3 
REMARK    2  A    between atoms: C_2  and  C_4 
REMARK    3  A    between atoms: C_6  and  N_7 
REMARK       I    between atoms: N_7  and  C_8 
REMARK    4  A    between atoms: C_8  and  C_9 
REMARK    5  A    between atoms: C_12  and  C_13 
REMARK    6  A    between atoms: C_18  and  C_19 
ROOT
HETATM    1  C   UNL     1      41.035 -13.919   1.994  1.00  0.00     0.096 A 
HETATM    2  C   UNL     1      40.733 -13.215   0.843  1.00  0.00     0.138 A 
HETATM    3  N   UNL     1      39.549 -12.560   1.101  1.00  0.00    -0.240 N 
HETATM    4  C   UNL     1      38.832 -11.743   0.137  1.00  0.00     0.221 C 
HETATM    5  C   UNL     1      39.732 -11.419  -1.071  1.00  0.00     0.068 C 
HETATM    6  C   UNL     1      40.529 -12.651  -1.520  1.00  0.00     0.143 C 
HETATM    7  N   UNL     1      41.337 -13.120  -0.376  1.00  0.00    -0.363 N 
HETATM    8  N   UNL     1      38.990 -12.915   2.268  1.00  0.00    -0.181 NA
HETATM    9  C   UNL     1      39.905 -13.717   2.820  1.00  0.00     0.160 A 
HETATM   10  H   UNL     1      41.965 -13.878  -0.655  1.00  0.00     0.162 HD
ENDROOT
BRANCH   1  11
HETATM   11  C   UNL     1      42.196 -14.739   2.299  1.00  0.00     0.261 C 
HETATM   12  N   UNL     1      41.882 -15.898   2.984  1.00  0.00    -0.323 N 
HETATM   13  H   UNL     1      40.890 -16.099   3.068  1.00  0.00     0.169 HD
HETATM   14  O   UNL     1      43.311 -14.401   1.922  1.00  0.00    -0.267 OA
BRANCH  12  15
HETATM   15  C   UNL     1      42.770 -16.879   3.467  1.00  0.00     0.035 A 
HETATM   16  C   UNL     1      43.030 -18.082   2.807  1.00  0.00     0.039 A 
HETATM   17  C   UNL     1      43.938 -19.020   3.333  1.00  0.00    -0.028 A 
HETATM   18  C   UNL     1      44.572 -18.736   4.549  1.00  0.00     0.010 A 
HETATM   19  C   UNL     1      44.323 -17.535   5.213  1.00  0.00     0.003 A 
HETATM   20  C   UNL     1      43.432 -16.608   4.670  1.00  0.00     0.029 A 
BRANCH  17  21
HETATM   21  C   UNL     1      44.182 -20.318   2.594  1.00  0.00     0.147 C 
HETATM   22  C   UNL     1      43.248 -20.466   1.400  1.00  0.00     0.044 C 
BRANCH  21  23
HETATM   23  O   UNL     1      43.998 -21.428   3.472  1.00  0.00    -0.391 OA
HETATM   24  H   UNL     1      44.764 -22.014   3.350  1.00  0.00     0.210 HD
ENDBRANCH  21  23
ENDBRANCH  17  21
ENDBRANCH  12  15
ENDBRANCH   1  11
BRANCH   4  25
HETATM   25  C   UNL     1      38.335 -10.455   0.757  1.00  0.00     0.409 C 
HETATM   26  F   UNL     1      37.168 -10.585   1.418  1.00  0.00    -0.169 F 
HETATM   27  F   UNL     1      39.242  -9.910   1.600  1.00  0.00    -0.169 F 
HETATM   28  F   UNL     1      38.116  -9.533  -0.220  1.00  0.00    -0.169 F 
ENDBRANCH   4  25
BRANCH   6  29
HETATM   29  C   UNL     1      39.641 -13.690  -2.140  1.00  0.00     0.075 A 
HETATM   30  O   UNL     1      39.113 -13.381  -3.362  1.00  0.00    -0.325 OA
HETATM   31  C   UNL     1      38.334 -14.429  -3.736  1.00  0.00     0.142 A 
HETATM   32  C   UNL     1      38.355 -15.411  -2.774  1.00  0.00     0.027 A 
HETATM   33  C   UNL     1      39.201 -14.937  -1.743  1.00  0.00     0.037 A 
ENDBRANCH   6  29
TORSDOF 6
ENDMDL
MODEL 2
REMARK VINA RESULT:      -8.4      5.986      7.942
REMARK  6 active torsions:
REMARK  status: ('A' for Active; 'I' for Inactive)
REMARK    1  A    between atoms: C_2  and  O_3 
REMARK    2  A    between atoms: C_2  and  C_4 
REMARK    3  A    between atoms: C_6  and  N_7 
REMARK       I    between atoms: N_7  and  C_8 
REMARK    4  A    between atoms: C_8  and  C_9 
REMARK    5  A    between atoms: C_12  and  C_13 
REMARK    6  A    between atoms: C_18  and  C_19 
ROOT
HETATM    1  C   UNL     1      43.510 -12.094   6.009  1.00  0.00     0.096 A 
HETATM    2  C   UNL     1      43.104 -10.826   6.385  1.00  0.00     0.138 A 
HETATM    3  N   UNL     1      43.808 -10.529   7.531  1.00  0.00    -0.240 N 
HETATM    4  C   UNL     1      43.647  -9.310   8.304  1.00  0.00     0.221 C 
HETATM    5  C   UNL     1      42.867  -8.256   7.494  1.00  0.00     0.068 C 
HETATM    6  C   UNL     1      41.676  -8.887   6.760  1.00  0.00     0.143 C 
HETATM    7  N   UNL     1      42.190  -9.952   5.875  1.00  0.00    -0.363 N 
HETATM    8  N   UNL     1      44.512 -11.569   8.005  1.00  0.00    -0.181 NA
HETATM    9  C   UNL     1      44.353 -12.506   7.067  1.00  0.00     0.160 A 
HETATM   10  H   UNL     1      41.445 -10.333   5.286  1.00  0.00     0.162 HD
ENDROOT
BRANCH   1  11
HETATM   11  C   UNL     1      43.133 -12.878   4.845  1.00  0.00     0.261 C 
HETATM   12  N   UNL     1      42.981 -14.224   5.119  1.00  0.00    -0.323 N 
HETATM   13  H   UNL     1      43.017 -14.475   6.102  1.00  0.00     0.169 HD
HETATM   14  O   UNL     1      42.942 -12.334   3.764  1.00  0.00    -0.267 OA
BRANCH  12  15
HETATM   15  C   UNL     1      42.670 -15.257   4.213  1.00  0.00     0.035 A 
HETATM   16  C   UNL     1      43.472 -16.384   4.017  1.00  0.00     0.039 A 
HETATM   17  C   UNL     1      43.102 -17.391   3.106  1.00  0.00    -0.028 A 
HETATM   18  C   UNL     1      41.916 -17.239   2.377  1.00  0.00     0.010 A 
HETATM   19  C   UNL     1      41.107 -16.120   2.569  1.00  0.00     0.003 A 
HETATM   20  C   UNL     1      41.478 -15.139   3.489  1.00  0.00     0.029 A 
BRANCH  17  21
HETATM   21  C   UNL     1      44.005 -18.591   2.913  1.00  0.00     0.147 C 
HETATM   22  C   UNL     1      43.296 -19.711   2.163  1.00  0.00     0.044 C 
BRANCH  21  23
HETATM   23  O   UNL     1      44.451 -19.081   4.177  1.00  0.00    -0.391 OA
HETATM   24  H   UNL     1      44.007 -19.934   4.320  1.00  0.00     0.210 HD
ENDBRANCH  21  23
ENDBRANCH  17  21
ENDBRANCH  12  15
ENDBRANCH   1  11
BRANCH   4  25
HETATM   25  C   UNL     1      44.982  -8.736   8.725  1.00  0.00     0.409 C 
HETATM   26  F   UNL     1      45.437  -9.220   9.898  1.00  0.00    -0.169 F 
HETATM   27  F   UNL     1      45.940  -8.927   7.788  1.00  0.00    -0.169 F 
HETATM   28  F   UNL     1      44.870  -7.390   8.889  1.00  0.00    -0.169 F 
ENDBRANCH   4  25
BRANCH   6  29
HETATM   29  C   UNL     1      40.601  -9.316   7.714  1.00  0.00     0.075 A 
HETATM   30  O   UNL     1      40.529  -8.628   8.892  1.00  0.00    -0.325 OA
HETATM   31  C   UNL     1      39.517  -9.176   9.614  1.00  0.00     0.142 A 
HETATM   32  C   UNL     1      38.933 -10.207   8.916  1.00  0.00     0.027 A 
HETATM   33  C   UNL     1      39.629 -10.297   7.687  1.00  0.00     0.037 A 
ENDBRANCH   6  29
TORSDOF 6
ENDMDL
MODEL 3
REMARK VINA RESULT:      -8.2      2.280      3.827
REMARK  6 active torsions:
REMARK  status: ('A' for Active; 'I' for Inactive)
REMARK    1  A    between atoms: C_2  and  O_3 
REMARK    2  A    between atoms: C_2  and  C_4 
REMARK    3  A    between atoms: C_6  and  N_7 
REMARK       I    between atoms: N_7  and  C_8 
REMARK    4  A    between atoms: C_8  and  C_9 
REMARK    5  A    between atoms: C_12  and  C_13 
REMARK    6  A    between atoms: C_18  and  C_19 
ROOT
HETATM    1  C   UNL     1      40.395 -14.508   1.400  1.00  0.00     0.096 A 
HETATM    2  C   UNL     1      39.487 -13.481   1.582  1.00  0.00     0.138 A 
HETATM    3  N   UNL     1      39.400 -12.836   0.369  1.00  0.00    -0.240 N 
HETATM    4  C   UNL     1      38.597 -11.650   0.122  1.00  0.00     0.221 C 
HETATM    5  C   UNL     1      37.597 -11.427   1.273  1.00  0.00     0.068 C 
HETATM    6  C   UNL     1      38.256 -11.663   2.639  1.00  0.00     0.143 C 
HETATM    7  N   UNL     1      38.785 -13.041   2.665  1.00  0.00    -0.363 N 
HETATM    8  N   UNL     1      40.297 -13.270  -0.529  1.00  0.00    -0.181 NA
HETATM    9  C   UNL     1      40.881 -14.301   0.087  1.00  0.00     0.160 A 
HETATM   10  H   UNL     1      39.143 -13.281   3.593  1.00  0.00     0.162 HD
ENDROOT
BRANCH   1  11
HETATM   11  C   UNL     1      40.827 -15.537   2.331  1.00  0.00     0.261 C 
HETATM   12  N   UNL     1      42.175 -15.829   2.238  1.00  0.00    -0.323 N 
HETATM   13  H   UNL     1      42.714 -15.209   1.641  1.00  0.00     0.169 HD
HETATM   14  O   UNL     1      40.034 -16.030   3.124  1.00  0.00    -0.267 OA
BRANCH  12  15
HETATM   15  C   UNL     1      42.897 -16.801   2.957  1.00  0.00     0.035 A 
HETATM   16  C   UNL     1      43.179 -18.078   2.466  1.00  0.00     0.039 A 
HETATM   17  C   UNL     1      43.918 -19.004   3.227  1.00  0.00    -0.028 A 
HETATM   18  C   UNL     1      44.355 -18.631   4.504  1.00  0.00     0.010 A 
HETATM   19  C   UNL     1      44.082 -17.357   5.000  1.00  0.00     0.003 A 
HETATM   20  C   UNL     1      43.364 -16.445   4.227  1.00  0.00     0.029 A 
BRANCH  17  21
HETATM   21  C   UNL     1      44.191 -20.383   2.664  1.00  0.00     0.147 C 
HETATM   22  C   UNL     1      43.393 -20.636   1.391  1.00  0.00     0.044 C 
BRANCH  21  23
HETATM   23  O   UNL     1      43.865 -21.383   3.628  1.00  0.00    -0.391 OA
HETATM   24  H   UNL     1      44.696 -21.826   3.867  1.00  0.00     0.210 HD
ENDBRANCH  21  23
ENDBRANCH  17  21
ENDBRANCH  12  15
ENDBRANCH   1  11
BRANCH   4  25
HETATM   25  C   UNL     1      37.845 -11.748  -1.188  1.00  0.00     0.409 C 
HETATM   26  F   UNL     1      37.462 -13.001  -1.502  1.00  0.00    -0.169 F 
HETATM   27  F   UNL     1      36.751 -10.952  -1.211  1.00  0.00    -0.169 F 
HETATM   28  F   UNL     1      38.646 -11.330  -2.206  1.00  0.00    -0.169 F 
ENDBRANCH   4  25
BRANCH   6  29
HETATM   29  C   UNL     1      39.256 -10.592   2.963  1.00  0.00     0.075 A 
HETATM   30  O   UNL     1      38.843  -9.303   2.777  1.00  0.00    -0.325 OA
HETATM   31  C   UNL     1      39.886  -8.498   3.104  1.00  0.00     0.142 A 
HETATM   32  C   UNL     1      40.966  -9.249   3.503  1.00  0.00     0.027 A 
HETATM   33  C   UNL     1      40.561 -10.602   3.416  1.00  0.00     0.037 A 
ENDBRANCH   6  29
TORSDOF 6
ENDMDL
MODEL 4
REMARK VINA RESULT:      -8.2      3.297      8.208
REMARK  6 active torsions:
REMARK  status: ('A' for Active; 'I' for Inactive)
REMARK    1  A    between atoms: C_2  and  O_3 
REMARK    2  A    between atoms: C_2  and  C_4 
REMARK    3  A    between atoms: C_6  and  N_7 
REMARK       I    between atoms: N_7  and  C_8 
REMARK    4  A    between atoms: C_8  and  C_9 
REMARK    5  A    between atoms: C_12  and  C_13 
REMARK    6  A    between atoms: C_18  and  C_19 
ROOT
HETATM    1  C   UNL     1      40.995 -13.116   2.749  1.00  0.00     0.096 A 
HETATM    2  C   UNL     1      41.245 -14.040   3.747  1.00  0.00     0.138 A 
HETATM    3  N   UNL     1      42.383 -13.605   4.388  1.00  0.00    -0.240 N 
HETATM    4  C   UNL     1      43.041 -14.315   5.472  1.00  0.00     0.221 C 
HETATM    5  C   UNL     1      42.116 -15.408   6.040  1.00  0.00     0.068 C 
HETATM    6  C   UNL     1      41.400 -16.173   4.918  1.00  0.00     0.143 C 
HETATM    7  N   UNL     1      40.630 -15.201   4.115  1.00  0.00    -0.363 N 
HETATM    8  N   UNL     1      42.969 -12.563   3.779  1.00  0.00    -0.181 NA
HETATM    9  C   UNL     1      42.113 -12.251   2.803  1.00  0.00     0.160 A 
HETATM   10  H   UNL     1      40.052 -15.675   3.417  1.00  0.00     0.162 HD
ENDROOT
BRANCH   1  11
HETATM   11  C   UNL     1      39.892 -13.050   1.804  1.00  0.00     0.261 C 
HETATM   12  N   UNL     1      40.249 -13.418   0.521  1.00  0.00    -0.323 N 
HETATM   13  H   UNL     1      41.180 -13.811   0.424  1.00  0.00     0.169 HD
HETATM   14  O   UNL     1      38.770 -12.731   2.180  1.00  0.00    -0.267 OA
BRANCH  12  15
HETATM   15  C   UNL     1      39.438 -13.419  -0.631  1.00  0.00     0.035 A 
HETATM   16  C   UNL     1      38.740 -12.299  -1.089  1.00  0.00     0.039 A 
HETATM   17  C   UNL     1      37.954 -12.358  -2.256  1.00  0.00    -0.028 A 
HETATM   18  C   UNL     1      37.866 -13.571  -2.949  1.00  0.00     0.010 A 
HETATM   19  C   UNL     1      38.563 -14.693  -2.502  1.00  0.00     0.003 A 
HETATM   20  C   UNL     1      39.351 -14.615  -1.354  1.00  0.00     0.029 A 
BRANCH  17  21
HETATM   21  C   UNL     1      37.203 -11.125  -2.711  1.00  0.00     0.147 C 
HETATM   22  C   UNL     1      36.667 -10.327  -1.530  1.00  0.00     0.044 C 
BRANCH  21  23
HETATM   23  O   UNL     1      36.116 -11.496  -3.558  1.00  0.00    -0.391 OA
HETATM   24  H   UNL     1      35.596 -10.690  -3.718  1.00  0.00     0.210 HD
ENDBRANCH  21  23
ENDBRANCH  17  21
ENDBRANCH  12  15
ENDBRANCH   1  11
BRANCH   4  25
HETATM   25  C   UNL     1      43.454 -13.375   6.584  1.00  0.00     0.409 C 
HETATM   26  F   UNL     1      44.714 -12.912   6.465  1.00  0.00    -0.169 F 
HETATM   27  F   UNL     1      42.621 -12.313   6.693  1.00  0.00    -0.169 F 
HETATM   28  F   UNL     1      43.402 -14.028   7.777  1.00  0.00    -0.169 F 
ENDBRANCH   4  25
BRANCH   6  29
HETATM   29  C   UNL     1      42.353 -17.029   4.137  1.00  0.00     0.075 A 
HETATM   30  O   UNL     1      43.261 -17.743   4.866  1.00  0.00    -0.325 OA
HETATM   31  C   UNL     1      44.032 -18.428   3.983  1.00  0.00     0.142 A 
HETATM   32  C   UNL     1      43.632 -18.170   2.693  1.00  0.00     0.027 A 
HETATM   33  C   UNL     1      42.545 -17.268   2.790  1.00  0.00     0.037 A 
ENDBRANCH   6  29
TORSDOF 6
ENDMDL
MODEL 5
REMARK VINA RESULT:      -8.1      5.110      7.921
REMARK  6 active torsions:
REMARK  status: ('A' for Active; 'I' for Inactive)
REMARK    1  A    between atoms: C_2  and  O_3 
REMARK    2  A    between atoms: C_2  and  C_4 
REMARK    3  A    between atoms: C_6  and  N_7 
REMARK       I    between atoms: N_7  and  C_8 
REMARK    4  A    between atoms: C_8  and  C_9 
REMARK    5  A    between atoms: C_12  and  C_13 
REMARK    6  A    between atoms: C_18  and  C_19 
ROOT
HETATM    1  C   UNL     1      42.070 -14.598   5.587  1.00  0.00     0.096 A 
HETATM    2  C   UNL     1      42.386 -15.160   4.363  1.00  0.00     0.138 A 
HETATM    3  N   UNL     1      41.192 -15.588   3.825  1.00  0.00    -0.240 N 
HETATM    4  C   UNL     1      41.065 -16.295   2.563  1.00  0.00     0.221 C 
HETATM    5  C   UNL     1      42.369 -16.187   1.750  1.00  0.00     0.068 C 
HETATM    6  C   UNL     1      43.602 -16.385   2.642  1.00  0.00     0.143 C 
HETATM    7  N   UNL     1      43.566 -15.367   3.711  1.00  0.00    -0.363 N 
HETATM    8  N   UNL     1      40.160 -15.486   4.677  1.00  0.00    -0.181 NA
HETATM    9  C   UNL     1      40.688 -14.861   5.733  1.00  0.00     0.160 A 
HETATM   10  H   UNL     1      44.421 -15.391   4.272  1.00  0.00     0.162 HD
ENDROOT
BRANCH   1  11
HETATM   11  C   UNL     1      42.934 -13.942   6.554  1.00  0.00     0.261 C 
HETATM   12  N   UNL     1      43.177 -12.614   6.258  1.00  0.00    -0.323 N 
HETATM   13  H   UNL     1      42.628 -12.231   5.496  1.00  0.00     0.169 HD
HETATM   14  O   UNL     1      43.340 -14.550   7.538  1.00  0.00    -0.267 OA
BRANCH  12  15
HETATM   15  C   UNL     1      44.003 -11.713   6.959  1.00  0.00     0.035 A 
HETATM   16  C   UNL     1      43.534 -10.831   7.935  1.00  0.00     0.039 A 
HETATM   17  C   UNL     1      44.409  -9.962   8.613  1.00  0.00    -0.028 A 
HETATM   18  C   UNL     1      45.769  -9.980   8.279  1.00  0.00     0.010 A 
HETATM   19  C   UNL     1      46.248 -10.861   7.310  1.00  0.00     0.003 A 
HETATM   20  C   UNL     1      45.370 -11.728   6.659  1.00  0.00     0.029 A 
BRANCH  17  21
HETATM   21  C   UNL     1      43.859  -9.012   9.655  1.00  0.00     0.147 C 
HETATM   22  C   UNL     1      43.940  -7.564   9.190  1.00  0.00     0.044 C 
BRANCH  21  23
HETATM   23  O   UNL     1      44.579  -9.151  10.879  1.00  0.00    -0.391 OA
HETATM   24  H   UNL     1      45.160  -8.376  10.954  1.00  0.00     0.210 HD
ENDBRANCH  21  23
ENDBRANCH  17  21
ENDBRANCH  12  15
ENDBRANCH   1  11
BRANCH   4  25
HETATM   25  C   UNL     1      39.911 -15.764   1.740  1.00  0.00     0.409 C 
HETATM   26  F   UNL     1      38.782 -15.568   2.450  1.00  0.00    -0.169 F 
HETATM   27  F   UNL     1      40.222 -14.607   1.110  1.00  0.00    -0.169 F 
HETATM   28  F   UNL     1      39.594 -16.659   0.765  1.00  0.00    -0.169 F 
ENDBRANCH   4  25
BRANCH   6  29
HETATM   29  C   UNL     1      43.718 -17.803   3.119  1.00  0.00     0.075 A 
HETATM   30  O   UNL     1      44.158 -17.974   4.401  1.00  0.00    -0.325 OA
HETATM   31  C   UNL     1      44.212 -19.312   4.629  1.00  0.00     0.142 A 
HETATM   32  C   UNL     1      43.809 -20.007   3.513  1.00  0.00     0.027 A 
HETATM   33  C   UNL     1      43.487 -19.034   2.537  1.00  0.00     0.037 A 
ENDBRANCH   6  29
TORSDOF 6
ENDMDL
MODEL 6
REMARK VINA RESULT:      -8.0      1.437      2.155
REMARK  6 active torsions:
REMARK  status: ('A' for Active; 'I' for Inactive)
REMARK    1  A    between atoms: C_2  and  O_3 
REMARK    2  A    between atoms: C_2  and  C_4 
REMARK    3  A    between atoms: C_6  and  N_7 
REMARK       I    between atoms: N_7  and  C_8 
REMARK    4  A    between atoms: C_8  and  C_9 
REMARK    5  A    between atoms: C_12  and  C_13 
REMARK    6  A    between atoms: C_18  and  C_19 
ROOT
HETATM    1  C   UNL     1      40.538 -13.246   2.390  1.00  0.00     0.096 A 
HETATM    2  C   UNL     1      40.418 -12.686   1.131  1.00  0.00     0.138 A 
HETATM    3  N   UNL     1      39.228 -11.993   1.138  1.00  0.00    -0.240 N 
HETATM    4  C   UNL     1      38.674 -11.295  -0.010  1.00  0.00     0.221 C 
HETATM    5  C   UNL     1      39.742 -11.131  -1.108  1.00  0.00     0.068 C 
HETATM    6  C   UNL     1      40.561 -12.417  -1.288  1.00  0.00     0.143 C 
HETATM    7  N   UNL     1      41.189 -12.750   0.007  1.00  0.00    -0.363 N 
HETATM    8  N   UNL     1      38.503 -12.195   2.249  1.00  0.00    -0.181 NA
HETATM    9  C   UNL     1      39.310 -12.932   3.018  1.00  0.00     0.160 A 
HETATM   10  H   UNL     1      41.829 -13.542  -0.086  1.00  0.00     0.162 HD
ENDROOT
BRANCH   1  11
HETATM   11  C   UNL     1      41.623 -14.033   2.953  1.00  0.00     0.261 C 
HETATM   12  N   UNL     1      41.449 -15.395   2.796  1.00  0.00    -0.323 N 
HETATM   13  H   UNL     1      40.673 -15.668   2.201  1.00  0.00     0.169 HD
HETATM   14  O   UNL     1      42.589 -13.481   3.468  1.00  0.00    -0.267 OA
BRANCH  12  15
HETATM   15  C   UNL     1      42.284 -16.428   3.264  1.00  0.00     0.035 A 
HETATM   16  C   UNL     1      42.521 -16.680   4.618  1.00  0.00     0.039 A 
HETATM   17  C   UNL     1      43.356 -17.737   5.026  1.00  0.00    -0.028 A 
HETATM   18  C   UNL     1      43.967 -18.531   4.047  1.00  0.00     0.010 A 
HETATM   19  C   UNL     1      43.731 -18.291   2.694  1.00  0.00     0.003 A 
HETATM   20  C   UNL     1      42.887 -17.250   2.306  1.00  0.00     0.029 A 
BRANCH  17  21
HETATM   21  C   UNL     1      43.599 -17.969   6.502  1.00  0.00     0.147 C 
HETATM   22  C   UNL     1      43.336 -19.417   6.892  1.00  0.00     0.044 C 
BRANCH  21  23
HETATM   23  O   UNL     1      42.760 -17.115   7.279  1.00  0.00    -0.391 OA
HETATM   24  H   UNL     1      41.955 -16.958   6.757  1.00  0.00     0.210 HD
ENDBRANCH  21  23
ENDBRANCH  17  21
ENDBRANCH  12  15
ENDBRANCH   1  11
BRANCH   4  25
HETATM   25  C   UNL     1      38.131  -9.935   0.373  1.00  0.00     0.409 C 
HETATM   26  F   UNL     1      38.083  -9.062  -0.652  1.00  0.00    -0.169 F 
HETATM   27  F   UNL     1      36.897 -10.013   0.923  1.00  0.00    -0.169 F 
HETATM   28  F   UNL     1      38.936  -9.370   1.314  1.00  0.00    -0.169 F 
ENDBRANCH   4  25
BRANCH   6  29
HETATM   29  C   UNL     1      39.740 -13.516  -1.896  1.00  0.00     0.075 A 
HETATM   30  O   UNL     1      39.107 -13.218  -3.070  1.00  0.00    -0.325 OA
HETATM   31  C   UNL     1      38.411 -14.324  -3.440  1.00  0.00     0.142 A 
HETATM   32  C   UNL     1      38.589 -15.333  -2.523  1.00  0.00     0.027 A 
HETATM   33  C   UNL     1      39.449 -14.815  -1.527  1.00  0.00     0.037 A 
ENDBRANCH   6  29
TORSDOF 6
ENDMDL
MODEL 7
REMARK VINA RESULT:      -7.9      5.618      7.789
REMARK  6 active torsions:
REMARK  status: ('A' for Active; 'I' for Inactive)
REMARK    1  A    between atoms: C_2  and  O_3 
REMARK    2  A    between atoms: C_2  and  C_4 
REMARK    3  A    between atoms: C_6  and  N_7 
REMARK       I    between atoms: N_7  and  C_8 
REMARK    4  A    between atoms: C_8  and  C_9 
REMARK    5  A    between atoms: C_12  and  C_13 
REMARK    6  A    between atoms: C_18  and  C_19 
ROOT
HETATM    1  C   UNL     1      42.228 -12.708   5.640  1.00  0.00     0.096 A 
HETATM    2  C   UNL     1      42.330 -13.073   4.310  1.00  0.00     0.138 A 
HETATM    3  N   UNL     1      41.040 -13.274   3.873  1.00  0.00    -0.240 N 
HETATM    4  C   UNL     1      40.683 -13.729   2.540  1.00  0.00     0.221 C 
HETATM    5  C   UNL     1      41.889 -13.613   1.589  1.00  0.00     0.068 C 
HETATM    6  C   UNL     1      43.181 -14.092   2.265  1.00  0.00     0.143 C 
HETATM    7  N   UNL     1      43.394 -13.281   3.481  1.00  0.00    -0.363 N 
HETATM    8  N   UNL     1      40.132 -13.220   4.859  1.00  0.00    -0.181 NA
HETATM    9  C   UNL     1      40.849 -12.850   5.923  1.00  0.00     0.160 A 
HETATM   10  H   UNL     1      44.297 -13.492   3.912  1.00  0.00     0.162 HD
ENDROOT
BRANCH   1  11
HETATM   11  C   UNL     1      43.270 -12.327   6.578  1.00  0.00     0.261 C 
HETATM   12  N   UNL     1      42.990 -11.159   7.261  1.00  0.00    -0.323 N 
HETATM   13  H   UNL     1      42.053 -10.792   7.130  1.00  0.00     0.169 HD
HETATM   14  O   UNL     1      44.258 -13.036   6.731  1.00  0.00    -0.267 OA
BRANCH  12  15
HETATM   15  C   UNL     1      43.805 -10.494   8.199  1.00  0.00     0.035 A 
HETATM   16  C   UNL     1      43.361 -10.084   9.459  1.00  0.00     0.039 A 
HETATM   17  C   UNL     1      44.225  -9.435  10.360  1.00  0.00    -0.028 A 
HETATM   18  C   UNL     1      45.546  -9.186   9.966  1.00  0.00     0.010 A 
HETATM   19  C   UNL     1      46.000  -9.596   8.713  1.00  0.00     0.003 A 
HETATM   20  C   UNL     1      45.135 -10.254   7.838  1.00  0.00     0.029 A 
BRANCH  17  21
HETATM   21  C   UNL     1      43.701  -8.995  11.710  1.00  0.00     0.147 C 
HETATM   22  C   UNL     1      42.844 -10.075  12.357  1.00  0.00     0.044 C 
BRANCH  21  23
HETATM   23  O   UNL     1      42.930  -7.802  11.575  1.00  0.00    -0.391 OA
HETATM   24  H   UNL     1      43.490  -7.154  11.116  1.00  0.00     0.210 HD
ENDBRANCH  21  23
ENDBRANCH  17  21
ENDBRANCH  12  15
ENDBRANCH   1  11
BRANCH   4  25
HETATM   25  C   UNL     1      39.518 -12.944   1.976  1.00  0.00     0.409 C 
HETATM   26  F   UNL     1      39.325 -13.132   0.656  1.00  0.00    -0.169 F 
HETATM   27  F   UNL     1      38.358 -13.216   2.618  1.00  0.00    -0.169 F 
HETATM   28  F   UNL     1      39.744 -11.611   2.139  1.00  0.00    -0.169 F 
ENDBRANCH   4  25
BRANCH   6  29
HETATM   29  C   UNL     1      43.175 -15.576   2.484  1.00  0.00     0.075 A 
HETATM   30  O   UNL     1      43.510 -16.003   3.737  1.00  0.00    -0.325 OA
HETATM   31  C   UNL     1      43.464 -17.360   3.723  1.00  0.00     0.142 A 
HETATM   32  C   UNL     1      43.099 -17.815   2.477  1.00  0.00     0.027 A 
HETATM   33  C   UNL     1      42.909 -16.664   1.676  1.00  0.00     0.037 A 
ENDBRANCH   6  29
TORSDOF 6
ENDMDL
MODEL 8
REMARK VINA RESULT:      -7.8     15.253     16.984
REMARK  6 active torsions:
REMARK  status: ('A' for Active; 'I' for Inactive)
REMARK    1  A    between atoms: C_2  and  O_3 
REMARK    2  A    between atoms: C_2  and  C_4 
REMARK    3  A    between atoms: C_6  and  N_7 
REMARK       I    between atoms: N_7  and  C_8 
REMARK    4  A    between atoms: C_8  and  C_9 
REMARK    5  A    between atoms: C_12  and  C_13 
REMARK    6  A    between atoms: C_18  and  C_19 
ROOT
HETATM    1  C   UNL     1      43.698 -30.407   0.563  1.00  0.00     0.096 A 
HETATM    2  C   UNL     1      44.509 -29.565  -0.176  1.00  0.00     0.138 A 
HETATM    3  N   UNL     1      44.571 -30.112  -1.438  1.00  0.00    -0.240 N 
HETATM    4  C   UNL     1      45.368 -29.578  -2.529  1.00  0.00     0.221 C 
HETATM    5  C   UNL     1      45.841 -28.149  -2.203  1.00  0.00     0.068 C 
HETATM    6  C   UNL     1      46.320 -28.037  -0.749  1.00  0.00     0.143 C 
HETATM    7  N   UNL     1      45.206 -28.435   0.136  1.00  0.00    -0.363 N 
HETATM    8  N   UNL     1      43.992 -31.320  -1.522  1.00  0.00    -0.181 NA
HETATM    9  C   UNL     1      43.441 -31.485  -0.316  1.00  0.00     0.160 A 
HETATM   10  H   UNL     1      45.443 -28.278   1.119  1.00  0.00     0.162 HD
ENDROOT
BRANCH   1  11
HETATM   11  C   UNL     1      43.247 -30.285   1.939  1.00  0.00     0.261 C 
HETATM   12  N   UNL     1      42.530 -31.382   2.379  1.00  0.00    -0.323 N 
HETATM   13  H   UNL     1      42.523 -32.178   1.749  1.00  0.00     0.169 HD
HETATM   14  O   UNL     1      43.542 -29.299   2.605  1.00  0.00    -0.267 OA
BRANCH  12  15
HETATM   15  C   UNL     1      41.917 -31.562   3.634  1.00  0.00     0.035 A 
HETATM   16  C   UNL     1      42.624 -31.665   4.835  1.00  0.00     0.039 A 
HETATM   17  C   UNL     1      41.955 -31.831   6.062  1.00  0.00    -0.028 A 
HETATM   18  C   UNL     1      40.557 -31.911   6.062  1.00  0.00     0.010 A 
HETATM   19  C   UNL     1      39.842 -31.805   4.870  1.00  0.00     0.003 A 
HETATM   20  C   UNL     1      40.519 -31.622   3.663  1.00  0.00     0.029 A 
BRANCH  17  21
HETATM   21  C   UNL     1      42.758 -31.952   7.339  1.00  0.00     0.147 C 
HETATM   22  C   UNL     1      42.223 -33.061   8.235  1.00  0.00     0.044 C 
BRANCH  21  23
HETATM   23  O   UNL     1      42.733 -30.718   8.056  1.00  0.00    -0.391 OA
HETATM   24  H   UNL     1      43.261 -30.849   8.862  1.00  0.00     0.210 HD
ENDBRANCH  21  23
ENDBRANCH  17  21
ENDBRANCH  12  15
ENDBRANCH   1  11
BRANCH   4  25
HETATM   25  C   UNL     1      44.597 -29.570  -3.831  1.00  0.00     0.409 C 
HETATM   26  F   UNL     1      44.679 -30.726  -4.519  1.00  0.00    -0.169 F 
HETATM   27  F   UNL     1      43.289 -29.276  -3.650  1.00  0.00    -0.169 F 
HETATM   28  F   UNL     1      45.097 -28.606  -4.652  1.00  0.00    -0.169 F 
ENDBRANCH   4  25
BRANCH   6  29
HETATM   29  C   UNL     1      47.603 -28.783  -0.529  1.00  0.00     0.075 A 
HETATM   30  O   UNL     1      47.816 -29.260   0.733  1.00  0.00    -0.325 OA
HETATM   31  C   UNL     1      49.025 -29.879   0.727  1.00  0.00     0.142 A 
HETATM   32  C   UNL     1      49.594 -29.812  -0.523  1.00  0.00     0.027 A 
HETATM   33  C   UNL     1      48.676 -29.107  -1.337  1.00  0.00     0.037 A 
ENDBRANCH   6  29
TORSDOF 6
ENDMDL
MODEL 9
REMARK VINA RESULT:      -7.7     15.411     17.327
REMARK  6 active torsions:
REMARK  status: ('A' for Active; 'I' for Inactive)
REMARK    1  A    between atoms: C_2  and  O_3 
REMARK    2  A    between atoms: C_2  and  C_4 
REMARK    3  A    between atoms: C_6  and  N_7 
REMARK       I    between atoms: N_7  and  C_8 
REMARK    4  A    between atoms: C_8  and  C_9 
REMARK    5  A    between atoms: C_12  and  C_13 
REMARK    6  A    between atoms: C_18  and  C_19 
ROOT
HETATM    1  C   UNL     1      43.773 -31.516  -0.402  1.00  0.00     0.096 A 
HETATM    2  C   UNL     1      44.465 -30.349  -0.672  1.00  0.00     0.138 A 
HETATM    3  N   UNL     1      44.724 -30.369  -2.025  1.00  0.00    -0.240 N 
HETATM    4  C   UNL     1      45.488 -29.357  -2.733  1.00  0.00     0.221 C 
HETATM    5  C   UNL     1      45.659 -28.100  -1.858  1.00  0.00     0.068 C 
HETATM    6  C   UNL     1      45.996 -28.471  -0.407  1.00  0.00     0.143 C 
HETATM    7  N   UNL     1      44.913 -29.329   0.114  1.00  0.00    -0.363 N 
HETATM    8  N   UNL     1      44.390 -31.529  -2.611  1.00  0.00    -0.181 NA
HETATM    9  C   UNL     1      43.790 -32.212  -1.633  1.00  0.00     0.160 A 
HETATM   10  H   UNL     1      45.040 -29.518   1.111  1.00  0.00     0.162 HD
ENDROOT
BRANCH   1  11
HETATM   11  C   UNL     1      43.204 -31.984   0.851  1.00  0.00     0.261 C 
HETATM   12  N   UNL     1      42.194 -31.172   1.331  1.00  0.00    -0.323 N 
HETATM   13  H   UNL     1      41.886 -30.440   0.698  1.00  0.00     0.169 HD
HETATM   14  O   UNL     1      43.596 -33.027   1.360  1.00  0.00    -0.267 OA
BRANCH  12  15
HETATM   15  C   UNL     1      41.472 -31.314   2.532  1.00  0.00     0.035 A 
HETATM   16  C   UNL     1      40.422 -32.219   2.703  1.00  0.00     0.039 A 
HETATM   17  C   UNL     1      39.745 -32.326   3.932  1.00  0.00    -0.028 A 
HETATM   18  C   UNL     1      40.131 -31.491   4.989  1.00  0.00     0.010 A 
HETATM   19  C   UNL     1      41.181 -30.589   4.829  1.00  0.00     0.003 A 
HETATM   20  C   UNL     1      41.853 -30.507   3.610  1.00  0.00     0.029 A 
BRANCH  17  21
HETATM   21  C   UNL     1      38.604 -33.310   4.072  1.00  0.00     0.147 C 
HETATM   22  C   UNL     1      39.003 -34.702   3.599  1.00  0.00     0.044 C 
BRANCH  21  23
HETATM   23  O   UNL     1      37.475 -32.866   3.321  1.00  0.00    -0.391 OA
HETATM   24  H   UNL     1      36.683 -33.176   3.791  1.00  0.00     0.210 HD
ENDBRANCH  21  23
ENDBRANCH  17  21
ENDBRANCH  12  15
ENDBRANCH   1  11
BRANCH   4  25
HETATM   25  C   UNL     1      44.830 -28.975  -4.041  1.00  0.00     0.409 C 
HETATM   26  F   UNL     1      45.176 -29.768  -5.075  1.00  0.00    -0.169 F 
HETATM   27  F   UNL     1      43.480 -28.961  -3.951  1.00  0.00    -0.169 F 
HETATM   28  F   UNL     1      45.205 -27.714  -4.390  1.00  0.00    -0.169 F 
ENDBRANCH   4  25
BRANCH   6  29
HETATM   29  C   UNL     1      47.376 -29.049  -0.290  1.00  0.00     0.075 A 
HETATM   30  O   UNL     1      47.611 -29.835   0.803  1.00  0.00    -0.325 OA
HETATM   31  C   UNL     1      48.906 -30.238   0.733  1.00  0.00     0.142 A 
HETATM   32  C   UNL     1      49.510 -29.726  -0.391  1.00  0.00     0.027 A 
HETATM   33  C   UNL     1      48.522 -28.960  -1.055  1.00  0.00     0.037 A 
ENDBRANCH   6  29
TORSDOF 6
ENDMDL
MODEL 10
REMARK VINA RESULT:      -7.6      6.028      8.924
REMARK  6 active torsions:
REMARK  status: ('A' for Active; 'I' for Inactive)
REMARK    1  A    between atoms: C_2  and  O_3 
REMARK    2  A    between atoms: C_2  and  C_4 
REMARK    3  A    between atoms: C_6  and  N_7 
REMARK       I    between atoms: N_7  and  C_8 
REMARK    4  A    between atoms: C_8  and  C_9 
REMARK    5  A    between atoms: C_12  and  C_13 
REMARK    6  A    between atoms: C_18  and  C_19 
ROOT
HETATM    1  C   UNL     1      42.241 -12.281   5.921  1.00  0.00     0.096 A 
HETATM    2  C   UNL     1      42.383 -11.043   6.523  1.00  0.00     0.138 A 
HETATM    3  N   UNL     1      43.465 -11.157   7.368  1.00  0.00    -0.240 N 
HETATM    4  C   UNL     1      43.936 -10.102   8.249  1.00  0.00     0.221 C 
HETATM    5  C   UNL     1      43.305  -8.751   7.860  1.00  0.00     0.068 C 
HETATM    6  C   UNL     1      41.811  -8.904   7.542  1.00  0.00     0.143 C 
HETATM    7  N   UNL     1      41.670  -9.884   6.446  1.00  0.00    -0.363 N 
HETATM    8  N   UNL     1      43.928 -12.412   7.472  1.00  0.00    -0.181 NA
HETATM    9  C   UNL     1      43.204 -13.086   6.575  1.00  0.00     0.160 A 
HETATM   10  H   UNL     1      40.699  -9.943   6.128  1.00  0.00     0.162 HD
ENDROOT
BRANCH   1  11
HETATM   11  C   UNL     1      41.298 -12.711   4.904  1.00  0.00     0.261 C 
HETATM   12  N   UNL     1      41.884 -13.443   3.889  1.00  0.00    -0.323 N 
HETATM   13  H   UNL     1      42.854 -13.702   4.043  1.00  0.00     0.169 HD
HETATM   14  O   UNL     1      40.105 -12.454   5.013  1.00  0.00    -0.267 OA
BRANCH  12  15
HETATM   15  C   UNL     1      41.266 -13.965   2.736  1.00  0.00     0.035 A 
HETATM   16  C   UNL     1      41.041 -13.223   1.574  1.00  0.00     0.039 A 
HETATM   17  C   UNL     1      40.429 -13.803   0.446  1.00  0.00    -0.028 A 
HETATM   18  C   UNL     1      40.029 -15.143   0.511  1.00  0.00     0.010 A 
HETATM   19  C   UNL     1      40.254 -15.893   1.665  1.00  0.00     0.003 A 
HETATM   20  C   UNL     1      40.877 -15.309   2.768  1.00  0.00     0.029 A 
BRANCH  17  21
HETATM   21  C   UNL     1      40.191 -12.961  -0.789  1.00  0.00     0.147 C 
HETATM   22  C   UNL     1      38.772 -13.129  -1.315  1.00  0.00     0.044 C 
BRANCH  21  23
HETATM   23  O   UNL     1      41.117 -13.318  -1.815  1.00  0.00    -0.391 OA
HETATM   24  H   UNL     1      42.007 -13.206  -1.442  1.00  0.00     0.210 HD
ENDBRANCH  21  23
ENDBRANCH  17  21
ENDBRANCH  12  15
ENDBRANCH   1  11
BRANCH   4  25
HETATM   25  C   UNL     1      45.444  -9.982   8.219  1.00  0.00     0.409 C 
HETATM   26  F   UNL     1      46.071 -10.773   9.112  1.00  0.00    -0.169 F 
HETATM   27  F   UNL     1      45.954 -10.241   6.992  1.00  0.00    -0.169 F 
HETATM   28  F   UNL     1      45.807  -8.706   8.523  1.00  0.00    -0.169 F 
ENDBRANCH   4  25
BRANCH   6  29
HETATM   29  C   UNL     1      41.011  -9.210   8.774  1.00  0.00     0.075 A 
HETATM   30  O   UNL     1      39.718  -9.603   8.573  1.00  0.00    -0.325 OA
HETATM   31  C   UNL     1      39.169  -9.810   9.798  1.00  0.00     0.142 A 
HETATM   32  C   UNL     1      40.090  -9.560  10.787  1.00  0.00     0.027 A 
HETATM   33  C   UNL     1      41.282  -9.175  10.128  1.00  0.00     0.037 A 
ENDBRANCH   6  29
TORSDOF 6
ENDMDL
