MODEL 1
REMARK VINA RESULT:      -9.1      0.000      0.000
REMARK  5 active torsions:
REMARK  status: ('A' for Active; 'I' for Inactive)
REMARK    1  A    between atoms: C_6  and  N_7 
REMARK       I    between atoms: N_7  and  C_8 
REMARK       I    between atoms: C_8  and  N_9 
REMARK    2  A    between atoms: N_9  and  C_10 
REMARK    3  A    between atoms: C_13  and  C_14 
REMARK       I    between atoms: C_14  and  N_15 
REMARK    4  A    between atoms: N_15  and  C_16 
REMARK    5  A    between atoms: C_16  and  C_17 
ROOT
HETATM    1  C   UNL     1      42.417 -13.321   4.172  1.00  0.00     0.175 A 
HETATM    2  S   UNL     1      43.091 -12.157   3.126  1.00  0.00    -0.061 SA
HETATM    3  C   UNL     1      43.927 -11.480   4.454  1.00  0.00     0.090 A 
HETATM    4  C   UNL     1      43.662 -12.201   5.608  1.00  0.00     0.133 A 
HETATM    5  N   UNL     1      42.753 -13.259   5.439  1.00  0.00    -0.218 NA
ENDROOT
BRANCH   1   6
HETATM    6  N   UNL     1      41.591 -14.205   3.547  1.00  0.00    -0.287 N 
HETATM    7  C   UNL     1      41.785 -15.541   3.372  1.00  0.00     0.326 C 
HETATM    8  N   UNL     1      42.891 -16.092   3.962  1.00  0.00    -0.309 N 
HETATM    9  O   UNL     1      40.936 -16.151   2.725  1.00  0.00    -0.247 OA
HETATM   10  H   UNL     1      43.454 -15.442   4.500  1.00  0.00     0.170 HD
HETATM   11  H   UNL     1      40.734 -13.846   3.155  1.00  0.00     0.172 HD
BRANCH   8  12
HETATM   12  C   UNL     1      43.284 -17.446   3.971  1.00  0.00     0.037 A 
HETATM   13  C   UNL     1      43.344 -18.249   2.829  1.00  0.00     0.053 A 
HETATM   14  C   UNL     1      43.731 -19.587   2.933  1.00  0.00     0.036 A 
HETATM   15  C   UNL     1      44.061 -20.139   4.168  1.00  0.00     0.024 A 
HETATM   16 CL   UNL     1      43.806 -20.568   1.518  1.00  0.00    -0.084 Cl
HETATM   17  C   UNL     1      44.010 -19.344   5.311  1.00  0.00     0.004 A 
HETATM   18  C   UNL     1      43.628 -18.003   5.211  1.00  0.00     0.029 A 
ENDBRANCH   8  12
ENDBRANCH   1   6
BRANCH   4  19
HETATM   19  C   UNL     1      44.299 -11.898   6.893  1.00  0.00     0.271 C 
HETATM   20  N   UNL     1      45.203 -10.866   6.836  1.00  0.00    -0.351 N 
HETATM   21  H   UNL     1      45.444 -10.500   5.923  1.00  0.00     0.163 HD
HETATM   22  O   UNL     1      44.030 -12.504   7.925  1.00  0.00    -0.266 OA
BRANCH  20  23
HETATM   23  C   UNL     1      45.932 -10.458   8.011  1.00  0.00     0.161 C 
BRANCH  23  24
HETATM   24  C   UNL     1      45.125  -9.593   8.945  1.00  0.00    -0.040 A 
HETATM   25  C   UNL     1      44.451  -8.447   8.493  1.00  0.00     0.010 A 
HETATM   26  C   UNL     1      43.659  -7.696   9.366  1.00  0.00     0.024 A 
HETATM   27  C   UNL     1      43.517  -8.097  10.692  1.00  0.00     0.034 A 
HETATM   28 CL   UNL     1      42.531  -7.180  11.763  1.00  0.00    -0.084 Cl
HETATM   29  C   UNL     1      44.159  -9.242  11.153  1.00  0.00     0.024 A 
HETATM   30  C   UNL     1      44.957  -9.989  10.282  1.00  0.00     0.010 A 
ENDBRANCH  23  24
ENDBRANCH  20  23
ENDBRANCH   4  19
TORSDOF 5
ENDMDL
MODEL 2
REMARK VINA RESULT:      -9.0      2.165     10.111
REMARK  5 active torsions:
REMARK  status: ('A' for Active; 'I' for Inactive)
REMARK    1  A    between atoms: C_6  and  N_7 
REMARK       I    between atoms: N_7  and  C_8 
REMARK       I    between atoms: C_8  and  N_9 
REMARK    2  A    between atoms: N_9  and  C_10 
REMARK    3  A    between atoms: C_13  and  C_14 
REMARK       I    between atoms: C_14  and  N_15 
REMARK    4  A    between atoms: N_15  and  C_16 
REMARK    5  A    between atoms: C_16  and  C_17 
ROOT
HETATM    1  C   UNL     1      43.935 -11.299   6.836  1.00  0.00     0.175 A 
HETATM    2  S   UNL     1      42.945 -11.326   5.449  1.00  0.00    -0.061 SA
HETATM    3  C   UNL     1      42.797 -13.020   5.615  1.00  0.00     0.090 A 
HETATM    4  C   UNL     1      43.487 -13.457   6.734  1.00  0.00     0.133 A 
HETATM    5  N   UNL     1      44.177 -12.447   7.426  1.00  0.00    -0.218 NA
ENDROOT
BRANCH   1   6
HETATM    6  N   UNL     1      44.365 -10.054   7.179  1.00  0.00    -0.287 N 
HETATM    7  C   UNL     1      44.019  -9.330   8.279  1.00  0.00     0.326 C 
HETATM    8  N   UNL     1      43.216  -9.945   9.202  1.00  0.00    -0.309 N 
HETATM    9  O   UNL     1      44.480  -8.194   8.371  1.00  0.00    -0.247 OA
HETATM   10  H   UNL     1      42.973 -10.906   8.982  1.00  0.00     0.170 HD
HETATM   11  H   UNL     1      45.008  -9.593   6.554  1.00  0.00     0.172 HD
BRANCH   8  12
HETATM   12  C   UNL     1      42.764  -9.435  10.435  1.00  0.00     0.037 A 
HETATM   13  C   UNL     1      41.418  -9.362  10.803  1.00  0.00     0.053 A 
HETATM   14  C   UNL     1      41.058  -8.826  12.042  1.00  0.00     0.036 A 
HETATM   15  C   UNL     1      42.028  -8.358  12.924  1.00  0.00     0.024 A 
HETATM   16 CL   UNL     1      39.395  -8.746  12.488  1.00  0.00    -0.084 Cl
HETATM   17  C   UNL     1      43.372  -8.432  12.568  1.00  0.00     0.004 A 
HETATM   18  C   UNL     1      43.738  -8.972  11.331  1.00  0.00     0.029 A 
ENDBRANCH   8  12
ENDBRANCH   1   6
BRANCH   4  19
HETATM   19  C   UNL     1      43.478 -14.856   7.171  1.00  0.00     0.271 C 
HETATM   20  N   UNL     1      43.895 -15.743   6.209  1.00  0.00    -0.351 N 
HETATM   21  H   UNL     1      44.043 -15.388   5.273  1.00  0.00     0.163 HD
HETATM   22  O   UNL     1      43.144 -15.194   8.303  1.00  0.00    -0.266 OA
BRANCH  20  23
HETATM   23  C   UNL     1      43.923 -17.160   6.474  1.00  0.00     0.161 C 
BRANCH  23  24
HETATM   24  C   UNL     1      43.805 -18.003   5.229  1.00  0.00    -0.040 A 
HETATM   25  C   UNL     1      43.599 -17.428   3.965  1.00  0.00     0.010 A 
HETATM   26  C   UNL     1      43.555 -18.225   2.818  1.00  0.00     0.024 A 
HETATM   27  C   UNL     1      43.739 -19.602   2.924  1.00  0.00     0.034 A 
HETATM   28 CL   UNL     1      43.698 -20.582   1.511  1.00  0.00    -0.084 Cl
HETATM   29  C   UNL     1      43.967 -20.187   4.165  1.00  0.00     0.024 A 
HETATM   30  C   UNL     1      44.003 -19.391   5.313  1.00  0.00     0.010 A 
ENDBRANCH  23  24
ENDBRANCH  20  23
ENDBRANCH   4  19
TORSDOF 5
ENDMDL
MODEL 3
REMARK VINA RESULT:      -8.7      4.430      8.361
REMARK  5 active torsions:
REMARK  status: ('A' for Active; 'I' for Inactive)
REMARK    1  A    between atoms: C_6  and  N_7 
REMARK       I    between atoms: N_7  and  C_8 
REMARK       I    between atoms: C_8  and  N_9 
REMARK    2  A    between atoms: N_9  and  C_10 
REMARK    3  A    between atoms: C_13  and  C_14 
REMARK       I    between atoms: C_14  and  N_15 
REMARK    4  A    between atoms: N_15  and  C_16 
REMARK    5  A    between atoms: C_16  and  C_17 
ROOT
HETATM    1  C   UNL     1      42.307 -11.111   3.710  1.00  0.00     0.175 A 
HETATM    2  S   UNL     1      41.580 -10.248   4.986  1.00  0.00    -0.061 SA
HETATM    3  C   UNL     1      41.929 -11.550   6.036  1.00  0.00     0.090 A 
HETATM    4  C   UNL     1      42.604 -12.551   5.355  1.00  0.00     0.133 A 
HETATM    5  N   UNL     1      42.793 -12.299   3.985  1.00  0.00    -0.218 NA
ENDROOT
BRANCH   1   6
HETATM    6  N   UNL     1      42.299 -10.444   2.523  1.00  0.00    -0.287 N 
HETATM    7  C   UNL     1      41.693 -10.820   1.363  1.00  0.00     0.326 C 
HETATM    8  N   UNL     1      40.924 -11.952   1.402  1.00  0.00    -0.309 N 
HETATM    9  O   UNL     1      41.857 -10.096   0.383  1.00  0.00    -0.247 OA
HETATM   10  H   UNL     1      40.863 -12.395   2.313  1.00  0.00     0.170 HD
HETATM   11  H   UNL     1      42.802  -9.571   2.474  1.00  0.00     0.172 HD
BRANCH   8  12
HETATM   12  C   UNL     1      40.161 -12.517   0.361  1.00  0.00     0.037 A 
HETATM   13  C   UNL     1      39.162 -11.831  -0.336  1.00  0.00     0.053 A 
HETATM   14  C   UNL     1      38.443 -12.474  -1.346  1.00  0.00     0.036 A 
HETATM   15  C   UNL     1      38.706 -13.802  -1.672  1.00  0.00     0.024 A 
HETATM   16 CL   UNL     1      37.218 -11.617  -2.202  1.00  0.00    -0.084 Cl
HETATM   17  C   UNL     1      39.703 -14.492  -0.987  1.00  0.00     0.004 A 
HETATM   18  C   UNL     1      40.429 -13.851   0.021  1.00  0.00     0.029 A 
ENDBRANCH   8  12
ENDBRANCH   1   6
BRANCH   4  19
HETATM   19  C   UNL     1      43.099 -13.761   6.016  1.00  0.00     0.271 C 
HETATM   20  N   UNL     1      43.080 -14.879   5.218  1.00  0.00    -0.351 N 
HETATM   21  H   UNL     1      42.621 -14.808   4.319  1.00  0.00     0.163 HD
HETATM   22  O   UNL     1      43.510 -13.763   7.173  1.00  0.00    -0.266 OA
BRANCH  20  23
HETATM   23  C   UNL     1      43.514 -16.156   5.727  1.00  0.00     0.161 C 
BRANCH  23  24
HETATM   24  C   UNL     1      43.594 -17.226   4.668  1.00  0.00    -0.040 A 
HETATM   25  C   UNL     1      44.156 -18.486   4.931  1.00  0.00     0.010 A 
HETATM   26  C   UNL     1      44.163 -19.482   3.950  1.00  0.00     0.024 A 
HETATM   27  C   UNL     1      43.589 -19.233   2.706  1.00  0.00     0.034 A 
HETATM   28 CL   UNL     1      43.586 -20.463   1.503  1.00  0.00    -0.084 Cl
HETATM   29  C   UNL     1      43.008 -17.999   2.434  1.00  0.00     0.024 A 
HETATM   30  C   UNL     1      43.007 -17.000   3.412  1.00  0.00     0.010 A 
ENDBRANCH  23  24
ENDBRANCH  20  23
ENDBRANCH   4  19
TORSDOF 5
ENDMDL
MODEL 4
REMARK VINA RESULT:      -8.4      2.282      9.403
REMARK  5 active torsions:
REMARK  status: ('A' for Active; 'I' for Inactive)
REMARK    1  A    between atoms: C_6  and  N_7 
REMARK       I    between atoms: N_7  and  C_8 
REMARK       I    between atoms: C_8  and  N_9 
REMARK    2  A    between atoms: N_9  and  C_10 
REMARK    3  A    between atoms: C_13  and  C_14 
REMARK       I    between atoms: C_14  and  N_15 
REMARK    4  A    between atoms: N_15  and  C_16 
REMARK    5  A    between atoms: C_16  and  C_17 
ROOT
HETATM    1  C   UNL     1      41.050 -11.295   4.947  1.00  0.00     0.175 A 
HETATM    2  S   UNL     1      39.812 -12.356   5.442  1.00  0.00    -0.061 SA
HETATM    3  C   UNL     1      40.494 -13.576   4.458  1.00  0.00     0.090 A 
HETATM    4  C   UNL     1      41.640 -13.107   3.834  1.00  0.00     0.133 A 
HETATM    5  N   UNL     1      41.941 -11.761   4.102  1.00  0.00    -0.218 NA
ENDROOT
BRANCH   1   6
HETATM    6  N   UNL     1      40.966 -10.057   5.506  1.00  0.00    -0.287 N 
HETATM    7  C   UNL     1      41.661  -9.582   6.577  1.00  0.00     0.326 C 
HETATM    8  N   UNL     1      42.621 -10.400   7.109  1.00  0.00    -0.309 N 
HETATM    9  O   UNL     1      41.392  -8.445   6.960  1.00  0.00    -0.247 OA
HETATM   10  H   UNL     1      42.739 -11.286   6.629  1.00  0.00     0.170 HD
HETATM   11  H   UNL     1      40.314  -9.403   5.101  1.00  0.00     0.172 HD
BRANCH   8  12
HETATM   12  C   UNL     1      43.501 -10.124   8.175  1.00  0.00     0.037 A 
HETATM   13  C   UNL     1      43.083  -9.747   9.454  1.00  0.00     0.053 A 
HETATM   14  C   UNL     1      44.026  -9.478  10.448  1.00  0.00     0.036 A 
HETATM   15  C   UNL     1      45.389  -9.578  10.183  1.00  0.00     0.024 A 
HETATM   16 CL   UNL     1      43.501  -9.019  12.024  1.00  0.00    -0.084 Cl
HETATM   17  C   UNL     1      45.815  -9.959   8.912  1.00  0.00     0.004 A 
HETATM   18  C   UNL     1      44.874 -10.234   7.915  1.00  0.00     0.029 A 
ENDBRANCH   8  12
ENDBRANCH   1   6
BRANCH   4  19
HETATM   19  C   UNL     1      42.480 -13.955   2.985  1.00  0.00     0.271 C 
HETATM   20  N   UNL     1      41.987 -15.224   2.804  1.00  0.00    -0.351 N 
HETATM   21  H   UNL     1      41.185 -15.502   3.356  1.00  0.00     0.163 HD
HETATM   22  O   UNL     1      43.520 -13.554   2.470  1.00  0.00    -0.266 OA
BRANCH  20  23
HETATM   23  C   UNL     1      42.708 -16.190   2.012  1.00  0.00     0.161 C 
BRANCH  23  24
HETATM   24  C   UNL     1      43.238 -17.348   2.819  1.00  0.00    -0.040 A 
HETATM   25  C   UNL     1      43.616 -17.200   4.164  1.00  0.00     0.010 A 
HETATM   26  C   UNL     1      44.047 -18.301   4.908  1.00  0.00     0.024 A 
HETATM   27  C   UNL     1      44.082 -19.564   4.321  1.00  0.00     0.034 A 
HETATM   28 CL   UNL     1      44.599 -20.922   5.242  1.00  0.00    -0.084 Cl
HETATM   29  C   UNL     1      43.690 -19.735   2.997  1.00  0.00     0.024 A 
HETATM   30  C   UNL     1      43.266 -18.632   2.250  1.00  0.00     0.010 A 
ENDBRANCH  23  24
ENDBRANCH  20  23
ENDBRANCH   4  19
TORSDOF 5
ENDMDL
MODEL 5
REMARK VINA RESULT:      -8.3      5.282      7.849
REMARK  5 active torsions:
REMARK  status: ('A' for Active; 'I' for Inactive)
REMARK    1  A    between atoms: C_6  and  N_7 
REMARK       I    between atoms: N_7  and  C_8 
REMARK       I    between atoms: C_8  and  N_9 
REMARK    2  A    between atoms: N_9  and  C_10 
REMARK    3  A    between atoms: C_13  and  C_14 
REMARK       I    between atoms: C_14  and  N_15 
REMARK    4  A    between atoms: N_15  and  C_16 
REMARK    5  A    between atoms: C_16  and  C_17 
ROOT
HETATM    1  C   UNL     1      42.536 -14.130   5.442  1.00  0.00     0.175 A 
HETATM    2  S   UNL     1      41.031 -14.492   6.153  1.00  0.00    -0.061 SA
HETATM    3  C   UNL     1      40.268 -13.494   4.995  1.00  0.00     0.090 A 
HETATM    4  C   UNL     1      41.206 -12.969   4.120  1.00  0.00     0.133 A 
HETATM    5  N   UNL     1      42.535 -13.321   4.408  1.00  0.00    -0.218 NA
ENDROOT
BRANCH   1   6
HETATM    6  N   UNL     1      43.590 -14.744   6.047  1.00  0.00    -0.287 N 
HETATM    7  C   UNL     1      43.979 -16.043   5.920  1.00  0.00     0.326 C 
HETATM    8  N   UNL     1      43.296 -16.811   5.015  1.00  0.00    -0.309 N 
HETATM    9  O   UNL     1      44.931 -16.413   6.603  1.00  0.00    -0.247 OA
HETATM   10  H   UNL     1      42.570 -16.321   4.503  1.00  0.00     0.170 HD
HETATM   11  H   UNL     1      44.156 -14.192   6.674  1.00  0.00     0.172 HD
BRANCH   8  12
HETATM   12  C   UNL     1      43.535 -18.155   4.664  1.00  0.00     0.037 A 
HETATM   13  C   UNL     1      43.585 -18.620   3.347  1.00  0.00     0.053 A 
HETATM   14  C   UNL     1      43.813 -19.974   3.090  1.00  0.00     0.036 A 
HETATM   15  C   UNL     1      43.991 -20.876   4.135  1.00  0.00     0.024 A 
HETATM   16 CL   UNL     1      43.878 -20.537   1.463  1.00  0.00    -0.084 Cl
HETATM   17  C   UNL     1      43.949 -20.420   5.451  1.00  0.00     0.004 A 
HETATM   18  C   UNL     1      43.726 -19.065   5.712  1.00  0.00     0.029 A 
ENDBRANCH   8  12
ENDBRANCH   1   6
BRANCH   4  19
HETATM   19  C   UNL     1      40.836 -12.133   2.974  1.00  0.00     0.271 C 
HETATM   20  N   UNL     1      41.427 -12.514   1.794  1.00  0.00    -0.351 N 
HETATM   21  H   UNL     1      42.142 -13.229   1.833  1.00  0.00     0.163 HD
HETATM   22  O   UNL     1      40.054 -11.192   3.065  1.00  0.00    -0.266 OA
BRANCH  20  23
HETATM   23  C   UNL     1      41.183 -11.781   0.576  1.00  0.00     0.161 C 
BRANCH  23  24
HETATM   24  C   UNL     1      40.501 -12.601  -0.489  1.00  0.00    -0.040 A 
HETATM   25  C   UNL     1      40.064 -13.913  -0.245  1.00  0.00     0.010 A 
HETATM   26  C   UNL     1      39.380 -14.631  -1.229  1.00  0.00     0.024 A 
HETATM   27  C   UNL     1      39.108 -14.036  -2.459  1.00  0.00     0.034 A 
HETATM   28 CL   UNL     1      38.254 -14.915  -3.666  1.00  0.00    -0.084 Cl
HETATM   29  C   UNL     1      39.513 -12.729  -2.712  1.00  0.00     0.024 A 
HETATM   30  C   UNL     1      40.204 -12.013  -1.730  1.00  0.00     0.010 A 
ENDBRANCH  23  24
ENDBRANCH  20  23
ENDBRANCH   4  19
TORSDOF 5
ENDMDL
MODEL 6
REMARK VINA RESULT:      -8.3      2.621     10.170
REMARK  5 active torsions:
REMARK  status: ('A' for Active; 'I' for Inactive)
REMARK    1  A    between atoms: C_6  and  N_7 
REMARK       I    between atoms: N_7  and  C_8 
REMARK       I    between atoms: C_8  and  N_9 
REMARK    2  A    between atoms: N_9  and  C_10 
REMARK    3  A    between atoms: C_13  and  C_14 
REMARK       I    between atoms: C_14  and  N_15 
REMARK    4  A    between atoms: N_15  and  C_16 
REMARK    5  A    between atoms: C_16  and  C_17 
ROOT
HETATM    1  C   UNL     1      43.880 -10.165   7.436  1.00  0.00     0.175 A 
HETATM    2  S   UNL     1      45.412 -10.911   7.449  1.00  0.00    -0.061 SA
HETATM    3  C   UNL     1      44.707 -12.322   6.793  1.00  0.00     0.090 A 
HETATM    4  C   UNL     1      43.352 -12.128   6.577  1.00  0.00     0.133 A 
HETATM    5  N   UNL     1      42.870 -10.873   6.985  1.00  0.00    -0.218 NA
ENDROOT
BRANCH   1   6
HETATM    6  N   UNL     1      43.889  -8.887   7.903  1.00  0.00    -0.287 N 
HETATM    7  C   UNL     1      43.440  -8.441   9.109  1.00  0.00     0.326 C 
HETATM    8  N   UNL     1      43.009  -9.387  10.001  1.00  0.00    -0.309 N 
HETATM    9  O   UNL     1      43.488  -7.230   9.313  1.00  0.00    -0.247 OA
HETATM   10  H   UNL     1      43.090 -10.345   9.678  1.00  0.00     0.170 HD
HETATM   11  H   UNL     1      44.259  -8.170   7.298  1.00  0.00     0.172 HD
BRANCH   8  12
HETATM   12  C   UNL     1      42.551  -9.189  11.319  1.00  0.00     0.037 A 
HETATM   13  C   UNL     1      43.128  -8.290  12.220  1.00  0.00     0.053 A 
HETATM   14  C   UNL     1      42.617  -8.170  13.514  1.00  0.00     0.036 A 
HETATM   15  C   UNL     1      41.532  -8.938  13.926  1.00  0.00     0.024 A 
HETATM   16 CL   UNL     1      43.334  -7.055  14.616  1.00  0.00    -0.084 Cl
HETATM   17  C   UNL     1      40.947  -9.833  13.033  1.00  0.00     0.004 A 
HETATM   18  C   UNL     1      41.451  -9.953  11.735  1.00  0.00     0.029 A 
ENDBRANCH   8  12
ENDBRANCH   1   6
BRANCH   4  19
HETATM   19  C   UNL     1      42.498 -13.142   5.952  1.00  0.00     0.271 C 
HETATM   20  N   UNL     1      43.155 -13.944   5.052  1.00  0.00    -0.351 N 
HETATM   21  H   UNL     1      44.105 -13.696   4.805  1.00  0.00     0.163 HD
HETATM   22  O   UNL     1      41.309 -13.267   6.227  1.00  0.00    -0.266 OA
BRANCH  20  23
HETATM   23  C   UNL     1      42.451 -14.977   4.334  1.00  0.00     0.161 C 
BRANCH  23  24
HETATM   24  C   UNL     1      43.014 -16.357   4.567  1.00  0.00    -0.040 A 
HETATM   25  C   UNL     1      43.059 -16.928   5.849  1.00  0.00     0.010 A 
HETATM   26  C   UNL     1      43.529 -18.232   6.032  1.00  0.00     0.024 A 
HETATM   27  C   UNL     1      43.936 -18.983   4.932  1.00  0.00     0.034 A 
HETATM   28 CL   UNL     1      44.500 -20.592   5.155  1.00  0.00    -0.084 Cl
HETATM   29  C   UNL     1      43.876 -18.442   3.651  1.00  0.00     0.024 A 
HETATM   30  C   UNL     1      43.414 -17.136   3.469  1.00  0.00     0.010 A 
ENDBRANCH  23  24
ENDBRANCH  20  23
ENDBRANCH   4  19
TORSDOF 5
ENDMDL
MODEL 7
REMARK VINA RESULT:      -8.2      4.597      7.662
REMARK  5 active torsions:
REMARK  status: ('A' for Active; 'I' for Inactive)
REMARK    1  A    between atoms: C_6  and  N_7 
REMARK       I    between atoms: N_7  and  C_8 
REMARK       I    between atoms: C_8  and  N_9 
REMARK    2  A    between atoms: N_9  and  C_10 
REMARK    3  A    between atoms: C_13  and  C_14 
REMARK       I    between atoms: C_14  and  N_15 
REMARK    4  A    between atoms: N_15  and  C_16 
REMARK    5  A    between atoms: C_16  and  C_17 
ROOT
HETATM    1  C   UNL     1      42.203 -13.147   5.430  1.00  0.00     0.175 A 
HETATM    2  S   UNL     1      43.085 -11.845   6.084  1.00  0.00    -0.061 SA
HETATM    3  C   UNL     1      42.808 -10.964   4.645  1.00  0.00     0.090 A 
HETATM    4  C   UNL     1      42.035 -11.707   3.767  1.00  0.00     0.133 A 
HETATM    5  N   UNL     1      41.712 -12.997   4.222  1.00  0.00    -0.218 NA
ENDROOT
BRANCH   1   6
HETATM    6  N   UNL     1      42.107 -14.218   6.265  1.00  0.00    -0.287 N 
HETATM    7  C   UNL     1      42.310 -15.530   5.959  1.00  0.00     0.326 C 
HETATM    8  N   UNL     1      42.747 -15.814   4.694  1.00  0.00    -0.309 N 
HETATM    9  O   UNL     1      42.115 -16.351   6.854  1.00  0.00    -0.247 OA
HETATM   10  H   UNL     1      42.902 -15.002   4.104  1.00  0.00     0.170 HD
HETATM   11  H   UNL     1      41.849 -14.042   7.224  1.00  0.00     0.172 HD
BRANCH   8  12
HETATM   12  C   UNL     1      43.075 -17.073   4.152  1.00  0.00     0.037 A 
HETATM   13  C   UNL     1      43.650 -18.113   4.888  1.00  0.00     0.053 A 
HETATM   14  C   UNL     1      43.957 -19.325   4.267  1.00  0.00     0.036 A 
HETATM   15  C   UNL     1      43.699 -19.516   2.912  1.00  0.00     0.024 A 
HETATM   16 CL   UNL     1      44.660 -20.603   5.184  1.00  0.00    -0.084 Cl
HETATM   17  C   UNL     1      43.122 -18.487   2.172  1.00  0.00     0.004 A 
HETATM   18  C   UNL     1      42.807 -17.273   2.791  1.00  0.00     0.029 A 
ENDBRANCH   8  12
ENDBRANCH   1   6
BRANCH   4  19
HETATM   19  C   UNL     1      41.575 -11.180   2.480  1.00  0.00     0.271 C 
HETATM   20  N   UNL     1      40.244 -11.408   2.229  1.00  0.00    -0.351 N 
HETATM   21  H   UNL     1      39.741 -12.012   2.866  1.00  0.00     0.163 HD
HETATM   22  O   UNL     1      42.314 -10.574   1.710  1.00  0.00    -0.266 OA
BRANCH  20  23
HETATM   23  C   UNL     1      39.641 -10.971   0.994  1.00  0.00     0.161 C 
BRANCH  23  24
HETATM   24  C   UNL     1      39.322 -12.103   0.051  1.00  0.00    -0.040 A 
HETATM   25  C   UNL     1      38.362 -11.970  -0.965  1.00  0.00     0.010 A 
HETATM   26  C   UNL     1      38.128 -13.013  -1.865  1.00  0.00     0.024 A 
HETATM   27  C   UNL     1      38.868 -14.189  -1.771  1.00  0.00     0.034 A 
HETATM   28 CL   UNL     1      38.590 -15.468  -2.888  1.00  0.00    -0.084 Cl
HETATM   29  C   UNL     1      39.840 -14.331  -0.786  1.00  0.00     0.024 A 
HETATM   30  C   UNL     1      40.069 -13.291   0.119  1.00  0.00     0.010 A 
ENDBRANCH  23  24
ENDBRANCH  20  23
ENDBRANCH   4  19
TORSDOF 5
ENDMDL
MODEL 8
REMARK VINA RESULT:      -8.2      2.735      9.741
REMARK  5 active torsions:
REMARK  status: ('A' for Active; 'I' for Inactive)
REMARK    1  A    between atoms: C_6  and  N_7 
REMARK       I    between atoms: N_7  and  C_8 
REMARK       I    between atoms: C_8  and  N_9 
REMARK    2  A    between atoms: N_9  and  C_10 
REMARK    3  A    between atoms: C_13  and  C_14 
REMARK       I    between atoms: C_14  and  N_15 
REMARK    4  A    between atoms: N_15  and  C_16 
REMARK    5  A    between atoms: C_16  and  C_17 
ROOT
HETATM    1  C   UNL     1      39.682 -11.946   5.833  1.00  0.00     0.175 A 
HETATM    2  S   UNL     1      39.462 -12.183   4.160  1.00  0.00    -0.061 SA
HETATM    3  C   UNL     1      40.421 -13.594   4.257  1.00  0.00     0.090 A 
HETATM    4  C   UNL     1      40.826 -13.813   5.564  1.00  0.00     0.133 A 
HETATM    5  N   UNL     1      40.414 -12.826   6.475  1.00  0.00    -0.218 NA
ENDROOT
BRANCH   1   6
HETATM    6  N   UNL     1      39.049 -10.842   6.318  1.00  0.00    -0.287 N 
HETATM    7  C   UNL     1      39.565  -9.881   7.133  1.00  0.00     0.326 C 
HETATM    8  N   UNL     1      40.897  -9.972   7.437  1.00  0.00    -0.309 N 
HETATM    9  O   UNL     1      38.802  -8.991   7.503  1.00  0.00    -0.247 OA
HETATM   10  H   UNL     1      41.381 -10.748   6.999  1.00  0.00     0.170 HD
HETATM   11  H   UNL     1      38.083 -10.707   6.062  1.00  0.00     0.172 HD
BRANCH   8  12
HETATM   12  C   UNL     1      41.672  -9.083   8.210  1.00  0.00     0.037 A 
HETATM   13  C   UNL     1      42.082  -9.344   9.520  1.00  0.00     0.053 A 
HETATM   14  C   UNL     1      42.837  -8.399  10.218  1.00  0.00     0.036 A 
HETATM   15  C   UNL     1      43.190  -7.190   9.625  1.00  0.00     0.024 A 
HETATM   16 CL   UNL     1      43.343  -8.731  11.832  1.00  0.00    -0.084 Cl
HETATM   17  C   UNL     1      42.790  -6.924   8.318  1.00  0.00     0.004 A 
HETATM   18  C   UNL     1      42.038  -7.869   7.613  1.00  0.00     0.029 A 
ENDBRANCH   8  12
ENDBRANCH   1   6
BRANCH   4  19
HETATM   19  C   UNL     1      41.600 -14.991   5.964  1.00  0.00     0.271 C 
HETATM   20  N   UNL     1      42.851 -15.053   5.401  1.00  0.00    -0.351 N 
HETATM   21  H   UNL     1      43.078 -14.378   4.683  1.00  0.00     0.163 HD
HETATM   22  O   UNL     1      41.168 -15.832   6.747  1.00  0.00    -0.266 OA
BRANCH  20  23
HETATM   23  C   UNL     1      43.729 -16.163   5.677  1.00  0.00     0.161 C 
BRANCH  23  24
HETATM   24  C   UNL     1      43.648 -17.260   4.646  1.00  0.00    -0.040 A 
HETATM   25  C   UNL     1      43.220 -17.009   3.332  1.00  0.00     0.010 A 
HETATM   26  C   UNL     1      43.211 -18.029   2.378  1.00  0.00     0.024 A 
HETATM   27  C   UNL     1      43.651 -19.305   2.723  1.00  0.00     0.034 A 
HETATM   28 CL   UNL     1      43.653 -20.558   1.545  1.00  0.00    -0.084 Cl
HETATM   29  C   UNL     1      44.100 -19.568   4.013  1.00  0.00     0.024 A 
HETATM   30  C   UNL     1      44.102 -18.549   4.970  1.00  0.00     0.010 A 
ENDBRANCH  23  24
ENDBRANCH  20  23
ENDBRANCH   4  19
TORSDOF 5
ENDMDL
MODEL 9
REMARK VINA RESULT:      -7.9      2.981      8.814
REMARK  5 active torsions:
REMARK  status: ('A' for Active; 'I' for Inactive)
REMARK    1  A    between atoms: C_6  and  N_7 
REMARK       I    between atoms: N_7  and  C_8 
REMARK       I    between atoms: C_8  and  N_9 
REMARK    2  A    between atoms: N_9  and  C_10 
REMARK    3  A    between atoms: C_13  and  C_14 
REMARK       I    between atoms: C_14  and  N_15 
REMARK    4  A    between atoms: N_15  and  C_16 
REMARK    5  A    between atoms: C_16  and  C_17 
ROOT
HETATM    1  C   UNL     1      39.508 -10.457   4.758  1.00  0.00     0.175 A 
HETATM    2  S   UNL     1      38.555  -9.517   3.703  1.00  0.00    -0.061 SA
HETATM    3  C   UNL     1      38.658 -10.762   2.537  1.00  0.00     0.090 A 
HETATM    4  C   UNL     1      39.388 -11.829   3.035  1.00  0.00     0.133 A 
HETATM    5  N   UNL     1      39.909 -11.629   4.325  1.00  0.00    -0.218 NA
ENDROOT
BRANCH   1   6
HETATM    6  N   UNL     1      39.742  -9.862   5.960  1.00  0.00    -0.287 N 
HETATM    7  C   UNL     1      40.892  -9.890   6.690  1.00  0.00     0.326 C 
HETATM    8  N   UNL     1      41.974 -10.506   6.122  1.00  0.00    -0.309 N 
HETATM    9  O   UNL     1      40.875  -9.331   7.785  1.00  0.00    -0.247 OA
HETATM   10  H   UNL     1      41.816 -10.869   5.187  1.00  0.00     0.170 HD
HETATM   11  H   UNL     1      38.986  -9.344   6.381  1.00  0.00     0.172 HD
BRANCH   8  12
HETATM   12  C   UNL     1      43.278 -10.623   6.644  1.00  0.00     0.037 A 
HETATM   13  C   UNL     1      43.674 -10.099   7.878  1.00  0.00     0.053 A 
HETATM   14  C   UNL     1      44.993 -10.249   8.312  1.00  0.00     0.036 A 
HETATM   15  C   UNL     1      45.929 -10.916   7.528  1.00  0.00     0.024 A 
HETATM   16 CL   UNL     1      45.470  -9.603   9.837  1.00  0.00    -0.084 Cl
HETATM   17  C   UNL     1      45.542 -11.446   6.299  1.00  0.00     0.004 A 
HETATM   18  C   UNL     1      44.222 -11.304   5.863  1.00  0.00     0.029 A 
ENDBRANCH   8  12
ENDBRANCH   1   6
BRANCH   4  19
HETATM   19  C   UNL     1      39.581 -13.074   2.285  1.00  0.00     0.271 C 
HETATM   20  N   UNL     1      39.683 -14.191   3.077  1.00  0.00    -0.351 N 
HETATM   21  H   UNL     1      39.747 -14.055   4.078  1.00  0.00     0.163 HD
HETATM   22  O   UNL     1      39.626 -13.107   1.059  1.00  0.00    -0.266 OA
BRANCH  20  23
HETATM   23  C   UNL     1      39.897 -15.492   2.493  1.00  0.00     0.161 C 
BRANCH  23  24
HETATM   24  C   UNL     1      41.127 -16.187   3.018  1.00  0.00    -0.040 A 
HETATM   25  C   UNL     1      41.418 -16.238   4.391  1.00  0.00     0.010 A 
HETATM   26  C   UNL     1      42.532 -16.941   4.858  1.00  0.00     0.024 A 
HETATM   27  C   UNL     1      43.353 -17.617   3.958  1.00  0.00     0.034 A 
HETATM   28 CL   UNL     1      44.716 -18.493   4.533  1.00  0.00    -0.084 Cl
HETATM   29  C   UNL     1      43.068 -17.597   2.596  1.00  0.00     0.024 A 
HETATM   30  C   UNL     1      41.958 -16.888   2.128  1.00  0.00     0.010 A 
ENDBRANCH  23  24
ENDBRANCH  20  23
ENDBRANCH   4  19
TORSDOF 5
ENDMDL
MODEL 10
REMARK VINA RESULT:      -7.8      3.118      9.847
REMARK  5 active torsions:
REMARK  status: ('A' for Active; 'I' for Inactive)
REMARK    1  A    between atoms: C_6  and  N_7 
REMARK       I    between atoms: N_7  and  C_8 
REMARK       I    between atoms: C_8  and  N_9 
REMARK    2  A    between atoms: N_9  and  C_10 
REMARK    3  A    between atoms: C_13  and  C_14 
REMARK       I    between atoms: C_14  and  N_15 
REMARK    4  A    between atoms: N_15  and  C_16 
REMARK    5  A    between atoms: C_16  and  C_17 
ROOT
HETATM    1  C   UNL     1      39.710 -10.442   6.859  1.00  0.00     0.175 A 
HETATM    2  S   UNL     1      38.697  -9.993   5.564  1.00  0.00    -0.061 SA
HETATM    3  C   UNL     1      39.975 -10.326   4.479  1.00  0.00     0.090 A 
HETATM    4  C   UNL     1      41.085 -10.786   5.169  1.00  0.00     0.133 A 
HETATM    5  N   UNL     1      40.932 -10.822   6.565  1.00  0.00    -0.218 NA
ENDROOT
BRANCH   1   6
HETATM    6  N   UNL     1      39.111 -10.355   8.078  1.00  0.00    -0.287 N 
HETATM    7  C   UNL     1      39.677  -9.968   9.255  1.00  0.00     0.326 C 
HETATM    8  N   UNL     1      40.972  -9.528   9.207  1.00  0.00    -0.309 N 
HETATM    9  O   UNL     1      38.970 -10.015  10.260  1.00  0.00    -0.247 OA
HETATM   10  H   UNL     1      41.383  -9.511   8.280  1.00  0.00     0.170 HD
HETATM   11  H   UNL     1      38.137 -10.611   8.141  1.00  0.00     0.172 HD
BRANCH   8  12
HETATM   12  C   UNL     1      41.758  -9.030  10.267  1.00  0.00     0.037 A 
HETATM   13  C   UNL     1      41.610  -7.753  10.814  1.00  0.00     0.053 A 
HETATM   14  C   UNL     1      42.443  -7.336  11.855  1.00  0.00     0.036 A 
HETATM   15  C   UNL     1      43.429  -8.179  12.359  1.00  0.00     0.024 A 
HETATM   16 CL   UNL     1      42.250  -5.761  12.527  1.00  0.00    -0.084 Cl
HETATM   17  C   UNL     1      43.580  -9.456  11.822  1.00  0.00     0.004 A 
HETATM   18  C   UNL     1      42.745  -9.880  10.785  1.00  0.00     0.029 A 
ENDBRANCH   8  12
ENDBRANCH   1   6
BRANCH   4  19
HETATM   19  C   UNL     1      42.310 -11.222   4.492  1.00  0.00     0.271 C 
HETATM   20  N   UNL     1      42.142 -12.327   3.694  1.00  0.00    -0.351 N 
HETATM   21  H   UNL     1      41.254 -12.810   3.738  1.00  0.00     0.163 HD
HETATM   22  O   UNL     1      43.381 -10.636   4.619  1.00  0.00    -0.266 OA
BRANCH  20  23
HETATM   23  C   UNL     1      43.256 -12.895   2.976  1.00  0.00     0.161 C 
BRANCH  23  24
HETATM   24  C   UNL     1      43.165 -14.392   2.819  1.00  0.00    -0.040 A 
HETATM   25  C   UNL     1      43.361 -15.018   1.578  1.00  0.00     0.010 A 
HETATM   26  C   UNL     1      43.332 -16.410   1.469  1.00  0.00     0.024 A 
HETATM   27  C   UNL     1      43.128 -17.190   2.605  1.00  0.00     0.034 A 
HETATM   28 CL   UNL     1      43.106 -18.905   2.474  1.00  0.00    -0.084 Cl
HETATM   29  C   UNL     1      42.954 -16.589   3.848  1.00  0.00     0.024 A 
HETATM   30  C   UNL     1      42.976 -15.196   3.955  1.00  0.00     0.010 A 
ENDBRANCH  23  24
ENDBRANCH  20  23
ENDBRANCH   4  19
TORSDOF 5
ENDMDL
