MODEL 1
REMARK VINA RESULT:      -9.6      0.000      0.000
REMARK  4 active torsions:
REMARK  status: ('A' for Active; 'I' for Inactive)
REMARK    1  A    between atoms: N_8  and  C_9 
REMARK    2  A    between atoms: C_19  and  C_20 
REMARK    3  A    between atoms: C_20  and  C_21 
REMARK    4  A    between atoms: C_24  and  C_25 
ROOT
HETATM    1  C   UNL     1      40.222 -14.499   6.076  1.00  0.00     0.069 C 
HETATM    2  C   UNL     1      40.527 -13.930   4.714  1.00  0.00     0.017 C 
HETATM    3  N   UNL     1      39.427 -13.417   4.039  1.00  0.00    -0.348 N 
HETATM    4  C   UNL     1      39.497 -13.008   2.738  1.00  0.00     0.119 A 
HETATM    5  C   UNL     1      40.673 -12.935   2.099  1.00  0.00     0.124 A 
HETATM    6  C   UNL     1      40.402 -12.394   0.759  1.00  0.00     0.280 A 
HETATM    7  O   UNL     1      41.243 -12.181  -0.097  1.00  0.00    -0.265 OA
HETATM    8  N   UNL     1      39.011 -12.202   0.713  1.00  0.00    -0.236 N 
HETATM    9  N   UNL     1      38.441 -12.610   1.937  1.00  0.00    -0.179 NA
HETATM   10  C   UNL     1      41.912 -13.311   2.777  1.00  0.00     0.199 C 
HETATM   11  O   UNL     1      43.014 -13.133   2.271  1.00  0.00    -0.287 OA
HETATM   12  C   UNL     1      41.763 -13.929   4.152  1.00  0.00     0.020 C 
HETATM   13  H   UNL     1      38.505 -13.647   4.395  1.00  0.00     0.167 HD
HETATM   14  H   UNL     1      37.920 -11.858   2.390  1.00  0.00     0.155 HD
ENDROOT
BRANCH  12  15
HETATM   15  C   UNL     1      43.033 -14.494   4.744  1.00  0.00     0.083 C 
BRANCH  15  16
HETATM   16  C   UNL     1      43.251 -15.939   4.348  1.00  0.00    -0.054 A 
HETATM   17  C   UNL     1      43.940 -16.811   5.201  1.00  0.00     0.008 A 
HETATM   18  C   UNL     1      44.212 -18.124   4.811  1.00  0.00     0.008 A 
HETATM   19  C   UNL     1      43.803 -18.599   3.557  1.00  0.00    -0.055 A 
HETATM   20  C   UNL     1      43.097 -17.731   2.713  1.00  0.00     0.008 A 
HETATM   21  C   UNL     1      42.825 -16.416   3.103  1.00  0.00     0.008 A 
BRANCH  19  22
HETATM   22  C   UNL     1      44.143 -20.019   3.142  1.00  0.00     0.010 C 
HETATM   23  C   UNL     1      43.849 -21.023   4.258  1.00  0.00     0.015 C 
HETATM   24  C   UNL     1      43.418 -20.408   1.850  1.00  0.00     0.015 C 
ENDBRANCH  19  22
ENDBRANCH  15  16
ENDBRANCH  12  15
BRANCH   8  25
HETATM   25  C   UNL     1      38.194 -11.779  -0.357  1.00  0.00     0.055 A 
HETATM   26  C   UNL     1      37.579 -10.519  -0.350  1.00  0.00     0.034 A 
HETATM   27  C   UNL     1      36.768 -10.108  -1.413  1.00  0.00     0.044 A 
HETATM   28  C   UNL     1      36.572 -10.955  -2.494  1.00  0.00     0.116 A 
HETATM   29  F   UNL     1      35.798 -10.563  -3.514  1.00  0.00    -0.206 F 
HETATM   30  C   UNL     1      37.172 -12.206  -2.532  1.00  0.00     0.044 A 
HETATM   31  C   UNL     1      37.980 -12.617  -1.467  1.00  0.00     0.034 A 
ENDBRANCH   8  25
TORSDOF 4
ENDMDL
MODEL 2
REMARK VINA RESULT:      -9.1      7.201      9.921
REMARK  4 active torsions:
REMARK  status: ('A' for Active; 'I' for Inactive)
REMARK    1  A    between atoms: N_8  and  C_9 
REMARK    2  A    between atoms: C_19  and  C_20 
REMARK    3  A    between atoms: C_20  and  C_21 
REMARK    4  A    between atoms: C_24  and  C_25 
ROOT
HETATM    1  C   UNL     1      41.560  -9.797   4.928  1.00  0.00     0.069 C 
HETATM    2  C   UNL     1      42.267 -10.105   6.223  1.00  0.00     0.017 C 
HETATM    3  N   UNL     1      41.660  -9.578   7.356  1.00  0.00    -0.348 N 
HETATM    4  C   UNL     1      42.249  -9.628   8.588  1.00  0.00     0.119 A 
HETATM    5  C   UNL     1      43.372 -10.333   8.788  1.00  0.00     0.124 A 
HETATM    6  C   UNL     1      43.689 -10.239  10.221  1.00  0.00     0.280 A 
HETATM    7  O   UNL     1      44.642 -10.768  10.766  1.00  0.00    -0.265 OA
HETATM    8  N   UNL     1      42.683  -9.426  10.768  1.00  0.00    -0.236 N 
HETATM    9  N   UNL     1      41.799  -9.022   9.746  1.00  0.00    -0.179 NA
HETATM   10  C   UNL     1      44.005 -11.052   7.684  1.00  0.00     0.199 C 
HETATM   11  O   UNL     1      44.953 -11.809   7.856  1.00  0.00    -0.287 OA
HETATM   12  C   UNL     1      43.420 -10.816   6.307  1.00  0.00     0.020 C 
HETATM   13  H   UNL     1      40.944  -8.871   7.223  1.00  0.00     0.167 HD
HETATM   14  H   UNL     1      40.835  -9.300   9.937  1.00  0.00     0.155 HD
ENDROOT
BRANCH  12  15
HETATM   15  C   UNL     1      44.212 -11.404   5.163  1.00  0.00     0.083 C 
BRANCH  15  16
HETATM   16  C   UNL     1      43.543 -12.630   4.578  1.00  0.00    -0.054 A 
HETATM   17  C   UNL     1      43.248 -13.732   5.391  1.00  0.00     0.008 A 
HETATM   18  C   UNL     1      42.700 -14.895   4.845  1.00  0.00     0.008 A 
HETATM   19  C   UNL     1      42.433 -14.986   3.472  1.00  0.00    -0.055 A 
HETATM   20  C   UNL     1      42.711 -13.875   2.664  1.00  0.00     0.008 A 
HETATM   21  C   UNL     1      43.260 -12.711   3.210  1.00  0.00     0.008 A 
BRANCH  19  22
HETATM   22  C   UNL     1      41.872 -16.274   2.897  1.00  0.00     0.010 C 
HETATM   23  C   UNL     1      40.741 -16.007   1.902  1.00  0.00     0.015 C 
HETATM   24  C   UNL     1      42.975 -17.122   2.257  1.00  0.00     0.015 C 
ENDBRANCH  19  22
ENDBRANCH  15  16
ENDBRANCH  12  15
BRANCH   8  25
HETATM   25  C   UNL     1      42.534  -8.939  12.085  1.00  0.00     0.055 A 
HETATM   26  C   UNL     1      43.355  -7.914  12.578  1.00  0.00     0.034 A 
HETATM   27  C   UNL     1      43.203  -7.438  13.885  1.00  0.00     0.044 A 
HETATM   28  C   UNL     1      42.226  -7.982  14.705  1.00  0.00     0.116 A 
HETATM   29  F   UNL     1      42.077  -7.526  15.955  1.00  0.00    -0.206 F 
HETATM   30  C   UNL     1      41.396  -8.993  14.242  1.00  0.00     0.044 A 
HETATM   31  C   UNL     1      41.549  -9.470  12.936  1.00  0.00     0.034 A 
ENDBRANCH   8  25
TORSDOF 4
ENDMDL
MODEL 3
REMARK VINA RESULT:      -9.0      5.904      8.240
REMARK  4 active torsions:
REMARK  status: ('A' for Active; 'I' for Inactive)
REMARK    1  A    between atoms: N_8  and  C_9 
REMARK    2  A    between atoms: C_19  and  C_20 
REMARK    3  A    between atoms: C_20  and  C_21 
REMARK    4  A    between atoms: C_24  and  C_25 
ROOT
HETATM    1  C   UNL     1      39.802 -12.350   3.982  1.00  0.00     0.069 C 
HETATM    2  C   UNL     1      40.983 -11.878   4.793  1.00  0.00     0.017 C 
HETATM    3  N   UNL     1      40.661 -11.372   6.046  1.00  0.00    -0.348 N 
HETATM    4  C   UNL     1      41.587 -10.761   6.844  1.00  0.00     0.119 A 
HETATM    5  C   UNL     1      42.888 -10.764   6.520  1.00  0.00     0.124 A 
HETATM    6  C   UNL     1      43.606 -10.096   7.615  1.00  0.00     0.280 A 
HETATM    7  O   UNL     1      44.811  -9.926   7.665  1.00  0.00    -0.265 OA
HETATM    8  N   UNL     1      42.611  -9.719   8.532  1.00  0.00    -0.236 N 
HETATM    9  N   UNL     1      41.347 -10.108   8.039  1.00  0.00    -0.179 NA
HETATM   10  C   UNL     1      43.346 -11.408   5.289  1.00  0.00     0.199 C 
HETATM   11  O   UNL     1      44.535 -11.545   5.028  1.00  0.00    -0.287 OA
HETATM   12  C   UNL     1      42.267 -11.909   4.352  1.00  0.00     0.020 C 
HETATM   13  H   UNL     1      39.687 -11.158   6.234  1.00  0.00     0.167 HD
HETATM   14  H   UNL     1      40.855 -10.727   8.685  1.00  0.00     0.155 HD
ENDROOT
BRANCH  12  15
HETATM   15  C   UNL     1      42.755 -12.382   3.004  1.00  0.00     0.083 C 
BRANCH  15  16
HETATM   16  C   UNL     1      42.956 -13.883   2.968  1.00  0.00    -0.054 A 
HETATM   17  C   UNL     1      43.008 -14.620   4.157  1.00  0.00     0.008 A 
HETATM   18  C   UNL     1      43.270 -15.992   4.136  1.00  0.00     0.008 A 
HETATM   19  C   UNL     1      43.485 -16.662   2.924  1.00  0.00    -0.055 A 
HETATM   20  C   UNL     1      43.413 -15.927   1.733  1.00  0.00     0.008 A 
HETATM   21  C   UNL     1      43.153 -14.553   1.754  1.00  0.00     0.008 A 
BRANCH  19  22
HETATM   22  C   UNL     1      43.803 -18.146   2.930  1.00  0.00     0.010 C 
HETATM   23  C   UNL     1      43.990 -18.682   4.351  1.00  0.00     0.015 C 
HETATM   24  C   UNL     1      42.734 -18.946   2.180  1.00  0.00     0.015 C 
ENDBRANCH  19  22
ENDBRANCH  15  16
ENDBRANCH  12  15
BRANCH   8  25
HETATM   25  C   UNL     1      42.721  -8.977   9.728  1.00  0.00     0.055 A 
HETATM   26  C   UNL     1      43.203  -9.563  10.906  1.00  0.00     0.034 A 
HETATM   27  C   UNL     1      43.307  -8.822  12.088  1.00  0.00     0.044 A 
HETATM   28  C   UNL     1      42.933  -7.486  12.096  1.00  0.00     0.116 A 
HETATM   29  F   UNL     1      43.034  -6.775  13.226  1.00  0.00    -0.206 F 
HETATM   30  C   UNL     1      42.457  -6.877  10.943  1.00  0.00     0.044 A 
HETATM   31  C   UNL     1      42.352  -7.620   9.763  1.00  0.00     0.034 A 
ENDBRANCH   8  25
TORSDOF 4
ENDMDL
MODEL 4
REMARK VINA RESULT:      -8.9      3.179      3.695
REMARK  4 active torsions:
REMARK  status: ('A' for Active; 'I' for Inactive)
REMARK    1  A    between atoms: N_8  and  C_9 
REMARK    2  A    between atoms: C_19  and  C_20 
REMARK    3  A    between atoms: C_20  and  C_21 
REMARK    4  A    between atoms: C_24  and  C_25 
ROOT
HETATM    1  C   UNL     1      42.384 -12.857   5.033  1.00  0.00     0.069 C 
HETATM    2  C   UNL     1      41.916 -12.665   3.613  1.00  0.00     0.017 C 
HETATM    3  N   UNL     1      42.347 -11.488   3.013  1.00  0.00    -0.348 N 
HETATM    4  C   UNL     1      41.890 -11.084   1.791  1.00  0.00     0.119 A 
HETATM    5  C   UNL     1      41.122 -11.887   1.041  1.00  0.00     0.124 A 
HETATM    6  C   UNL     1      40.875 -11.183  -0.226  1.00  0.00     0.280 A 
HETATM    7  O   UNL     1      40.219 -11.620  -1.156  1.00  0.00    -0.265 OA
HETATM    8  N   UNL     1      41.537  -9.952  -0.100  1.00  0.00    -0.236 N 
HETATM    9  N   UNL     1      42.149  -9.876   1.169  1.00  0.00    -0.179 NA
HETATM   10  C   UNL     1      40.738 -13.212   1.524  1.00  0.00     0.199 C 
HETATM   11  O   UNL     1      40.151 -14.020   0.815  1.00  0.00    -0.287 OA
HETATM   12  C   UNL     1      41.115 -13.541   2.953  1.00  0.00     0.020 C 
HETATM   13  H   UNL     1      42.742 -10.770   3.612  1.00  0.00     0.167 HD
HETATM   14  H   UNL     1      43.156  -9.723   1.104  1.00  0.00     0.155 HD
ENDROOT
BRANCH  12  15
HETATM   15  C   UNL     1      40.534 -14.826   3.492  1.00  0.00     0.083 C 
BRANCH  15  16
HETATM   16  C   UNL     1      41.534 -15.963   3.454  1.00  0.00    -0.054 A 
HETATM   17  C   UNL     1      41.777 -16.653   2.260  1.00  0.00     0.008 A 
HETATM   18  C   UNL     1      42.640 -17.751   2.233  1.00  0.00     0.008 A 
HETATM   19  C   UNL     1      43.283 -18.186   3.400  1.00  0.00    -0.055 A 
HETATM   20  C   UNL     1      43.054 -17.482   4.590  1.00  0.00     0.008 A 
HETATM   21  C   UNL     1      42.189 -16.384   4.617  1.00  0.00     0.008 A 
BRANCH  19  22
HETATM   22  C   UNL     1      44.187 -19.404   3.352  1.00  0.00     0.010 C 
HETATM   23  C   UNL     1      44.218 -20.142   4.692  1.00  0.00     0.015 C 
HETATM   24  C   UNL     1      43.785 -20.350   2.216  1.00  0.00     0.015 C 
ENDBRANCH  19  22
ENDBRANCH  15  16
ENDBRANCH  12  15
BRANCH   8  25
HETATM   25  C   UNL     1      41.569  -8.850  -0.982  1.00  0.00     0.055 A 
HETATM   26  C   UNL     1      40.393  -8.187  -1.361  1.00  0.00     0.034 A 
HETATM   27  C   UNL     1      40.433  -7.098  -2.238  1.00  0.00     0.044 A 
HETATM   28  C   UNL     1      41.652  -6.662  -2.738  1.00  0.00     0.116 A 
HETATM   29  F   UNL     1      41.692  -5.618  -3.575  1.00  0.00    -0.206 F 
HETATM   30  C   UNL     1      42.832  -7.295  -2.375  1.00  0.00     0.044 A 
HETATM   31  C   UNL     1      42.792  -8.385  -1.500  1.00  0.00     0.034 A 
ENDBRANCH   8  25
TORSDOF 4
ENDMDL
MODEL 5
REMARK VINA RESULT:      -8.9      4.596      6.191
REMARK  4 active torsions:
REMARK  status: ('A' for Active; 'I' for Inactive)
REMARK    1  A    between atoms: N_8  and  C_9 
REMARK    2  A    between atoms: C_19  and  C_20 
REMARK    3  A    between atoms: C_20  and  C_21 
REMARK    4  A    between atoms: C_24  and  C_25 
ROOT
HETATM    1  C   UNL     1      39.938 -15.368   3.455  1.00  0.00     0.069 C 
HETATM    2  C   UNL     1      40.598 -14.225   4.185  1.00  0.00     0.017 C 
HETATM    3  N   UNL     1      39.767 -13.539   5.062  1.00  0.00    -0.348 N 
HETATM    4  C   UNL     1      40.157 -12.387   5.683  1.00  0.00     0.119 A 
HETATM    5  C   UNL     1      41.421 -11.949   5.596  1.00  0.00     0.124 A 
HETATM    6  C   UNL     1      41.517 -10.742   6.431  1.00  0.00     0.280 A 
HETATM    7  O   UNL     1      42.527 -10.081   6.597  1.00  0.00    -0.265 OA
HETATM    8  N   UNL     1      40.226 -10.551   6.951  1.00  0.00    -0.236 N 
HETATM    9  N   UNL     1      39.370 -11.560   6.464  1.00  0.00    -0.179 NA
HETATM   10  C   UNL     1      42.412 -12.688   4.816  1.00  0.00     0.199 C 
HETATM   11  O   UNL     1      43.601 -12.392   4.821  1.00  0.00    -0.287 OA
HETATM   12  C   UNL     1      41.890 -13.853   4.000  1.00  0.00     0.020 C 
HETATM   13  H   UNL     1      38.768 -13.704   4.993  1.00  0.00     0.167 HD
HETATM   14  H   UNL     1      38.936 -12.096   7.217  1.00  0.00     0.155 HD
ENDROOT
BRANCH  12  15
HETATM   15  C   UNL     1      42.889 -14.470   3.050  1.00  0.00     0.083 C 
BRANCH  15  16
HETATM   16  C   UNL     1      43.188 -15.913   3.398  1.00  0.00    -0.054 A 
HETATM   17  C   UNL     1      43.599 -16.260   4.691  1.00  0.00     0.008 A 
HETATM   18  C   UNL     1      43.951 -17.576   5.000  1.00  0.00     0.008 A 
HETATM   19  C   UNL     1      43.900 -18.580   4.023  1.00  0.00    -0.055 A 
HETATM   20  C   UNL     1      43.470 -18.235   2.734  1.00  0.00     0.008 A 
HETATM   21  C   UNL     1      43.119 -16.917   2.425  1.00  0.00     0.008 A 
BRANCH  19  22
HETATM   22  C   UNL     1      44.323 -19.994   4.374  1.00  0.00     0.010 C 
HETATM   23  C   UNL     1      43.815 -20.413   5.755  1.00  0.00     0.015 C 
HETATM   24  C   UNL     1      43.872 -20.990   3.301  1.00  0.00     0.015 C 
ENDBRANCH  19  22
ENDBRANCH  15  16
ENDBRANCH  12  15
BRANCH   8  25
HETATM   25  C   UNL     1      39.723  -9.502   7.751  1.00  0.00     0.055 A 
HETATM   26  C   UNL     1      39.477  -8.230   7.213  1.00  0.00     0.034 A 
HETATM   27  C   UNL     1      38.981  -7.195   8.012  1.00  0.00     0.044 A 
HETATM   28  C   UNL     1      38.723  -7.429   9.355  1.00  0.00     0.116 A 
HETATM   29  F   UNL     1      38.245  -6.440  10.122  1.00  0.00    -0.206 F 
HETATM   30  C   UNL     1      38.951  -8.678   9.914  1.00  0.00     0.044 A 
HETATM   31  C   UNL     1      39.449  -9.712   9.115  1.00  0.00     0.034 A 
ENDBRANCH   8  25
TORSDOF 4
ENDMDL
MODEL 6
REMARK VINA RESULT:      -8.9      6.811      9.972
REMARK  4 active torsions:
REMARK  status: ('A' for Active; 'I' for Inactive)
REMARK    1  A    between atoms: N_8  and  C_9 
REMARK    2  A    between atoms: C_19  and  C_20 
REMARK    3  A    between atoms: C_20  and  C_21 
REMARK    4  A    between atoms: C_24  and  C_25 
ROOT
HETATM    1  C   UNL     1      46.324  -9.290   8.294  1.00  0.00     0.069 C 
HETATM    2  C   UNL     1      45.058  -9.955   7.815  1.00  0.00     0.017 C 
HETATM    3  N   UNL     1      45.242 -11.209   7.245  1.00  0.00    -0.348 N 
HETATM    4  C   UNL     1      44.228 -11.880   6.620  1.00  0.00     0.119 A 
HETATM    5  C   UNL     1      42.968 -11.427   6.669  1.00  0.00     0.124 A 
HETATM    6  C   UNL     1      42.130 -12.412   5.969  1.00  0.00     0.280 A 
HETATM    7  O   UNL     1      40.922 -12.333   5.826  1.00  0.00    -0.265 OA
HETATM    8  N   UNL     1      43.019 -13.405   5.528  1.00  0.00    -0.236 N 
HETATM    9  N   UNL     1      44.333 -13.061   5.909  1.00  0.00    -0.179 NA
HETATM   10  C   UNL     1      42.649 -10.189   7.378  1.00  0.00     0.199 C 
HETATM   11  O   UNL     1      41.495  -9.816   7.554  1.00  0.00    -0.287 OA
HETATM   12  C   UNL     1      43.827  -9.389   7.895  1.00  0.00     0.020 C 
HETATM   13  H   UNL     1      46.188 -11.483   7.000  1.00  0.00     0.167 HD
HETATM   14  H   UNL     1      44.769 -13.782   6.486  1.00  0.00     0.155 HD
ENDROOT
BRANCH  12  15
HETATM   15  C   UNL     1      43.486  -8.023   8.441  1.00  0.00     0.083 C 
BRANCH  15  16
HETATM   16  C   UNL     1      43.296  -8.042   9.943  1.00  0.00    -0.054 A 
HETATM   17  C   UNL     1      43.627  -9.182  10.685  1.00  0.00     0.008 A 
HETATM   18  C   UNL     1      43.383  -9.236  12.059  1.00  0.00     0.008 A 
HETATM   19  C   UNL     1      42.802  -8.149  12.727  1.00  0.00    -0.055 A 
HETATM   20  C   UNL     1      42.489  -7.001  11.986  1.00  0.00     0.008 A 
HETATM   21  C   UNL     1      42.733  -6.948  10.610  1.00  0.00     0.008 A 
BRANCH  19  22
HETATM   22  C   UNL     1      42.513  -8.245  14.214  1.00  0.00     0.010 C 
HETATM   23  C   UNL     1      42.745  -6.911  14.925  1.00  0.00     0.015 C 
HETATM   24  C   UNL     1      41.095  -8.763  14.471  1.00  0.00     0.015 C 
ENDBRANCH  19  22
ENDBRANCH  15  16
ENDBRANCH  12  15
BRANCH   8  25
HETATM   25  C   UNL     1      42.775 -14.548   4.735  1.00  0.00     0.055 A 
HETATM   26  C   UNL     1      42.990 -15.840   5.235  1.00  0.00     0.034 A 
HETATM   27  C   UNL     1      42.747 -16.967   4.443  1.00  0.00     0.044 A 
HETATM   28  C   UNL     1      42.283 -16.807   3.145  1.00  0.00     0.116 A 
HETATM   29  F   UNL     1      42.048 -17.885   2.386  1.00  0.00    -0.206 F 
HETATM   30  C   UNL     1      42.056 -15.541   2.626  1.00  0.00     0.044 A 
HETATM   31  C   UNL     1      42.300 -14.415   3.417  1.00  0.00     0.034 A 
ENDBRANCH   8  25
TORSDOF 4
ENDMDL
MODEL 7
REMARK VINA RESULT:      -8.7      2.244      2.724
REMARK  4 active torsions:
REMARK  status: ('A' for Active; 'I' for Inactive)
REMARK    1  A    between atoms: N_8  and  C_9 
REMARK    2  A    between atoms: C_19  and  C_20 
REMARK    3  A    between atoms: C_20  and  C_21 
REMARK    4  A    between atoms: C_24  and  C_25 
ROOT
HETATM    1  C   UNL     1      39.792 -15.436   2.677  1.00  0.00     0.069 C 
HETATM    2  C   UNL     1      40.304 -14.144   2.092  1.00  0.00     0.017 C 
HETATM    3  N   UNL     1      39.579 -13.671   1.005  1.00  0.00    -0.348 N 
HETATM    4  C   UNL     1      39.996 -12.603   0.262  1.00  0.00     0.119 A 
HETATM    5  C   UNL     1      41.044 -11.861   0.645  1.00  0.00     0.124 A 
HETATM    6  C   UNL     1      41.173 -10.764  -0.325  1.00  0.00     0.280 A 
HETATM    7  O   UNL     1      42.016  -9.885  -0.284  1.00  0.00    -0.265 OA
HETATM    8  N   UNL     1      40.145 -10.975  -1.258  1.00  0.00    -0.236 N 
HETATM    9  N   UNL     1      39.426 -12.138  -0.910  1.00  0.00    -0.179 NA
HETATM   10  C   UNL     1      41.782 -12.191   1.864  1.00  0.00     0.199 C 
HETATM   11  O   UNL     1      42.658 -11.462   2.314  1.00  0.00    -0.287 OA
HETATM   12  C   UNL     1      41.398 -13.485   2.551  1.00  0.00     0.020 C 
HETATM   13  H   UNL     1      38.924 -14.306   0.561  1.00  0.00     0.167 HD
HETATM   14  H   UNL     1      38.433 -11.950  -0.768  1.00  0.00     0.155 HD
ENDROOT
BRANCH  12  15
HETATM   15  C   UNL     1      42.304 -13.904   3.684  1.00  0.00     0.083 C 
BRANCH  15  16
HETATM   16  C   UNL     1      42.813 -15.319   3.512  1.00  0.00    -0.054 A 
HETATM   17  C   UNL     1      43.142 -15.804   2.240  1.00  0.00     0.008 A 
HETATM   18  C   UNL     1      43.538 -17.132   2.062  1.00  0.00     0.008 A 
HETATM   19  C   UNL     1      43.617 -18.009   3.153  1.00  0.00    -0.055 A 
HETATM   20  C   UNL     1      43.307 -17.516   4.428  1.00  0.00     0.008 A 
HETATM   21  C   UNL     1      42.909 -16.188   4.605  1.00  0.00     0.008 A 
BRANCH  19  22
HETATM   22  C   UNL     1      44.015 -19.456   2.928  1.00  0.00     0.010 C 
HETATM   23  C   UNL     1      44.089 -20.235   4.243  1.00  0.00     0.015 C 
HETATM   24  C   UNL     1      43.072 -20.143   1.937  1.00  0.00     0.015 C 
ENDBRANCH  19  22
ENDBRANCH  15  16
ENDBRANCH  12  15
BRANCH   8  25
HETATM   25  C   UNL     1      39.847 -10.273  -2.446  1.00  0.00     0.055 A 
HETATM   26  C   UNL     1      40.866  -9.802  -3.288  1.00  0.00     0.034 A 
HETATM   27  C   UNL     1      40.563  -9.104  -4.462  1.00  0.00     0.044 A 
HETATM   28  C   UNL     1      39.238  -8.877  -4.803  1.00  0.00     0.116 A 
HETATM   29  F   UNL     1      38.946  -8.212  -5.928  1.00  0.00    -0.206 F 
HETATM   30  C   UNL     1      38.209  -9.337  -3.994  1.00  0.00     0.044 A 
HETATM   31  C   UNL     1      38.512 -10.032  -2.819  1.00  0.00     0.034 A 
ENDBRANCH   8  25
TORSDOF 4
ENDMDL
MODEL 8
REMARK VINA RESULT:      -8.7      7.081      9.748
REMARK  4 active torsions:
REMARK  status: ('A' for Active; 'I' for Inactive)
REMARK    1  A    between atoms: N_8  and  C_9 
REMARK    2  A    between atoms: C_19  and  C_20 
REMARK    3  A    between atoms: C_20  and  C_21 
REMARK    4  A    between atoms: C_24  and  C_25 
ROOT
HETATM    1  C   UNL     1      45.883 -11.569   6.003  1.00  0.00     0.069 C 
HETATM    2  C   UNL     1      44.697 -10.923   6.675  1.00  0.00     0.017 C 
HETATM    3  N   UNL     1      44.898 -10.585   8.007  1.00  0.00    -0.348 N 
HETATM    4  C   UNL     1      43.883 -10.138   8.806  1.00  0.00     0.119 A 
HETATM    5  C   UNL     1      42.677  -9.854   8.295  1.00  0.00     0.124 A 
HETATM    6  C   UNL     1      41.855  -9.333   9.397  1.00  0.00     0.280 A 
HETATM    7  O   UNL     1      40.699  -8.962   9.298  1.00  0.00    -0.265 OA
HETATM    8  N   UNL     1      42.687  -9.376  10.528  1.00  0.00    -0.236 N 
HETATM    9  N   UNL     1      43.944  -9.904  10.167  1.00  0.00    -0.179 NA
HETATM   10  C   UNL     1      42.412 -10.034   6.868  1.00  0.00     0.199 C 
HETATM   11  O   UNL     1      41.368  -9.662   6.346  1.00  0.00    -0.287 OA
HETATM   12  C   UNL     1      43.507 -10.702   6.062  1.00  0.00     0.020 C 
HETATM   13  H   UNL     1      45.709 -10.975   8.477  1.00  0.00     0.167 HD
HETATM   14  H   UNL     1      44.708  -9.261  10.380  1.00  0.00     0.155 HD
ENDROOT
BRANCH  12  15
HETATM   15  C   UNL     1      43.132 -11.060   4.644  1.00  0.00     0.083 C 
BRANCH  15  16
HETATM   16  C   UNL     1      43.009 -12.556   4.448  1.00  0.00    -0.054 A 
HETATM   17  C   UNL     1      42.790 -13.399   5.546  1.00  0.00     0.008 A 
HETATM   18  C   UNL     1      42.752 -14.786   5.385  1.00  0.00     0.008 A 
HETATM   19  C   UNL     1      42.931 -15.366   4.122  1.00  0.00    -0.055 A 
HETATM   20  C   UNL     1      43.131 -14.521   3.022  1.00  0.00     0.008 A 
HETATM   21  C   UNL     1      43.170 -13.133   3.183  1.00  0.00     0.008 A 
BRANCH  19  22
HETATM   22  C   UNL     1      42.922 -16.877   3.979  1.00  0.00     0.010 C 
HETATM   23  C   UNL     1      43.222 -17.314   2.544  1.00  0.00     0.015 C 
HETATM   24  C   UNL     1      43.894 -17.533   4.965  1.00  0.00     0.015 C 
ENDBRANCH  19  22
ENDBRANCH  15  16
ENDBRANCH  12  15
BRANCH   8  25
HETATM   25  C   UNL     1      42.393  -9.070  11.875  1.00  0.00     0.055 A 
HETATM   26  C   UNL     1      43.161  -8.142  12.594  1.00  0.00     0.034 A 
HETATM   27  C   UNL     1      42.866  -7.846  13.930  1.00  0.00     0.044 A 
HETATM   28  C   UNL     1      41.796  -8.474  14.552  1.00  0.00     0.116 A 
HETATM   29  F   UNL     1      41.511  -8.190  15.829  1.00  0.00    -0.206 F 
HETATM   30  C   UNL     1      41.016  -9.391  13.863  1.00  0.00     0.044 A 
HETATM   31  C   UNL     1      41.313  -9.688  12.530  1.00  0.00     0.034 A 
ENDBRANCH   8  25
TORSDOF 4
ENDMDL
MODEL 9
REMARK VINA RESULT:      -8.6      7.229     10.576
REMARK  4 active torsions:
REMARK  status: ('A' for Active; 'I' for Inactive)
REMARK    1  A    between atoms: N_8  and  C_9 
REMARK    2  A    between atoms: C_19  and  C_20 
REMARK    3  A    between atoms: C_20  and  C_21 
REMARK    4  A    between atoms: C_24  and  C_25 
ROOT
HETATM    1  C   UNL     1      40.328  -7.994   8.151  1.00  0.00     0.069 C 
HETATM    2  C   UNL     1      41.521  -8.849   7.805  1.00  0.00     0.017 C 
HETATM    3  N   UNL     1      41.214 -10.036   7.150  1.00  0.00    -0.348 N 
HETATM    4  C   UNL     1      42.154 -10.995   6.904  1.00  0.00     0.119 A 
HETATM    5  C   UNL     1      43.454 -10.767   7.143  1.00  0.00     0.124 A 
HETATM    6  C   UNL     1      44.189 -11.961   6.702  1.00  0.00     0.280 A 
HETATM    7  O   UNL     1      45.398 -12.104   6.759  1.00  0.00    -0.265 OA
HETATM    8  N   UNL     1      43.205 -12.847   6.234  1.00  0.00    -0.236 N 
HETATM    9  N   UNL     1      41.932 -12.258   6.384  1.00  0.00    -0.179 NA
HETATM   10  C   UNL     1      43.894  -9.486   7.693  1.00  0.00     0.199 C 
HETATM   11  O   UNL     1      45.079  -9.194   7.800  1.00  0.00    -0.287 OA
HETATM   12  C   UNL     1      42.802  -8.527   8.118  1.00  0.00     0.020 C 
HETATM   13  H   UNL     1      40.245 -10.337   7.146  1.00  0.00     0.167 HD
HETATM   14  H   UNL     1      41.431 -12.190   5.497  1.00  0.00     0.155 HD
ENDROOT
BRANCH  12  15
HETATM   15  C   UNL     1      43.275  -7.304   8.866  1.00  0.00     0.083 C 
BRANCH  15  16
HETATM   16  C   UNL     1      43.098  -7.448  10.363  1.00  0.00    -0.054 A 
HETATM   17  C   UNL     1      43.568  -8.589  11.025  1.00  0.00     0.008 A 
HETATM   18  C   UNL     1      43.340  -8.766  12.392  1.00  0.00     0.008 A 
HETATM   19  C   UNL     1      42.638  -7.805  13.132  1.00  0.00    -0.055 A 
HETATM   20  C   UNL     1      42.186  -6.654  12.472  1.00  0.00     0.008 A 
HETATM   21  C   UNL     1      42.412  -6.478  11.103  1.00  0.00     0.008 A 
BRANCH  19  22
HETATM   22  C   UNL     1      42.372  -8.037  14.608  1.00  0.00     0.010 C 
HETATM   23  C   UNL     1      42.534  -6.753  15.423  1.00  0.00     0.015 C 
HETATM   24  C   UNL     1      40.990  -8.657  14.832  1.00  0.00     0.015 C 
ENDBRANCH  19  22
ENDBRANCH  15  16
ENDBRANCH  12  15
BRANCH   8  25
HETATM   25  C   UNL     1      43.334 -14.174   5.767  1.00  0.00     0.055 A 
HETATM   26  C   UNL     1      43.860 -15.185   6.585  1.00  0.00     0.034 A 
HETATM   27  C   UNL     1      43.987 -16.496   6.114  1.00  0.00     0.044 A 
HETATM   28  C   UNL     1      43.585 -16.804   4.823  1.00  0.00     0.116 A 
HETATM   29  F   UNL     1      43.704 -18.060   4.372  1.00  0.00    -0.206 F 
HETATM   30  C   UNL     1      43.056 -15.826   3.993  1.00  0.00     0.044 A 
HETATM   31  C   UNL     1      42.931 -14.515   4.463  1.00  0.00     0.034 A 
ENDBRANCH   8  25
TORSDOF 4
ENDMDL
MODEL 10
REMARK VINA RESULT:      -8.5     16.329     19.481
REMARK  4 active torsions:
REMARK  status: ('A' for Active; 'I' for Inactive)
REMARK    1  A    between atoms: N_8  and  C_9 
REMARK    2  A    between atoms: C_19  and  C_20 
REMARK    3  A    between atoms: C_20  and  C_21 
REMARK    4  A    between atoms: C_24  and  C_25 
ROOT
HETATM    1  C   UNL     1      48.583 -28.846  -1.965  1.00  0.00     0.069 C 
HETATM    2  C   UNL     1      48.316 -28.931  -0.483  1.00  0.00     0.017 C 
HETATM    3  N   UNL     1      49.310 -29.567   0.250  1.00  0.00    -0.348 N 
HETATM    4  C   UNL     1      49.158 -29.867   1.574  1.00  0.00     0.119 A 
HETATM    5  C   UNL     1      48.103 -29.419   2.268  1.00  0.00     0.124 A 
HETATM    6  C   UNL     1      48.286 -29.854   3.660  1.00  0.00     0.280 A 
HETATM    7  O   UNL     1      47.521 -29.616   4.578  1.00  0.00    -0.265 OA
HETATM    8  N   UNL     1      49.490 -30.578   3.664  1.00  0.00    -0.236 N 
HETATM    9  N   UNL     1      50.022 -30.611   2.358  1.00  0.00    -0.179 NA
HETATM   10  C   UNL     1      47.075 -28.609   1.616  1.00  0.00     0.199 C 
HETATM   11  O   UNL     1      46.169 -28.074   2.244  1.00  0.00    -0.287 OA
HETATM   12  C   UNL     1      47.192 -28.458   0.113  1.00  0.00     0.020 C 
HETATM   13  H   UNL     1      50.007 -30.100  -0.261  1.00  0.00     0.167 HD
HETATM   14  H   UNL     1      50.963 -30.218   2.315  1.00  0.00     0.155 HD
ENDROOT
BRANCH  12  15
HETATM   15  C   UNL     1      46.015 -27.793  -0.560  1.00  0.00     0.083 C 
BRANCH  15  16
HETATM   16  C   UNL     1      45.407 -28.668  -1.636  1.00  0.00    -0.054 A 
HETATM   17  C   UNL     1      45.016 -29.981  -1.345  1.00  0.00     0.008 A 
HETATM   18  C   UNL     1      44.526 -30.819  -2.349  1.00  0.00     0.008 A 
HETATM   19  C   UNL     1      44.414 -30.365  -3.671  1.00  0.00    -0.055 A 
HETATM   20  C   UNL     1      44.788 -29.045  -3.957  1.00  0.00     0.008 A 
HETATM   21  C   UNL     1      45.280 -28.206  -2.952  1.00  0.00     0.008 A 
BRANCH  19  22
HETATM   22  C   UNL     1      43.913 -31.307  -4.751  1.00  0.00     0.010 C 
HETATM   23  C   UNL     1      44.362 -30.863  -6.144  1.00  0.00     0.015 C 
HETATM   24  C   UNL     1      44.344 -32.750  -4.472  1.00  0.00     0.015 C 
ENDBRANCH  19  22
ENDBRANCH  15  16
ENDBRANCH  12  15
BRANCH   8  25
HETATM   25  C   UNL     1      50.110 -31.290   4.713  1.00  0.00     0.055 A 
HETATM   26  C   UNL     1      49.452 -32.340   5.369  1.00  0.00     0.034 A 
HETATM   27  C   UNL     1      50.072 -33.039   6.410  1.00  0.00     0.044 A 
HETATM   28  C   UNL     1      51.359 -32.694   6.798  1.00  0.00     0.116 A 
HETATM   29  F   UNL     1      51.955 -33.363   7.792  1.00  0.00    -0.206 F 
HETATM   30  C   UNL     1      52.037 -31.663   6.163  1.00  0.00     0.044 A 
HETATM   31  C   UNL     1      51.416 -30.963   5.124  1.00  0.00     0.034 A 
ENDBRANCH   8  25
TORSDOF 4
ENDMDL
