MODEL 1
REMARK VINA RESULT:      -8.2      0.000      0.000
REMARK  4 active torsions:
REMARK  status: ('A' for Active; 'I' for Inactive)
REMARK    1  A    between atoms: C_2  and  N_3 
REMARK    2  A    between atoms: C_2  and  C_14 
REMARK    3  A    between atoms: N_3  and  C_6 
REMARK    4  A    between atoms: C_6  and  C_7 
ROOT
HETATM    1  C   UNL     1      42.966 -15.229   7.413  1.00  0.00     0.048 C 
HETATM    2  C   UNL     1      43.581 -14.867   6.069  1.00  0.00     0.251 C 
ENDROOT
BRANCH   2   3
HETATM    3  N   UNL     1      42.794 -13.737   5.447  1.00  0.00    -0.060 N 
HETATM    4  H   UNL     1      42.290 -14.143   4.640  1.00  0.00     0.278 HD
HETATM    5  H   UNL     1      42.017 -13.479   6.072  1.00  0.00     0.278 HD
BRANCH   3   6
HETATM    6  C   UNL     1      43.542 -12.537   5.010  1.00  0.00     0.271 C 
BRANCH   6   7
HETATM    7  C   UNL     1      44.071 -11.774   6.192  1.00  0.00    -0.033 A 
HETATM    8  C   UNL     1      43.187 -11.193   7.119  1.00  0.00     0.010 A 
HETATM    9  C   UNL     1      43.679 -10.457   8.200  1.00  0.00     0.024 A 
HETATM   10  C   UNL     1      45.053 -10.293   8.361  1.00  0.00     0.034 A 
HETATM   11 CL   UNL     1      45.655  -9.387   9.691  1.00  0.00    -0.084 Cl
HETATM   12  C   UNL     1      45.940 -10.858   7.449  1.00  0.00     0.024 A 
HETATM   13  C   UNL     1      45.452 -11.593   6.365  1.00  0.00     0.010 A 
ENDBRANCH   6   7
ENDBRANCH   3   6
ENDBRANCH   2   3
BRANCH   2  14
HETATM   14  C   UNL     1      43.560 -16.064   5.105  1.00  0.00     0.138 A 
HETATM   15  N   UNL     1      43.777 -17.245   5.598  1.00  0.00    -0.232 NA
HETATM   16  C   UNL     1      43.764 -18.337   4.706  1.00  0.00     0.074 A 
HETATM   17  C   UNL     1      43.518 -18.187   3.337  1.00  0.00     0.061 A 
HETATM   18  C   UNL     1      44.011 -19.619   5.202  1.00  0.00     0.032 A 
HETATM   19  C   UNL     1      43.263 -16.826   2.842  1.00  0.00     0.259 A 
HETATM   20  C   UNL     1      43.517 -19.282   2.468  1.00  0.00     0.019 A 
HETATM   21  O   UNL     1      43.029 -16.576   1.668  1.00  0.00    -0.267 OA
HETATM   22  N   UNL     1      43.303 -15.829   3.786  1.00  0.00    -0.309 N 
HETATM   23  H   UNL     1      43.123 -14.907   3.407  1.00  0.00     0.170 HD
HETATM   24  C   UNL     1      43.767 -20.554   2.979  1.00  0.00     0.001 A 
HETATM   25  C   UNL     1      44.013 -20.723   4.342  1.00  0.00     0.002 A 
ENDBRANCH   2  14
TORSDOF 4
ENDMDL
MODEL 2
REMARK VINA RESULT:      -8.2      4.903      6.686
REMARK  4 active torsions:
REMARK  status: ('A' for Active; 'I' for Inactive)
REMARK    1  A    between atoms: C_2  and  N_3 
REMARK    2  A    between atoms: C_2  and  C_14 
REMARK    3  A    between atoms: N_3  and  C_6 
REMARK    4  A    between atoms: C_6  and  C_7 
ROOT
HETATM    1  C   UNL     1      42.774 -13.741   2.766  1.00  0.00     0.048 C 
HETATM    2  C   UNL     1      43.225 -14.931   1.932  1.00  0.00     0.251 C 
ENDROOT
BRANCH   2   3
HETATM    3  N   UNL     1      42.166 -15.249   0.902  1.00  0.00    -0.060 N 
HETATM    4  H   UNL     1      42.360 -14.640   0.088  1.00  0.00     0.278 HD
HETATM    5  H   UNL     1      42.341 -16.185   0.512  1.00  0.00     0.278 HD
BRANCH   3   6
HETATM    6  C   UNL     1      40.749 -15.099   1.304  1.00  0.00     0.271 C 
BRANCH   6   7
HETATM    7  C   UNL     1      39.996 -14.256   0.314  1.00  0.00    -0.033 A 
HETATM    8  C   UNL     1      39.653 -12.929   0.623  1.00  0.00     0.010 A 
HETATM    9  C   UNL     1      38.925 -12.156  -0.286  1.00  0.00     0.024 A 
HETATM   10  C   UNL     1      38.533 -12.703  -1.505  1.00  0.00     0.034 A 
HETATM   11 CL   UNL     1      37.638 -11.751  -2.621  1.00  0.00    -0.084 Cl
HETATM   12  C   UNL     1      38.862 -14.018  -1.824  1.00  0.00     0.024 A 
HETATM   13  C   UNL     1      39.588 -14.795  -0.917  1.00  0.00     0.010 A 
ENDBRANCH   6   7
ENDBRANCH   3   6
ENDBRANCH   2   3
BRANCH   2  14
HETATM   14  C   UNL     1      43.445 -16.175   2.807  1.00  0.00     0.138 A 
HETATM   15  N   UNL     1      43.437 -17.336   2.226  1.00  0.00    -0.232 NA
HETATM   16  C   UNL     1      43.632 -18.473   3.037  1.00  0.00     0.074 A 
HETATM   17  C   UNL     1      43.840 -18.385   4.418  1.00  0.00     0.061 A 
HETATM   18  C   UNL     1      43.611 -19.738   2.446  1.00  0.00     0.032 A 
HETATM   19  C   UNL     1      43.856 -17.040   5.014  1.00  0.00     0.259 A 
HETATM   20  C   UNL     1      44.025 -19.525   5.205  1.00  0.00     0.019 A 
HETATM   21  O   UNL     1      44.037 -16.842   6.207  1.00  0.00    -0.267 OA
HETATM   22  N   UNL     1      43.651 -15.998   4.144  1.00  0.00    -0.309 N 
HETATM   23  H   UNL     1      43.668 -15.090   4.592  1.00  0.00     0.170 HD
HETATM   24  C   UNL     1      43.999 -20.780   4.600  1.00  0.00     0.001 A 
HETATM   25  C   UNL     1      43.793 -20.887   3.224  1.00  0.00     0.002 A 
ENDBRANCH   2  14
TORSDOF 4
ENDMDL
MODEL 3
REMARK VINA RESULT:      -8.1      3.829      6.628
REMARK  4 active torsions:
REMARK  status: ('A' for Active; 'I' for Inactive)
REMARK    1  A    between atoms: C_2  and  N_3 
REMARK    2  A    between atoms: C_2  and  C_14 
REMARK    3  A    between atoms: N_3  and  C_6 
REMARK    4  A    between atoms: C_6  and  C_7 
ROOT
HETATM    1  C   UNL     1      43.229 -14.252   7.273  1.00  0.00     0.048 C 
HETATM    2  C   UNL     1      42.129 -15.079   6.624  1.00  0.00     0.251 C 
ENDROOT
BRANCH   2   3
HETATM    3  N   UNL     1      42.479 -16.545   6.728  1.00  0.00    -0.060 N 
HETATM    4  H   UNL     1      42.277 -16.824   7.704  1.00  0.00     0.278 HD
HETATM    5  H   UNL     1      41.787 -17.099   6.203  1.00  0.00     0.278 HD
BRANCH   3   6
HETATM    6  C   UNL     1      43.858 -16.950   6.373  1.00  0.00     0.271 C 
BRANCH   6   7
HETATM    7  C   UNL     1      43.860 -17.862   5.179  1.00  0.00    -0.033 A 
HETATM    8  C   UNL     1      43.714 -17.340   3.883  1.00  0.00     0.010 A 
HETATM    9  C   UNL     1      43.683 -18.193   2.775  1.00  0.00     0.024 A 
HETATM   10  C   UNL     1      43.796 -19.569   2.955  1.00  0.00     0.034 A 
HETATM   11 CL   UNL     1      43.759 -20.615   1.593  1.00  0.00    -0.084 Cl
HETATM   12  C   UNL     1      43.937 -20.101   4.235  1.00  0.00     0.024 A 
HETATM   13  C   UNL     1      43.965 -19.253   5.344  1.00  0.00     0.010 A 
ENDBRANCH   6   7
ENDBRANCH   3   6
ENDBRANCH   2   3
BRANCH   2  14
HETATM   14  C   UNL     1      41.963 -14.721   5.138  1.00  0.00     0.138 A 
HETATM   15  N   UNL     1      41.088 -15.384   4.447  1.00  0.00    -0.232 NA
HETATM   16  C   UNL     1      40.947 -15.054   3.082  1.00  0.00     0.074 A 
HETATM   17  C   UNL     1      41.701 -14.046   2.471  1.00  0.00     0.061 A 
HETATM   18  C   UNL     1      40.027 -15.760   2.307  1.00  0.00     0.032 A 
HETATM   19  C   UNL     1      42.664 -13.319   3.312  1.00  0.00     0.259 A 
HETATM   20  C   UNL     1      41.551 -13.739   1.116  1.00  0.00     0.019 A 
HETATM   21  O   UNL     1      43.371 -12.415   2.888  1.00  0.00    -0.267 OA
HETATM   22  N   UNL     1      42.732 -13.718   4.625  1.00  0.00    -0.309 N 
HETATM   23  H   UNL     1      43.406 -13.194   5.171  1.00  0.00     0.170 HD
HETATM   24  C   UNL     1      40.629 -14.455   0.355  1.00  0.00     0.001 A 
HETATM   25  C   UNL     1      39.868 -15.463   0.948  1.00  0.00     0.002 A 
ENDBRANCH   2  14
TORSDOF 4
ENDMDL
MODEL 4
REMARK VINA RESULT:      -8.0      5.577      8.224
REMARK  4 active torsions:
REMARK  status: ('A' for Active; 'I' for Inactive)
REMARK    1  A    between atoms: C_2  and  N_3 
REMARK    2  A    between atoms: C_2  and  C_14 
REMARK    3  A    between atoms: N_3  and  C_6 
REMARK    4  A    between atoms: C_6  and  C_7 
ROOT
HETATM    1  C   UNL     1      42.761 -13.814   2.176  1.00  0.00     0.048 C 
HETATM    2  C   UNL     1      41.420 -14.534   2.174  1.00  0.00     0.251 C 
ENDROOT
BRANCH   2   3
HETATM    3  N   UNL     1      41.647 -16.010   1.949  1.00  0.00    -0.060 N 
HETATM    4  H   UNL     1      41.266 -16.493   2.781  1.00  0.00     0.278 HD
HETATM    5  H   UNL     1      41.017 -16.342   1.206  1.00  0.00     0.278 HD
BRANCH   3   6
HETATM    6  C   UNL     1      43.035 -16.464   1.708  1.00  0.00     0.271 C 
BRANCH   6   7
HETATM    7  C   UNL     1      43.402 -17.588   2.636  1.00  0.00    -0.033 A 
HETATM    8  C   UNL     1      43.413 -18.916   2.177  1.00  0.00     0.010 A 
HETATM    9  C   UNL     1      43.722 -19.964   3.049  1.00  0.00     0.024 A 
HETATM   10  C   UNL     1      44.020 -19.693   4.382  1.00  0.00     0.034 A 
HETATM   11 CL   UNL     1      44.400 -20.983   5.452  1.00  0.00    -0.084 Cl
HETATM   12  C   UNL     1      44.008 -18.382   4.852  1.00  0.00     0.024 A 
HETATM   13  C   UNL     1      43.696 -17.332   3.985  1.00  0.00     0.010 A 
ENDBRANCH   6   7
ENDBRANCH   3   6
ENDBRANCH   2   3
BRANCH   2  14
HETATM   14  C   UNL     1      40.504 -14.005   1.059  1.00  0.00     0.138 A 
HETATM   15  N   UNL     1      40.251 -14.789   0.057  1.00  0.00    -0.232 NA
HETATM   16  C   UNL     1      39.416 -14.293  -0.966  1.00  0.00     0.074 A 
HETATM   17  C   UNL     1      38.856 -13.012  -0.924  1.00  0.00     0.061 A 
HETATM   18  C   UNL     1      39.138 -15.106  -2.066  1.00  0.00     0.032 A 
HETATM   19  C   UNL     1      39.167 -12.177   0.246  1.00  0.00     0.259 A 
HETATM   20  C   UNL     1      38.036 -12.537  -1.951  1.00  0.00     0.019 A 
HETATM   21  O   UNL     1      38.728 -11.045   0.393  1.00  0.00    -0.267 OA
HETATM   22  N   UNL     1      39.993 -12.746   1.184  1.00  0.00    -0.309 N 
HETATM   23  H   UNL     1      40.183 -12.140   1.974  1.00  0.00     0.170 HD
HETATM   24  C   UNL     1      37.771 -13.360  -3.044  1.00  0.00     0.001 A 
HETATM   25  C   UNL     1      38.319 -14.642  -3.102  1.00  0.00     0.002 A 
ENDBRANCH   2  14
TORSDOF 4
ENDMDL
MODEL 5
REMARK VINA RESULT:      -7.8      4.931      6.476
REMARK  4 active torsions:
REMARK  status: ('A' for Active; 'I' for Inactive)
REMARK    1  A    between atoms: C_2  and  N_3 
REMARK    2  A    between atoms: C_2  and  C_14 
REMARK    3  A    between atoms: N_3  and  C_6 
REMARK    4  A    between atoms: C_6  and  C_7 
ROOT
HETATM    1  C   UNL     1      40.158 -13.794   6.039  1.00  0.00     0.048 C 
HETATM    2  C   UNL     1      40.922 -13.770   4.723  1.00  0.00     0.251 C 
ENDROOT
BRANCH   2   3
HETATM    3  N   UNL     1      39.939 -13.775   3.575  1.00  0.00    -0.060 N 
HETATM    4  H   UNL     1      40.094 -14.661   3.064  1.00  0.00     0.278 HD
HETATM    5  H   UNL     1      38.987 -13.908   3.943  1.00  0.00     0.278 HD
BRANCH   3   6
HETATM    6  C   UNL     1      39.987 -12.641   2.625  1.00  0.00     0.271 C 
BRANCH   6   7
HETATM    7  C   UNL     1      39.735 -13.108   1.219  1.00  0.00    -0.033 A 
HETATM    8  C   UNL     1      39.072 -12.277   0.300  1.00  0.00     0.010 A 
HETATM    9  C   UNL     1      38.809 -12.724  -0.998  1.00  0.00     0.024 A 
HETATM   10  C   UNL     1      39.203 -14.003  -1.385  1.00  0.00     0.034 A 
HETATM   11 CL   UNL     1      38.879 -14.551  -2.981  1.00  0.00    -0.084 Cl
HETATM   12  C   UNL     1      39.856 -14.840  -0.484  1.00  0.00     0.024 A 
HETATM   13  C   UNL     1      40.118 -14.397   0.816  1.00  0.00     0.010 A 
ENDBRANCH   6   7
ENDBRANCH   3   6
ENDBRANCH   2   3
BRANCH   2  14
HETATM   14  C   UNL     1      41.838 -14.997   4.587  1.00  0.00     0.138 A 
HETATM   15  N   UNL     1      41.672 -15.768   3.557  1.00  0.00    -0.232 NA
HETATM   16  C   UNL     1      42.512 -16.896   3.444  1.00  0.00     0.074 A 
HETATM   17  C   UNL     1      43.505 -17.191   4.383  1.00  0.00     0.061 A 
HETATM   18  C   UNL     1      42.346 -17.756   2.357  1.00  0.00     0.032 A 
HETATM   19  C   UNL     1      43.656 -16.268   5.519  1.00  0.00     0.259 A 
HETATM   20  C   UNL     1      44.323 -18.317   4.256  1.00  0.00     0.019 A 
HETATM   21  O   UNL     1      44.493 -16.422   6.397  1.00  0.00    -0.267 OA
HETATM   22  N   UNL     1      42.787 -15.205   5.545  1.00  0.00    -0.309 N 
HETATM   23  H   UNL     1      42.922 -14.593   6.341  1.00  0.00     0.170 HD
HETATM   24  C   UNL     1      44.143 -19.167   3.167  1.00  0.00     0.001 A 
HETATM   25  C   UNL     1      43.158 -18.888   2.218  1.00  0.00     0.002 A 
ENDBRANCH   2  14
TORSDOF 4
ENDMDL
MODEL 6
REMARK VINA RESULT:      -7.8      1.508      2.432
REMARK  4 active torsions:
REMARK  status: ('A' for Active; 'I' for Inactive)
REMARK    1  A    between atoms: C_2  and  N_3 
REMARK    2  A    between atoms: C_2  and  C_14 
REMARK    3  A    between atoms: N_3  and  C_6 
REMARK    4  A    between atoms: C_6  and  C_7 
ROOT
HETATM    1  C   UNL     1      43.200 -13.521   2.743  1.00  0.00     0.048 C 
HETATM    2  C   UNL     1      42.630 -14.079   4.039  1.00  0.00     0.251 C 
ENDROOT
BRANCH   2   3
HETATM    3  N   UNL     1      43.189 -13.299   5.206  1.00  0.00    -0.060 N 
HETATM    4  H   UNL     1      42.466 -13.324   5.946  1.00  0.00     0.278 HD
HETATM    5  H   UNL     1      43.953 -13.837   5.640  1.00  0.00     0.278 HD
BRANCH   3   6
HETATM    6  C   UNL     1      43.600 -11.898   4.964  1.00  0.00     0.271 C 
BRANCH   6   7
HETATM    7  C   UNL     1      44.096 -11.257   6.230  1.00  0.00    -0.033 A 
HETATM    8  C   UNL     1      45.446 -11.371   6.604  1.00  0.00     0.010 A 
HETATM    9  C   UNL     1      45.900 -10.802   7.798  1.00  0.00     0.024 A 
HETATM   10  C   UNL     1      45.010 -10.120   8.624  1.00  0.00     0.034 A 
HETATM   11 CL   UNL     1      45.570  -9.421  10.091  1.00  0.00    -0.084 Cl
HETATM   12  C   UNL     1      43.668 -10.003   8.268  1.00  0.00     0.024 A 
HETATM   13  C   UNL     1      43.210 -10.573   7.077  1.00  0.00     0.010 A 
ENDBRANCH   6   7
ENDBRANCH   3   6
ENDBRANCH   2   3
BRANCH   2  14
HETATM   14  C   UNL     1      42.998 -15.560   4.220  1.00  0.00     0.138 A 
HETATM   15  N   UNL     1      42.953 -16.329   3.176  1.00  0.00    -0.232 NA
HETATM   16  C   UNL     1      43.285 -17.689   3.351  1.00  0.00     0.074 A 
HETATM   17  C   UNL     1      43.663 -18.217   4.590  1.00  0.00     0.061 A 
HETATM   18  C   UNL     1      43.230 -18.546   2.251  1.00  0.00     0.032 A 
HETATM   19  C   UNL     1      43.710 -17.290   5.733  1.00  0.00     0.259 A 
HETATM   20  C   UNL     1      43.981 -19.568   4.745  1.00  0.00     0.019 A 
HETATM   21  O   UNL     1      44.033 -17.638   6.860  1.00  0.00    -0.267 OA
HETATM   22  N   UNL     1      43.364 -15.989   5.462  1.00  0.00    -0.309 N 
HETATM   23  H   UNL     1      43.409 -15.383   6.273  1.00  0.00     0.170 HD
HETATM   24  C   UNL     1      43.919 -20.411   3.637  1.00  0.00     0.001 A 
HETATM   25  C   UNL     1      43.545 -19.902   2.393  1.00  0.00     0.002 A 
ENDBRANCH   2  14
TORSDOF 4
ENDMDL
MODEL 7
REMARK VINA RESULT:      -7.8      3.784      8.158
REMARK  4 active torsions:
REMARK  status: ('A' for Active; 'I' for Inactive)
REMARK    1  A    between atoms: C_2  and  N_3 
REMARK    2  A    between atoms: C_2  and  C_14 
REMARK    3  A    between atoms: N_3  and  C_6 
REMARK    4  A    between atoms: C_6  and  C_7 
ROOT
HETATM    1  C   UNL     1      40.831 -14.054   6.099  1.00  0.00     0.048 C 
HETATM    2  C   UNL     1      41.792 -13.250   5.234  1.00  0.00     0.251 C 
ENDROOT
BRANCH   2   3
HETATM    3  N   UNL     1      42.853 -14.170   4.677  1.00  0.00    -0.060 N 
HETATM    4  H   UNL     1      42.524 -14.457   3.739  1.00  0.00     0.278 HD
HETATM    5  H   UNL     1      43.693 -13.622   4.448  1.00  0.00     0.278 HD
BRANCH   3   6
HETATM    6  C   UNL     1      43.204 -15.373   5.467  1.00  0.00     0.271 C 
BRANCH   6   7
HETATM    7  C   UNL     1      43.385 -16.567   4.574  1.00  0.00    -0.033 A 
HETATM    8  C   UNL     1      42.786 -16.605   3.303  1.00  0.00     0.010 A 
HETATM    9  C   UNL     1      42.929 -17.730   2.486  1.00  0.00     0.024 A 
HETATM   10  C   UNL     1      43.667 -18.823   2.933  1.00  0.00     0.034 A 
HETATM   11 CL   UNL     1      43.841 -20.205   1.926  1.00  0.00    -0.084 Cl
HETATM   12  C   UNL     1      44.263 -18.802   4.191  1.00  0.00     0.024 A 
HETATM   13  C   UNL     1      44.120 -17.681   5.012  1.00  0.00     0.010 A 
ENDBRANCH   6   7
ENDBRANCH   3   6
ENDBRANCH   2   3
BRANCH   2  14
HETATM   14  C   UNL     1      42.483 -12.144   6.048  1.00  0.00     0.138 A 
HETATM   15  N   UNL     1      43.779 -12.147   6.099  1.00  0.00    -0.232 NA
HETATM   16  C   UNL     1      44.406 -11.133   6.854  1.00  0.00     0.074 A 
HETATM   17  C   UNL     1      43.683 -10.140   7.524  1.00  0.00     0.061 A 
HETATM   18  C   UNL     1      45.798 -11.118   6.943  1.00  0.00     0.032 A 
HETATM   19  C   UNL     1      42.217 -10.181   7.415  1.00  0.00     0.259 A 
HETATM   20  C   UNL     1      44.322  -9.148   8.273  1.00  0.00     0.019 A 
HETATM   21  O   UNL     1      41.484  -9.363   7.952  1.00  0.00    -0.267 OA
HETATM   22  N   UNL     1      41.702 -11.210   6.663  1.00  0.00    -0.309 N 
HETATM   23  H   UNL     1      40.690 -11.204   6.612  1.00  0.00     0.170 HD
HETATM   24  C   UNL     1      45.713  -9.149   8.353  1.00  0.00     0.001 A 
HETATM   25  C   UNL     1      46.451 -10.130   7.690  1.00  0.00     0.002 A 
ENDBRANCH   2  14
TORSDOF 4
ENDMDL
MODEL 8
REMARK VINA RESULT:      -7.8      5.857      8.453
REMARK  4 active torsions:
REMARK  status: ('A' for Active; 'I' for Inactive)
REMARK    1  A    between atoms: C_2  and  N_3 
REMARK    2  A    between atoms: C_2  and  C_14 
REMARK    3  A    between atoms: N_3  and  C_6 
REMARK    4  A    between atoms: C_6  and  C_7 
ROOT
HETATM    1  C   UNL     1      40.042 -14.911   2.426  1.00  0.00     0.048 C 
HETATM    2  C   UNL     1      40.606 -15.313   1.070  1.00  0.00     0.251 C 
ENDROOT
BRANCH   2   3
HETATM    3  N   UNL     1      42.114 -15.355   1.149  1.00  0.00    -0.060 N 
HETATM    4  H   UNL     1      42.398 -16.282   0.787  1.00  0.00     0.278 HD
HETATM    5  H   UNL     1      42.510 -14.722   0.441  1.00  0.00     0.278 HD
BRANCH   3   6
HETATM    6  C   UNL     1      42.740 -15.129   2.472  1.00  0.00     0.271 C 
BRANCH   6   7
HETATM    7  C   UNL     1      43.200 -16.425   3.077  1.00  0.00    -0.033 A 
HETATM    8  C   UNL     1      43.224 -17.601   2.309  1.00  0.00     0.010 A 
HETATM    9  C   UNL     1      43.622 -18.813   2.881  1.00  0.00     0.024 A 
HETATM   10  C   UNL     1      43.995 -18.857   4.223  1.00  0.00     0.034 A 
HETATM   11 CL   UNL     1      44.484 -20.348   4.924  1.00  0.00    -0.084 Cl
HETATM   12  C   UNL     1      43.972 -17.700   4.998  1.00  0.00     0.024 A 
HETATM   13  C   UNL     1      43.572 -16.488   4.430  1.00  0.00     0.010 A 
ENDBRANCH   6   7
ENDBRANCH   3   6
ENDBRANCH   2   3
BRANCH   2  14
HETATM   14  C   UNL     1      40.202 -14.309  -0.022  1.00  0.00     0.138 A 
HETATM   15  N   UNL     1      40.849 -13.187  -0.085  1.00  0.00    -0.232 NA
HETATM   16  C   UNL     1      40.468 -12.268  -1.085  1.00  0.00     0.074 A 
HETATM   17  C   UNL     1      39.441 -12.534  -1.998  1.00  0.00     0.061 A 
HETATM   18  C   UNL     1      41.132 -11.043  -1.169  1.00  0.00     0.032 A 
HETATM   19  C   UNL     1      38.757 -13.831  -1.886  1.00  0.00     0.259 A 
HETATM   20  C   UNL     1      39.074 -11.607  -2.978  1.00  0.00     0.019 A 
HETATM   21  O   UNL     1      37.852 -14.175  -2.633  1.00  0.00    -0.267 OA
HETATM   22  N   UNL     1      39.196 -14.653  -0.877  1.00  0.00    -0.309 N 
HETATM   23  H   UNL     1      38.701 -15.536  -0.832  1.00  0.00     0.170 HD
HETATM   24  C   UNL     1      39.746 -10.389  -3.046  1.00  0.00     0.001 A 
HETATM   25  C   UNL     1      40.773 -10.106  -2.145  1.00  0.00     0.002 A 
ENDBRANCH   2  14
TORSDOF 4
ENDMDL
MODEL 9
REMARK VINA RESULT:      -7.8      1.454      1.687
REMARK  4 active torsions:
REMARK  status: ('A' for Active; 'I' for Inactive)
REMARK    1  A    between atoms: C_2  and  N_3 
REMARK    2  A    between atoms: C_2  and  C_14 
REMARK    3  A    between atoms: N_3  and  C_6 
REMARK    4  A    between atoms: C_6  and  C_7 
ROOT
HETATM    1  C   UNL     1      40.293 -13.437   6.022  1.00  0.00     0.048 C 
HETATM    2  C   UNL     1      41.754 -13.485   5.599  1.00  0.00     0.251 C 
ENDROOT
BRANCH   2   3
HETATM    3  N   UNL     1      42.080 -12.251   4.790  1.00  0.00    -0.060 N 
HETATM    4  H   UNL     1      41.699 -12.416   3.842  1.00  0.00     0.278 HD
HETATM    5  H   UNL     1      41.499 -11.466   5.117  1.00  0.00     0.278 HD
BRANCH   3   6
HETATM    6  C   UNL     1      43.502 -11.851   4.688  1.00  0.00     0.271 C 
BRANCH   6   7
HETATM    7  C   UNL     1      43.997 -11.294   5.994  1.00  0.00    -0.033 A 
HETATM    8  C   UNL     1      43.147 -10.531   6.811  1.00  0.00     0.010 A 
HETATM    9  C   UNL     1      43.618  -9.987   8.010  1.00  0.00     0.024 A 
HETATM   10  C   UNL     1      44.939 -10.198   8.396  1.00  0.00     0.034 A 
HETATM   11 CL   UNL     1      45.516  -9.529   9.870  1.00  0.00    -0.084 Cl
HETATM   12  C   UNL     1      45.795 -10.949   7.593  1.00  0.00     0.024 A 
HETATM   13  C   UNL     1      45.329 -11.492   6.393  1.00  0.00     0.010 A 
ENDBRANCH   6   7
ENDBRANCH   3   6
ENDBRANCH   2   3
BRANCH   2  14
HETATM   14  C   UNL     1      42.046 -14.724   4.738  1.00  0.00     0.138 A 
HETATM   15  N   UNL     1      42.935 -15.566   5.168  1.00  0.00    -0.232 NA
HETATM   16  C   UNL     1      43.203 -16.698   4.368  1.00  0.00     0.074 A 
HETATM   17  C   UNL     1      42.543 -16.936   3.158  1.00  0.00     0.061 A 
HETATM   18  C   UNL     1      44.166 -17.614   4.793  1.00  0.00     0.032 A 
HETATM   19  C   UNL     1      41.534 -15.953   2.734  1.00  0.00     0.259 A 
HETATM   20  C   UNL     1      42.827 -18.060   2.377  1.00  0.00     0.019 A 
HETATM   21  O   UNL     1      40.890 -16.062   1.700  1.00  0.00    -0.267 OA
HETATM   22  N   UNL     1      41.350 -14.884   3.576  1.00  0.00    -0.309 N 
HETATM   23  H   UNL     1      40.648 -14.230   3.250  1.00  0.00     0.170 HD
HETATM   24  C   UNL     1      43.793 -18.964   2.815  1.00  0.00     0.001 A 
HETATM   25  C   UNL     1      44.461 -18.743   4.020  1.00  0.00     0.002 A 
ENDBRANCH   2  14
TORSDOF 4
ENDMDL
MODEL 10
REMARK VINA RESULT:      -7.7      1.983      3.189
REMARK  4 active torsions:
REMARK  status: ('A' for Active; 'I' for Inactive)
REMARK    1  A    between atoms: C_2  and  N_3 
REMARK    2  A    between atoms: C_2  and  C_14 
REMARK    3  A    between atoms: N_3  and  C_6 
REMARK    4  A    between atoms: C_6  and  C_7 
ROOT
HETATM    1  C   UNL     1      43.443 -11.602   4.508  1.00  0.00     0.048 C 
HETATM    2  C   UNL     1      42.731 -12.505   5.504  1.00  0.00     0.251 C 
ENDROOT
BRANCH   2   3
HETATM    3  N   UNL     1      43.145 -12.127   6.907  1.00  0.00    -0.060 N 
HETATM    4  H   UNL     1      42.278 -11.863   7.405  1.00  0.00     0.278 HD
HETATM    5  H   UNL     1      43.432 -12.973   7.417  1.00  0.00     0.278 HD
BRANCH   3   6
HETATM    6  C   UNL     1      44.150 -11.050   7.060  1.00  0.00     0.271 C 
BRANCH   6   7
HETATM    7  C   UNL     1      44.019 -10.380   8.399  1.00  0.00    -0.033 A 
HETATM    8  C   UNL     1      42.822  -9.741   8.762  1.00  0.00     0.010 A 
HETATM    9  C   UNL     1      42.712  -9.090   9.994  1.00  0.00     0.024 A 
HETATM   10  C   UNL     1      43.796  -9.071  10.869  1.00  0.00     0.034 A 
HETATM   11 CL   UNL     1      43.658  -8.271  12.383  1.00  0.00    -0.084 Cl
HETATM   12  C   UNL     1      44.991  -9.697  10.520  1.00  0.00     0.024 A 
HETATM   13  C   UNL     1      45.106 -10.345   9.288  1.00  0.00     0.010 A 
ENDBRANCH   6   7
ENDBRANCH   3   6
ENDBRANCH   2   3
BRANCH   2  14
HETATM   14  C   UNL     1      43.086 -13.982   5.272  1.00  0.00     0.138 A 
HETATM   15  N   UNL     1      42.884 -14.477   4.089  1.00  0.00    -0.232 NA
HETATM   16  C   UNL     1      43.205 -15.836   3.886  1.00  0.00     0.074 A 
HETATM   17  C   UNL     1      43.734 -16.643   4.899  1.00  0.00     0.061 A 
HETATM   18  C   UNL     1      42.984 -16.403   2.630  1.00  0.00     0.032 A 
HETATM   19  C   UNL     1      43.956 -16.019   6.213  1.00  0.00     0.259 A 
HETATM   20  C   UNL     1      44.039 -17.989   4.679  1.00  0.00     0.019 A 
HETATM   21  O   UNL     1      44.419 -16.625   7.169  1.00  0.00    -0.267 OA
HETATM   22  N   UNL     1      43.606 -14.695   6.313  1.00  0.00    -0.309 N 
HETATM   23  H   UNL     1      43.773 -14.302   7.232  1.00  0.00     0.170 HD
HETATM   24  C   UNL     1      43.810 -18.540   3.420  1.00  0.00     0.001 A 
HETATM   25  C   UNL     1      43.284 -17.750   2.397  1.00  0.00     0.002 A 
ENDBRANCH   2  14
TORSDOF 4
ENDMDL
