MODEL 1
REMARK VINA RESULT:      -7.6      0.000      0.000
REMARK  3 active torsions:
REMARK  status: ('A' for Active; 'I' for Inactive)
REMARK    1  A    between atoms: C_8  and  C_9 
REMARK    2  A    between atoms: C_16  and  O_17 
REMARK    3  A    between atoms: C_24  and  N_25 
ROOT
HETATM    1  C   UNL     1      42.124  -5.610  11.023  1.00  0.00     0.073 C 
HETATM    2  C   UNL     1      41.309  -6.488  10.149  1.00  0.00     0.062 A 
HETATM    3  N   UNL     1      41.154  -6.194   8.846  1.00  0.00    -0.177 NA
HETATM    4  N   UNL     1      40.381  -7.190   8.368  1.00  0.00    -0.256 N 
HETATM    5  H   UNL     1      40.134  -7.191   7.385  1.00  0.00     0.191 HD
HETATM    6  C   UNL     1      40.044  -8.095   9.322  1.00  0.00     0.175 A 
HETATM    7  C   UNL     1      40.612  -7.670  10.494  1.00  0.00     0.034 A 
HETATM    8  C   UNL     1      40.442  -8.470  11.740  1.00  0.00     0.106 A 
HETATM    9  C   UNL     1      39.649  -9.750  11.446  1.00  0.00     0.081 A 
HETATM   10  C   UNL     1      39.496 -10.666  12.528  1.00  0.00     0.100 C 
HETATM   11  N   UNL     1      39.365 -11.418  13.402  1.00  0.00    -0.191 NA
HETATM   12  C   UNL     1      39.143 -10.042  10.216  1.00  0.00     0.140 A 
HETATM   13  O   UNL     1      39.311  -9.182   9.115  1.00  0.00    -0.279 OA
ENDROOT
BRANCH   8  14
HETATM   14  C   UNL     1      39.747  -7.549  12.748  1.00  0.00    -0.033 A 
HETATM   15  C   UNL     1      40.375  -7.114  13.957  1.00  0.00    -0.016 A 
HETATM   16  C   UNL     1      39.648  -6.268  14.847  1.00  0.00     0.008 A 
HETATM   17  C   UNL     1      41.695  -7.473  14.338  1.00  0.00     0.013 A 
HETATM   18  C   UNL     1      40.268  -5.836  16.041  1.00  0.00     0.015 A 
HETATM   19  C   UNL     1      38.322  -5.877  14.536  1.00  0.00     0.079 A 
HETATM   20  C   UNL     1      41.566  -6.208  16.381  1.00  0.00     0.001 A 
HETATM   21  C   UNL     1      42.280  -7.029  15.527  1.00  0.00     0.001 A 
HETATM   22  C   UNL     1      37.724  -6.313  13.358  1.00  0.00     0.038 A 
HETATM   23  C   UNL     1      38.423  -7.137  12.482  1.00  0.00     0.012 A 
BRANCH  19  24
HETATM   24  O   UNL     1      37.694  -5.062  15.450  1.00  0.00    -0.355 OA
HETATM   25  C   UNL     1      37.070  -3.879  14.969  1.00  0.00     0.210 C 
ENDBRANCH  19  24
ENDBRANCH   8  14
BRANCH  12  26
HETATM   26  N   UNL     1      38.430 -11.176   9.897  1.00  0.00    -0.282 NA
HETATM   27  H   UNL     1      37.493 -11.233  10.288  1.00  0.00     0.126 HD
HETATM   28  H   UNL     1      38.461 -11.383   8.901  1.00  0.00     0.126 HD
ENDBRANCH  12  26
TORSDOF 3
ENDMDL
MODEL 2
REMARK VINA RESULT:      -7.5     10.449     13.215
REMARK  3 active torsions:
REMARK  status: ('A' for Active; 'I' for Inactive)
REMARK    1  A    between atoms: C_8  and  C_9 
REMARK    2  A    between atoms: C_16  and  O_17 
REMARK    3  A    between atoms: C_24  and  N_25 
ROOT
HETATM    1  C   UNL     1      39.429 -15.697   2.114  1.00  0.00     0.073 C 
HETATM    2  C   UNL     1      40.203 -14.466   1.823  1.00  0.00     0.062 A 
HETATM    3  N   UNL     1      39.933 -13.738   0.725  1.00  0.00    -0.177 NA
HETATM    4  N   UNL     1      40.803 -12.708   0.785  1.00  0.00    -0.256 N 
HETATM    5  H   UNL     1      40.781 -12.005   0.055  1.00  0.00     0.191 HD
HETATM    6  C   UNL     1      41.606 -12.764   1.877  1.00  0.00     0.175 A 
HETATM    7  C   UNL     1      41.261 -13.896   2.569  1.00  0.00     0.034 A 
HETATM    8  C   UNL     1      41.957 -14.232   3.844  1.00  0.00     0.106 A 
HETATM    9  C   UNL     1      42.968 -13.137   4.204  1.00  0.00     0.081 A 
HETATM   10  C   UNL     1      43.636 -13.275   5.455  1.00  0.00     0.100 C 
HETATM   11  N   UNL     1      44.188 -13.378   6.471  1.00  0.00    -0.191 NA
HETATM   12  C   UNL     1      43.204 -12.056   3.410  1.00  0.00     0.140 A 
HETATM   13  O   UNL     1      42.531 -11.865   2.188  1.00  0.00    -0.279 OA
ENDROOT
BRANCH   8  14
HETATM   14  C   UNL     1      42.605 -15.604   3.628  1.00  0.00    -0.033 A 
HETATM   15  C   UNL     1      42.855 -16.517   4.700  1.00  0.00    -0.016 A 
HETATM   16  C   UNL     1      43.477 -17.767   4.410  1.00  0.00     0.008 A 
HETATM   17  C   UNL     1      42.520 -16.259   6.055  1.00  0.00     0.013 A 
HETATM   18  C   UNL     1      43.723 -18.672   5.467  1.00  0.00     0.015 A 
HETATM   19  C   UNL     1      43.847 -18.089   3.080  1.00  0.00     0.079 A 
HETATM   20  C   UNL     1      43.379 -18.384   6.785  1.00  0.00     0.001 A 
HETATM   21  C   UNL     1      42.777 -17.175   7.079  1.00  0.00     0.001 A 
HETATM   22  C   UNL     1      43.601 -17.187   2.049  1.00  0.00     0.038 A 
HETATM   23  C   UNL     1      42.995 -15.965   2.320  1.00  0.00     0.012 A 
BRANCH  19  24
HETATM   24  O   UNL     1      44.443 -19.315   2.890  1.00  0.00    -0.355 OA
HETATM   25  C   UNL     1      43.745 -20.282   2.118  1.00  0.00     0.210 C 
ENDBRANCH  19  24
ENDBRANCH   8  14
BRANCH  12  26
HETATM   26  N   UNL     1      44.095 -11.043   3.686  1.00  0.00    -0.282 NA
HETATM   27  H   UNL     1      45.075 -11.261   3.526  1.00  0.00     0.126 HD
HETATM   28  H   UNL     1      43.810 -10.157   3.276  1.00  0.00     0.126 HD
ENDBRANCH  12  26
TORSDOF 3
ENDMDL
MODEL 3
REMARK VINA RESULT:      -7.4      7.211     10.982
REMARK  3 active torsions:
REMARK  status: ('A' for Active; 'I' for Inactive)
REMARK    1  A    between atoms: C_8  and  C_9 
REMARK    2  A    between atoms: C_16  and  O_17 
REMARK    3  A    between atoms: C_24  and  N_25 
ROOT
HETATM    1  C   UNL     1      44.902 -11.750   6.042  1.00  0.00     0.073 C 
HETATM    2  C   UNL     1      43.670 -11.140   6.597  1.00  0.00     0.062 A 
HETATM    3  N   UNL     1      43.730 -10.366   7.695  1.00  0.00    -0.177 NA
HETATM    4  N   UNL     1      42.454  -9.982   7.904  1.00  0.00    -0.256 N 
HETATM    5  H   UNL     1      42.248  -9.370   8.686  1.00  0.00     0.191 HD
HETATM    6  C   UNL     1      41.598 -10.485   6.979  1.00  0.00     0.175 A 
HETATM    7  C   UNL     1      42.342 -11.254   6.123  1.00  0.00     0.034 A 
HETATM    8  C   UNL     1      41.685 -11.936   4.971  1.00  0.00     0.106 A 
HETATM    9  C   UNL     1      40.195 -11.579   4.920  1.00  0.00     0.081 A 
HETATM   10  C   UNL     1      39.459 -12.080   3.806  1.00  0.00     0.100 C 
HETATM   11  N   UNL     1      38.850 -12.484   2.905  1.00  0.00    -0.191 NA
HETATM   12  C   UNL     1      39.589 -10.791   5.851  1.00  0.00     0.140 A 
HETATM   13  O   UNL     1      40.294 -10.244   6.940  1.00  0.00    -0.279 OA
ENDROOT
BRANCH   8  14
HETATM   14  C   UNL     1      41.940 -13.435   5.161  1.00  0.00    -0.033 A 
HETATM   15  C   UNL     1      42.456 -14.269   4.119  1.00  0.00    -0.016 A 
HETATM   16  C   UNL     1      42.647 -15.658   4.378  1.00  0.00     0.008 A 
HETATM   17  C   UNL     1      42.794 -13.799   2.823  1.00  0.00     0.013 A 
HETATM   18  C   UNL     1      43.158 -16.483   3.352  1.00  0.00     0.015 A 
HETATM   19  C   UNL     1      42.321 -16.199   5.648  1.00  0.00     0.079 A 
HETATM   20  C   UNL     1      43.481 -15.986   2.092  1.00  0.00     0.001 A 
HETATM   21  C   UNL     1      43.298 -14.641   1.827  1.00  0.00     0.001 A 
HETATM   22  C   UNL     1      41.816 -15.375   6.649  1.00  0.00     0.038 A 
HETATM   23  C   UNL     1      41.626 -14.019   6.408  1.00  0.00     0.012 A 
BRANCH  19  24
HETATM   24  O   UNL     1      42.536 -17.548   5.811  1.00  0.00    -0.355 OA
HETATM   25  C   UNL     1      43.432 -17.960   6.834  1.00  0.00     0.210 C 
ENDBRANCH  19  24
ENDBRANCH   8  14
BRANCH  12  26
HETATM   26  N   UNL     1      38.258 -10.436   5.850  1.00  0.00    -0.282 NA
HETATM   27  H   UNL     1      37.766 -10.570   6.729  1.00  0.00     0.126 HD
HETATM   28  H   UNL     1      38.105  -9.517   5.442  1.00  0.00     0.126 HD
ENDBRANCH  12  26
TORSDOF 3
ENDMDL
MODEL 4
REMARK VINA RESULT:      -7.2      7.488      9.899
REMARK  3 active torsions:
REMARK  status: ('A' for Active; 'I' for Inactive)
REMARK    1  A    between atoms: C_8  and  C_9 
REMARK    2  A    between atoms: C_16  and  O_17 
REMARK    3  A    between atoms: C_24  and  N_25 
ROOT
HETATM    1  C   UNL     1      40.483 -14.536   2.738  1.00  0.00     0.073 C 
HETATM    2  C   UNL     1      39.841 -13.208   2.581  1.00  0.00     0.062 A 
HETATM    3  N   UNL     1      39.540 -12.739   1.358  1.00  0.00    -0.177 NA
HETATM    4  N   UNL     1      38.971 -11.539   1.590  1.00  0.00    -0.256 N 
HETATM    5  H   UNL     1      38.643 -10.990   0.803  1.00  0.00     0.191 HD
HETATM    6  C   UNL     1      38.905 -11.238   2.912  1.00  0.00     0.175 A 
HETATM    7  C   UNL     1      39.471 -12.285   3.589  1.00  0.00     0.034 A 
HETATM    8  C   UNL     1      39.534 -12.266   5.078  1.00  0.00     0.106 A 
HETATM    9  C   UNL     1      38.848 -11.007   5.623  1.00  0.00     0.081 A 
HETATM   10  C   UNL     1      38.742 -10.904   7.040  1.00  0.00     0.100 C 
HETATM   11  N   UNL     1      38.650 -10.809   8.194  1.00  0.00    -0.191 NA
HETATM   12  C   UNL     1      38.322 -10.042   4.818  1.00  0.00     0.140 A 
HETATM   13  O   UNL     1      38.372 -10.131   3.414  1.00  0.00    -0.279 OA
ENDROOT
BRANCH   8  14
HETATM   14  C   UNL     1      41.019 -12.351   5.445  1.00  0.00    -0.033 A 
HETATM   15  C   UNL     1      41.599 -13.507   6.053  1.00  0.00    -0.016 A 
HETATM   16  C   UNL     1      42.989 -13.494   6.376  1.00  0.00     0.008 A 
HETATM   17  C   UNL     1      40.874 -14.687   6.364  1.00  0.00     0.013 A 
HETATM   18  C   UNL     1      43.565 -14.636   6.975  1.00  0.00     0.015 A 
HETATM   19  C   UNL     1      43.774 -12.345   6.103  1.00  0.00     0.079 A 
HETATM   20  C   UNL     1      42.821 -15.777   7.264  1.00  0.00     0.001 A 
HETATM   21  C   UNL     1      41.473 -15.802   6.958  1.00  0.00     0.001 A 
HETATM   22  C   UNL     1      43.192 -11.226   5.514  1.00  0.00     0.038 A 
HETATM   23  C   UNL     1      41.839 -11.228   5.195  1.00  0.00     0.012 A 
BRANCH  19  24
HETATM   24  O   UNL     1      45.104 -12.418   6.447  1.00  0.00    -0.355 OA
HETATM   25  C   UNL     1      45.760 -11.216   6.826  1.00  0.00     0.210 C 
ENDBRANCH  19  24
ENDBRANCH   8  14
BRANCH  12  26
HETATM   26  N   UNL     1      37.693  -8.897   5.253  1.00  0.00    -0.282 NA
HETATM   27  H   UNL     1      36.796  -8.695   4.820  1.00  0.00     0.126 HD
HETATM   28  H   UNL     1      37.672  -8.830   6.268  1.00  0.00     0.126 HD
ENDBRANCH  12  26
TORSDOF 3
ENDMDL
MODEL 5
REMARK VINA RESULT:      -7.2      3.196      6.482
REMARK  3 active torsions:
REMARK  status: ('A' for Active; 'I' for Inactive)
REMARK    1  A    between atoms: C_8  and  C_9 
REMARK    2  A    between atoms: C_16  and  O_17 
REMARK    3  A    between atoms: C_24  and  N_25 
ROOT
HETATM    1  C   UNL     1      41.953  -5.213  10.004  1.00  0.00     0.073 C 
HETATM    2  C   UNL     1      42.103  -5.310  11.477  1.00  0.00     0.062 A 
HETATM    3  N   UNL     1      42.584  -4.269  12.180  1.00  0.00    -0.177 NA
HETATM    4  N   UNL     1      42.573  -4.696  13.459  1.00  0.00    -0.256 N 
HETATM    5  H   UNL     1      42.887  -4.067  14.189  1.00  0.00     0.191 HD
HETATM    6  C   UNL     1      42.104  -5.964  13.583  1.00  0.00     0.175 A 
HETATM    7  C   UNL     1      41.803  -6.404  12.322  1.00  0.00     0.034 A 
HETATM    8  C   UNL     1      41.240  -7.770  12.122  1.00  0.00     0.106 A 
HETATM    9  C   UNL     1      41.033  -8.463  13.474  1.00  0.00     0.081 A 
HETATM   10  C   UNL     1      40.404  -9.742  13.443  1.00  0.00     0.100 C 
HETATM   11  N   UNL     1      39.893 -10.784  13.430  1.00  0.00    -0.191 NA
HETATM   12  C   UNL     1      41.383  -7.893  14.660  1.00  0.00     0.140 A 
HETATM   13  O   UNL     1      41.967  -6.615  14.732  1.00  0.00    -0.279 OA
ENDROOT
BRANCH   8  14
HETATM   14  C   UNL     1      42.226  -8.509  11.210  1.00  0.00    -0.033 A 
HETATM   15  C   UNL     1      41.887  -8.925   9.884  1.00  0.00    -0.016 A 
HETATM   16  C   UNL     1      42.862  -9.622   9.110  1.00  0.00     0.008 A 
HETATM   17  C   UNL     1      40.626  -8.689   9.277  1.00  0.00     0.013 A 
HETATM   18  C   UNL     1      42.530 -10.032   7.799  1.00  0.00     0.015 A 
HETATM   19  C   UNL     1      44.140  -9.902   9.656  1.00  0.00     0.079 A 
HETATM   20  C   UNL     1      41.283  -9.781   7.236  1.00  0.00     0.001 A 
HETATM   21  C   UNL     1      40.329  -9.108   7.977  1.00  0.00     0.001 A 
HETATM   22  C   UNL     1      44.451  -9.494  10.949  1.00  0.00     0.038 A 
HETATM   23  C   UNL     1      43.509  -8.814  11.713  1.00  0.00     0.012 A 
BRANCH  19  24
HETATM   24  O   UNL     1      45.018 -10.579   8.841  1.00  0.00    -0.355 OA
HETATM   25  C   UNL     1      46.061  -9.837   8.224  1.00  0.00     0.210 C 
ENDBRANCH  19  24
ENDBRANCH   8  14
BRANCH  12  26
HETATM   26  N   UNL     1      41.215  -8.468  15.901  1.00  0.00    -0.282 NA
HETATM   27  H   UNL     1      41.875  -8.173  16.616  1.00  0.00     0.126 HD
HETATM   28  H   UNL     1      40.247  -8.437  16.212  1.00  0.00     0.126 HD
ENDBRANCH  12  26
TORSDOF 3
ENDMDL
MODEL 6
REMARK VINA RESULT:      -7.1     24.955     27.383
REMARK  3 active torsions:
REMARK  status: ('A' for Active; 'I' for Inactive)
REMARK    1  A    between atoms: C_8  and  C_9 
REMARK    2  A    between atoms: C_16  and  O_17 
REMARK    3  A    between atoms: C_24  and  N_25 
ROOT
HETATM    1  C   UNL     1      48.336 -29.350  -0.782  1.00  0.00     0.073 C 
HETATM    2  C   UNL     1      47.911 -29.956   0.503  1.00  0.00     0.062 A 
HETATM    3  N   UNL     1      48.816 -30.524   1.319  1.00  0.00    -0.177 NA
HETATM    4  N   UNL     1      48.094 -30.950   2.375  1.00  0.00    -0.256 N 
HETATM    5  H   UNL     1      48.571 -31.410   3.142  1.00  0.00     0.191 HD
HETATM    6  C   UNL     1      46.771 -30.672   2.251  1.00  0.00     0.175 A 
HETATM    7  C   UNL     1      46.607 -30.041   1.046  1.00  0.00     0.034 A 
HETATM    8  C   UNL     1      45.253 -29.583   0.621  1.00  0.00     0.106 A 
HETATM    9  C   UNL     1      44.224 -29.874   1.720  1.00  0.00     0.081 A 
HETATM   10  C   UNL     1      42.900 -29.396   1.494  1.00  0.00     0.100 C 
HETATM   11  N   UNL     1      41.819 -29.013   1.320  1.00  0.00    -0.191 NA
HETATM   12  C   UNL     1      44.539 -30.513   2.880  1.00  0.00     0.140 A 
HETATM   13  O   UNL     1      45.845 -30.961   3.156  1.00  0.00    -0.279 OA
ENDROOT
BRANCH   8  14
HETATM   14  C   UNL     1      44.951 -30.308  -0.695  1.00  0.00    -0.033 A 
HETATM   15  C   UNL     1      44.928 -29.637  -1.958  1.00  0.00    -0.016 A 
HETATM   16  C   UNL     1      44.621 -30.387  -3.132  1.00  0.00     0.008 A 
HETATM   17  C   UNL     1      45.193 -28.252  -2.125  1.00  0.00     0.013 A 
HETATM   18  C   UNL     1      44.600 -29.727  -4.381  1.00  0.00     0.015 A 
HETATM   19  C   UNL     1      44.335 -31.772  -3.039  1.00  0.00     0.079 A 
HETATM   20  C   UNL     1      44.867 -28.367  -4.506  1.00  0.00     0.001 A 
HETATM   21  C   UNL     1      45.164 -27.628  -3.375  1.00  0.00     0.001 A 
HETATM   22  C   UNL     1      44.357 -32.409  -1.802  1.00  0.00     0.038 A 
HETATM   23  C   UNL     1      44.655 -31.688  -0.651  1.00  0.00     0.012 A 
BRANCH  19  24
HETATM   24  O   UNL     1      44.049 -32.418  -4.220  1.00  0.00    -0.355 OA
HETATM   25  C   UNL     1      43.908 -33.832  -4.189  1.00  0.00     0.210 C 
ENDBRANCH  19  24
ENDBRANCH   8  14
BRANCH  12  26
HETATM   26  N   UNL     1      43.658 -30.795   3.901  1.00  0.00    -0.282 NA
HETATM   27  H   UNL     1      42.942 -31.485   3.688  1.00  0.00     0.126 HD
HETATM   28  H   UNL     1      44.133 -30.970   4.783  1.00  0.00     0.126 HD
ENDBRANCH  12  26
TORSDOF 3
ENDMDL
MODEL 7
REMARK VINA RESULT:      -6.7     24.902     27.507
REMARK  3 active torsions:
REMARK  status: ('A' for Active; 'I' for Inactive)
REMARK    1  A    between atoms: C_8  and  C_9 
REMARK    2  A    between atoms: C_16  and  O_17 
REMARK    3  A    between atoms: C_24  and  N_25 
ROOT
HETATM    1  C   UNL     1      48.802 -29.138  -1.876  1.00  0.00     0.073 C 
HETATM    2  C   UNL     1      49.012 -29.543  -0.464  1.00  0.00     0.062 A 
HETATM    3  N   UNL     1      50.247 -29.837  -0.020  1.00  0.00    -0.177 NA
HETATM    4  N   UNL     1      50.068 -30.146   1.281  1.00  0.00    -0.256 N 
HETATM    5  H   UNL     1      50.876 -30.395   1.842  1.00  0.00     0.191 HD
HETATM    6  C   UNL     1      48.770 -30.057   1.667  1.00  0.00     0.175 A 
HETATM    7  C   UNL     1      48.050 -29.684   0.563  1.00  0.00     0.034 A 
HETATM    8  C   UNL     1      46.577 -29.479   0.667  1.00  0.00     0.106 A 
HETATM    9  C   UNL     1      46.112 -29.683   2.114  1.00  0.00     0.081 A 
HETATM   10  C   UNL     1      44.737 -29.419   2.383  1.00  0.00     0.100 C 
HETATM   11  N   UNL     1      43.619 -29.208   2.613  1.00  0.00    -0.191 NA
HETATM   12  C   UNL     1      46.954 -30.055   3.118  1.00  0.00     0.140 A 
HETATM   13  O   UNL     1      48.325 -30.284   2.897  1.00  0.00    -0.279 OA
ENDROOT
BRANCH   8  14
HETATM   14  C   UNL     1      45.938 -30.465  -0.317  1.00  0.00    -0.033 A 
HETATM   15  C   UNL     1      45.310 -30.046  -1.532  1.00  0.00    -0.016 A 
HETATM   16  C   UNL     1      44.727 -31.032  -2.382  1.00  0.00     0.008 A 
HETATM   17  C   UNL     1      45.227 -28.694  -1.955  1.00  0.00     0.013 A 
HETATM   18  C   UNL     1      44.108 -30.620  -3.584  1.00  0.00     0.015 A 
HETATM   19  C   UNL     1      44.764 -32.401  -2.018  1.00  0.00     0.079 A 
HETATM   20  C   UNL     1      44.047 -29.283  -3.967  1.00  0.00     0.001 A 
HETATM   21  C   UNL     1      44.607 -28.319  -3.150  1.00  0.00     0.001 A 
HETATM   22  C   UNL     1      45.375 -32.791  -0.830  1.00  0.00     0.038 A 
HETATM   23  C   UNL     1      45.947 -31.840   0.007  1.00  0.00     0.012 A 
BRANCH  19  24
HETATM   24  O   UNL     1      44.176 -33.284  -2.896  1.00  0.00    -0.355 OA
HETATM   25  C   UNL     1      43.281 -34.252  -2.366  1.00  0.00     0.210 C 
ENDBRANCH  19  24
ENDBRANCH   8  14
BRANCH  12  26
HETATM   26  N   UNL     1      46.591 -30.248   4.432  1.00  0.00    -0.282 NA
HETATM   27  H   UNL     1      45.675 -29.894   4.693  1.00  0.00     0.126 HD
HETATM   28  H   UNL     1      46.754 -31.203   4.741  1.00  0.00     0.126 HD
ENDBRANCH  12  26
TORSDOF 3
ENDMDL
MODEL 8
REMARK VINA RESULT:      -6.7     25.085     27.055
REMARK  3 active torsions:
REMARK  status: ('A' for Active; 'I' for Inactive)
REMARK    1  A    between atoms: C_8  and  C_9 
REMARK    2  A    between atoms: C_16  and  O_17 
REMARK    3  A    between atoms: C_24  and  N_25 
ROOT
HETATM    1  C   UNL     1      47.183 -31.541   1.261  1.00  0.00     0.073 C 
HETATM    2  C   UNL     1      47.342 -30.274   0.506  1.00  0.00     0.062 A 
HETATM    3  N   UNL     1      48.305 -29.399   0.844  1.00  0.00    -0.177 NA
HETATM    4  N   UNL     1      48.167 -28.390  -0.041  1.00  0.00    -0.256 N 
HETATM    5  H   UNL     1      48.803 -27.603   0.009  1.00  0.00     0.191 HD
HETATM    6  C   UNL     1      47.153 -28.600  -0.919  1.00  0.00     0.175 A 
HETATM    7  C   UNL     1      46.583 -29.802  -0.590  1.00  0.00     0.034 A 
HETATM    8  C   UNL     1      45.442 -30.330  -1.391  1.00  0.00     0.106 A 
HETATM    9  C   UNL     1      45.130 -29.387  -2.559  1.00  0.00     0.081 A 
HETATM   10  C   UNL     1      44.124 -29.818  -3.473  1.00  0.00     0.100 C 
HETATM   11  N   UNL     1      43.306 -30.158  -4.223  1.00  0.00    -0.191 NA
HETATM   12  C   UNL     1      45.791 -28.214  -2.763  1.00  0.00     0.140 A 
HETATM   13  O   UNL     1      46.818 -27.778  -1.905  1.00  0.00    -0.279 OA
ENDROOT
BRANCH   8  14
HETATM   14  C   UNL     1      44.271 -30.489  -0.415  1.00  0.00    -0.033 A 
HETATM   15  C   UNL     1      43.570 -31.724  -0.244  1.00  0.00    -0.016 A 
HETATM   16  C   UNL     1      42.482 -31.777   0.676  1.00  0.00     0.008 A 
HETATM   17  C   UNL     1      43.889 -32.919  -0.940  1.00  0.00     0.013 A 
HETATM   18  C   UNL     1      41.789 -32.996   0.849  1.00  0.00     0.015 A 
HETATM   19  C   UNL     1      42.101 -30.619   1.400  1.00  0.00     0.079 A 
HETATM   20  C   UNL     1      42.132 -34.150   0.149  1.00  0.00     0.001 A 
HETATM   21  C   UNL     1      43.184 -34.110  -0.748  1.00  0.00     0.001 A 
HETATM   22  C   UNL     1      42.791 -29.424   1.218  1.00  0.00     0.038 A 
HETATM   23  C   UNL     1      43.854 -29.360   0.324  1.00  0.00     0.012 A 
BRANCH  19  24
HETATM   24  O   UNL     1      41.040 -30.759   2.265  1.00  0.00    -0.355 OA
HETATM   25  C   UNL     1      41.279 -30.553   3.650  1.00  0.00     0.210 C 
ENDBRANCH  19  24
ENDBRANCH   8  14
BRANCH  12  26
HETATM   26  N   UNL     1      45.555 -27.334  -3.795  1.00  0.00    -0.282 NA
HETATM   27  H   UNL     1      44.820 -26.651  -3.633  1.00  0.00     0.126 HD
HETATM   28  H   UNL     1      46.413 -26.921  -4.153  1.00  0.00     0.126 HD
ENDBRANCH  12  26
TORSDOF 3
ENDMDL
MODEL 9
REMARK VINA RESULT:      -6.6      4.061      7.775
REMARK  3 active torsions:
REMARK  status: ('A' for Active; 'I' for Inactive)
REMARK    1  A    between atoms: C_8  and  C_9 
REMARK    2  A    between atoms: C_16  and  O_17 
REMARK    3  A    between atoms: C_24  and  N_25 
ROOT
HETATM    1  C   UNL     1      42.449 -10.033  11.270  1.00  0.00     0.073 C 
HETATM    2  C   UNL     1      41.165  -9.416  10.856  1.00  0.00     0.062 A 
HETATM    3  N   UNL     1      40.049  -9.622  11.577  1.00  0.00    -0.177 NA
HETATM    4  N   UNL     1      39.098  -8.917  10.930  1.00  0.00    -0.256 N 
HETATM    5  H   UNL     1      38.155  -8.910  11.301  1.00  0.00     0.191 HD
HETATM    6  C   UNL     1      39.577  -8.278   9.832  1.00  0.00     0.175 A 
HETATM    7  C   UNL     1      40.908  -8.587   9.739  1.00  0.00     0.034 A 
HETATM    8  C   UNL     1      41.732  -8.014   8.636  1.00  0.00     0.106 A 
HETATM    9  C   UNL     1      40.885  -7.068   7.776  1.00  0.00     0.081 A 
HETATM   10  C   UNL     1      41.569  -6.367   6.740  1.00  0.00     0.100 C 
HETATM   11  N   UNL     1      42.116  -5.792   5.893  1.00  0.00    -0.191 NA
HETATM   12  C   UNL     1      39.558  -6.857   7.993  1.00  0.00     0.140 A 
HETATM   13  O   UNL     1      38.859  -7.499   9.033  1.00  0.00    -0.279 OA
ENDROOT
BRANCH   8  14
HETATM   14  C   UNL     1      42.285  -9.209   7.852  1.00  0.00    -0.033 A 
HETATM   15  C   UNL     1      43.677  -9.536   7.825  1.00  0.00    -0.016 A 
HETATM   16  C   UNL     1      44.107 -10.658   7.055  1.00  0.00     0.008 A 
HETATM   17  C   UNL     1      44.677  -8.808   8.522  1.00  0.00     0.013 A 
HETATM   18  C   UNL     1      45.482 -10.984   7.029  1.00  0.00     0.015 A 
HETATM   19  C   UNL     1      43.166 -11.426   6.325  1.00  0.00     0.079 A 
HETATM   20  C   UNL     1      46.433 -10.247   7.727  1.00  0.00     0.001 A 
HETATM   21  C   UNL     1      46.029  -9.156   8.475  1.00  0.00     0.001 A 
HETATM   22  C   UNL     1      41.816 -11.091   6.359  1.00  0.00     0.038 A 
HETATM   23  C   UNL     1      41.385 -10.000   7.106  1.00  0.00     0.012 A 
BRANCH  19  24
HETATM   24  O   UNL     1      43.667 -12.489   5.610  1.00  0.00    -0.355 OA
HETATM   25  C   UNL     1      43.182 -13.788   5.920  1.00  0.00     0.210 C 
ENDBRANCH  19  24
ENDBRANCH   8  14
BRANCH  12  26
HETATM   26  N   UNL     1      38.753  -6.017   7.256  1.00  0.00    -0.282 NA
HETATM   27  H   UNL     1      38.833  -6.102   6.247  1.00  0.00     0.126 HD
HETATM   28  H   UNL     1      37.789  -6.021   7.583  1.00  0.00     0.126 HD
ENDBRANCH  12  26
TORSDOF 3
ENDMDL
MODEL 10
REMARK VINA RESULT:      -6.6     10.084     13.621
REMARK  3 active torsions:
REMARK  status: ('A' for Active; 'I' for Inactive)
REMARK    1  A    between atoms: C_8  and  C_9 
REMARK    2  A    between atoms: C_16  and  O_17 
REMARK    3  A    between atoms: C_24  and  N_25 
ROOT
HETATM    1  C   UNL     1      43.881 -15.303   1.521  1.00  0.00     0.073 C 
HETATM    2  C   UNL     1      43.004 -15.467   2.707  1.00  0.00     0.062 A 
HETATM    3  N   UNL     1      43.107 -16.561   3.481  1.00  0.00    -0.177 NA
HETATM    4  N   UNL     1      42.187 -16.373   4.449  1.00  0.00    -0.256 N 
HETATM    5  H   UNL     1      42.086 -17.076   5.172  1.00  0.00     0.191 HD
HETATM    6  C   UNL     1      41.513 -15.203   4.311  1.00  0.00     0.175 A 
HETATM    7  C   UNL     1      42.001 -14.592   3.186  1.00  0.00     0.034 A 
HETATM    8  C   UNL     1      41.470 -13.263   2.769  1.00  0.00     0.106 A 
HETATM    9  C   UNL     1      40.439 -12.759   3.786  1.00  0.00     0.081 A 
HETATM   10  C   UNL     1      39.921 -11.449   3.569  1.00  0.00     0.100 C 
HETATM   11  N   UNL     1      39.491 -10.384   3.402  1.00  0.00    -0.191 NA
HETATM   12  C   UNL     1      40.051 -13.485   4.870  1.00  0.00     0.140 A 
HETATM   13  O   UNL     1      40.574 -14.764   5.138  1.00  0.00    -0.279 OA
ENDROOT
BRANCH   8  14
HETATM   14  C   UNL     1      40.889 -13.455   1.364  1.00  0.00    -0.033 A 
HETATM   15  C   UNL     1      40.968 -12.450   0.351  1.00  0.00    -0.016 A 
HETATM   16  C   UNL     1      40.385 -12.708  -0.925  1.00  0.00     0.008 A 
HETATM   17  C   UNL     1      41.598 -11.190   0.532  1.00  0.00     0.013 A 
HETATM   18  C   UNL     1      40.464 -11.716  -1.928  1.00  0.00     0.015 A 
HETATM   19  C   UNL     1      39.732 -13.941  -1.174  1.00  0.00     0.079 A 
HETATM   20  C   UNL     1      41.092 -10.492  -1.714  1.00  0.00     0.001 A 
HETATM   21  C   UNL     1      41.659 -10.229  -0.481  1.00  0.00     0.001 A 
HETATM   22  C   UNL     1      39.659 -14.907  -0.176  1.00  0.00     0.038 A 
HETATM   23  C   UNL     1      40.224 -14.667   1.072  1.00  0.00     0.012 A 
BRANCH  19  24
HETATM   24  O   UNL     1      39.197 -14.106  -2.431  1.00  0.00    -0.355 OA
HETATM   25  C   UNL     1      37.814 -13.830  -2.608  1.00  0.00     0.210 C 
ENDBRANCH  19  24
ENDBRANCH   8  14
BRANCH  12  26
HETATM   26  N   UNL     1      39.135 -13.080   5.815  1.00  0.00    -0.282 NA
HETATM   27  H   UNL     1      38.797 -13.806   6.442  1.00  0.00     0.126 HD
HETATM   28  H   UNL     1      39.429 -12.236   6.301  1.00  0.00     0.126 HD
ENDBRANCH  12  26
TORSDOF 3
ENDMDL
