MODEL 1
REMARK VINA RESULT:      -9.7      0.000      0.000
REMARK  6 active torsions:
REMARK  status: ('A' for Active; 'I' for Inactive)
REMARK    1  A    between atoms: C_4  and  C_5 
REMARK    2  A    between atoms: C_5  and  C_6 
REMARK    3  A    between atoms: C_6  and  C_7 
REMARK    4  A    between atoms: C_7  and  N_8 
REMARK    5  A    between atoms: C_11  and  C_13 
REMARK    6  A    between atoms: C_11  and  O_12 
ROOT
HETATM    1  N   UNL     1      42.319 -14.856   6.850  1.00  0.00    -0.314 N 
HETATM    2  C   UNL     1      40.956 -14.833   6.486  1.00  0.00     0.269 A 
HETATM    3  O   UNL     1      40.156 -15.739   6.672  1.00  0.00    -0.269 OA
HETATM    4  C   UNL     1      40.664 -13.406   5.909  1.00  0.00     0.198 A 
HETATM    5  C   UNL     1      42.030 -12.764   5.953  1.00  0.00     0.017 A 
HETATM    6  C   UNL     1      42.950 -13.646   6.530  1.00  0.00     0.047 A 
HETATM    7  C   UNL     1      42.412 -11.484   5.572  1.00  0.00     0.013 A 
HETATM    8  C   UNL     1      43.743 -11.107   5.758  1.00  0.00     0.001 A 
HETATM    9  C   UNL     1      44.665 -12.001   6.326  1.00  0.00     0.002 A 
HETATM   10  C   UNL     1      44.271 -13.283   6.721  1.00  0.00     0.030 A 
ENDROOT
BRANCH   4  11
HETATM   11  C   UNL     1      40.195 -13.418   4.477  1.00  0.00     0.018 A 
HETATM   12  C   UNL     1      40.702 -14.173   3.356  1.00  0.00     0.002 A 
HETATM   13  C   UNL     1      39.925 -13.850   2.241  1.00  0.00     0.043 A 
HETATM   14  C   UNL     1      41.753 -15.097   3.175  1.00  0.00     0.014 A 
HETATM   15  C   UNL     1      40.141 -14.403   0.972  1.00  0.00     0.030 A 
HETATM   16  N   UNL     1      38.982 -12.941   2.651  1.00  0.00    -0.365 N 
HETATM   17  C   UNL     1      41.189 -15.315   0.829  1.00  0.00     0.002 A 
HETATM   18  C   UNL     1      41.987 -15.657   1.913  1.00  0.00     0.001 A 
HETATM   19  H   UNL     1      38.277 -12.536   2.052  1.00  0.00     0.165 HD
HETATM   20  C   UNL     1      39.134 -12.672   3.980  1.00  0.00     0.100 A 
ENDBRANCH   4  11
BRANCH   4  21
HETATM   21  O   UNL     1      39.787 -12.674   6.766  1.00  0.00    -0.371 OA
HETATM   22  H   UNL     1      38.887 -12.970   6.555  1.00  0.00     0.212 HD
ENDBRANCH   4  21
BRANCH   1  23
HETATM   23  C   UNL     1      42.927 -15.971   7.543  1.00  0.00     0.133 C 
BRANCH  23  24
HETATM   24  C   UNL     1      42.984 -17.256   6.718  1.00  0.00     0.025 C 
BRANCH  24  25
HETATM   25  C   UNL     1      43.884 -17.133   5.489  1.00  0.00     0.040 C 
BRANCH  25  26
HETATM   26  C   UNL     1      43.882 -18.404   4.674  1.00  0.00    -0.058 A 
HETATM   27  C   UNL     1      43.724 -18.354   3.283  1.00  0.00     0.007 A 
HETATM   28  C   UNL     1      43.704 -19.528   2.529  1.00  0.00     0.001 A 
HETATM   29  C   UNL     1      43.832 -20.765   3.161  1.00  0.00     0.000 A 
HETATM   30  C   UNL     1      43.980 -20.825   4.545  1.00  0.00     0.001 A 
HETATM   31  C   UNL     1      44.004 -19.652   5.300  1.00  0.00     0.007 A 
ENDBRANCH  25  26
ENDBRANCH  24  25
ENDBRANCH  23  24
ENDBRANCH   1  23
TORSDOF 6
ENDMDL
MODEL 2
REMARK VINA RESULT:      -8.9      1.372      2.016
REMARK  6 active torsions:
REMARK  status: ('A' for Active; 'I' for Inactive)
REMARK    1  A    between atoms: C_4  and  C_5 
REMARK    2  A    between atoms: C_5  and  C_6 
REMARK    3  A    between atoms: C_6  and  C_7 
REMARK    4  A    between atoms: C_7  and  N_8 
REMARK    5  A    between atoms: C_11  and  C_13 
REMARK    6  A    between atoms: C_11  and  O_12 
ROOT
HETATM    1  N   UNL     1      42.256 -15.241   5.977  1.00  0.00    -0.314 N 
HETATM    2  C   UNL     1      41.140 -15.439   5.139  1.00  0.00     0.269 A 
HETATM    3  O   UNL     1      40.454 -16.451   5.095  1.00  0.00    -0.269 OA
HETATM    4  C   UNL     1      40.901 -14.092   4.374  1.00  0.00     0.198 A 
HETATM    5  C   UNL     1      42.055 -13.247   4.860  1.00  0.00     0.017 A 
HETATM    6  C   UNL     1      42.798 -13.959   5.808  1.00  0.00     0.047 A 
HETATM    7  C   UNL     1      42.381 -11.936   4.538  1.00  0.00     0.013 A 
HETATM    8  C   UNL     1      43.483 -11.353   5.165  1.00  0.00     0.001 A 
HETATM    9  C   UNL     1      44.232 -12.077   6.107  1.00  0.00     0.002 A 
HETATM   10  C   UNL     1      43.891 -13.391   6.438  1.00  0.00     0.030 A 
ENDROOT
BRANCH   4  11
HETATM   11  C   UNL     1      41.010 -14.220   2.876  1.00  0.00     0.018 A 
HETATM   12  C   UNL     1      40.304 -13.498   1.844  1.00  0.00     0.002 A 
HETATM   13  C   UNL     1      40.762 -13.965   0.610  1.00  0.00     0.043 A 
HETATM   14  C   UNL     1      39.313 -12.494   1.836  1.00  0.00     0.014 A 
HETATM   15  C   UNL     1      40.288 -13.480  -0.616  1.00  0.00     0.030 A 
HETATM   16  N   UNL     1      41.707 -14.929   0.865  1.00  0.00    -0.365 N 
HETATM   17  C   UNL     1      39.307 -12.487  -0.587  1.00  0.00     0.002 A 
HETATM   18  C   UNL     1      38.823 -12.000   0.621  1.00  0.00     0.001 A 
HETATM   19  H   UNL     1      42.214 -15.436   0.154  1.00  0.00     0.165 HD
HETATM   20  C   UNL     1      41.861 -15.092   2.210  1.00  0.00     0.100 A 
ENDBRANCH   4  11
BRANCH   4  21
HETATM   21  O   UNL     1      39.679 -13.477   4.782  1.00  0.00    -0.371 OA
HETATM   22  H   UNL     1      38.987 -14.150   4.682  1.00  0.00     0.212 HD
ENDBRANCH   4  21
BRANCH   1  23
HETATM   23  C   UNL     1      42.700 -16.227   6.939  1.00  0.00     0.133 C 
BRANCH  23  24
HETATM   24  C   UNL     1      43.895 -17.055   6.468  1.00  0.00     0.025 C 
BRANCH  24  25
HETATM   25  C   UNL     1      44.114 -16.977   4.957  1.00  0.00     0.040 C 
BRANCH  25  26
HETATM   26  C   UNL     1      43.993 -18.336   4.312  1.00  0.00    -0.058 A 
HETATM   27  C   UNL     1      43.708 -18.448   2.944  1.00  0.00     0.007 A 
HETATM   28  C   UNL     1      43.579 -19.704   2.348  1.00  0.00     0.001 A 
HETATM   29  C   UNL     1      43.723 -20.859   3.116  1.00  0.00     0.000 A 
HETATM   30  C   UNL     1      43.997 -20.757   4.478  1.00  0.00     0.001 A 
HETATM   31  C   UNL     1      44.131 -19.503   5.076  1.00  0.00     0.007 A 
ENDBRANCH  25  26
ENDBRANCH  24  25
ENDBRANCH  23  24
ENDBRANCH   1  23
TORSDOF 6
ENDMDL
MODEL 3
REMARK VINA RESULT:      -8.6      2.628      3.853
REMARK  6 active torsions:
REMARK  status: ('A' for Active; 'I' for Inactive)
REMARK    1  A    between atoms: C_4  and  C_5 
REMARK    2  A    between atoms: C_5  and  C_6 
REMARK    3  A    between atoms: C_6  and  C_7 
REMARK    4  A    between atoms: C_7  and  N_8 
REMARK    5  A    between atoms: C_11  and  C_13 
REMARK    6  A    between atoms: C_11  and  O_12 
ROOT
HETATM    1  N   UNL     1      41.280 -14.475   3.647  1.00  0.00    -0.314 N 
HETATM    2  C   UNL     1      40.209 -14.815   2.795  1.00  0.00     0.269 A 
HETATM    3  O   UNL     1      39.728 -15.933   2.668  1.00  0.00    -0.269 OA
HETATM    4  C   UNL     1      39.705 -13.482   2.144  1.00  0.00     0.198 A 
HETATM    5  C   UNL     1      40.683 -12.473   2.698  1.00  0.00     0.017 A 
HETATM    6  C   UNL     1      41.564 -13.104   3.584  1.00  0.00     0.047 A 
HETATM    7  C   UNL     1      40.747 -11.102   2.485  1.00  0.00     0.013 A 
HETATM    8  C   UNL     1      41.728 -10.372   3.158  1.00  0.00     0.001 A 
HETATM    9  C   UNL     1      42.617 -11.012   4.037  1.00  0.00     0.002 A 
HETATM   10  C   UNL     1      42.538 -12.390   4.258  1.00  0.00     0.030 A 
ENDROOT
BRANCH   4  11
HETATM   11  C   UNL     1      39.812 -13.465   0.641  1.00  0.00     0.018 A 
HETATM   12  C   UNL     1      39.098 -12.652  -0.316  1.00  0.00     0.002 A 
HETATM   13  C   UNL     1      39.558 -12.996  -1.590  1.00  0.00     0.043 A 
HETATM   14  C   UNL     1      38.099 -11.661  -0.227  1.00  0.00     0.014 A 
HETATM   15  C   UNL     1      39.077 -12.400  -2.763  1.00  0.00     0.030 A 
HETATM   16  N   UNL     1      40.510 -13.971  -1.430  1.00  0.00    -0.365 N 
HETATM   17  C   UNL     1      38.088 -11.421  -2.638  1.00  0.00     0.002 A 
HETATM   18  C   UNL     1      37.602 -11.057  -1.389  1.00  0.00     0.001 A 
HETATM   19  H   UNL     1      41.021 -14.404  -2.186  1.00  0.00     0.165 HD
HETATM   20  C   UNL     1      40.668 -14.262  -0.106  1.00  0.00     0.100 A 
ENDBRANCH   4  11
BRANCH   4  21
HETATM   21  O   UNL     1      38.394 -13.148   2.602  1.00  0.00    -0.371 OA
HETATM   22  H   UNL     1      38.236 -13.684   3.396  1.00  0.00     0.212 HD
ENDBRANCH   4  21
BRANCH   1  23
HETATM   23  C   UNL     1      41.920 -15.433   4.523  1.00  0.00     0.133 C 
BRANCH  23  24
HETATM   24  C   UNL     1      43.305 -15.874   4.052  1.00  0.00     0.025 C 
BRANCH  24  25
HETATM   25  C   UNL     1      43.257 -16.727   2.785  1.00  0.00     0.040 C 
BRANCH  25  26
HETATM   26  C   UNL     1      43.477 -18.188   3.095  1.00  0.00    -0.058 A 
HETATM   27  C   UNL     1      43.973 -18.580   4.345  1.00  0.00     0.007 A 
HETATM   28  C   UNL     1      44.194 -19.929   4.628  1.00  0.00     0.001 A 
HETATM   29  C   UNL     1      43.930 -20.897   3.661  1.00  0.00     0.000 A 
HETATM   30  C   UNL     1      43.446 -20.516   2.411  1.00  0.00     0.001 A 
HETATM   31  C   UNL     1      43.221 -19.168   2.127  1.00  0.00     0.007 A 
ENDBRANCH  25  26
ENDBRANCH  24  25
ENDBRANCH  23  24
ENDBRANCH   1  23
TORSDOF 6
ENDMDL
MODEL 4
REMARK VINA RESULT:      -8.6      1.942      4.591
REMARK  6 active torsions:
REMARK  status: ('A' for Active; 'I' for Inactive)
REMARK    1  A    between atoms: C_4  and  C_5 
REMARK    2  A    between atoms: C_5  and  C_6 
REMARK    3  A    between atoms: C_6  and  C_7 
REMARK    4  A    between atoms: C_7  and  N_8 
REMARK    5  A    between atoms: C_11  and  C_13 
REMARK    6  A    between atoms: C_11  and  O_12 
ROOT
HETATM    1  N   UNL     1      41.814 -14.100   3.155  1.00  0.00    -0.314 N 
HETATM    2  C   UNL     1      41.587 -12.708   3.150  1.00  0.00     0.269 A 
HETATM    3  O   UNL     1      41.918 -11.937   2.260  1.00  0.00    -0.269 OA
HETATM    4  C   UNL     1      40.752 -12.378   4.434  1.00  0.00     0.198 A 
HETATM    5  C   UNL     1      40.662 -13.729   5.105  1.00  0.00     0.017 A 
HETATM    6  C   UNL     1      41.279 -14.697   4.305  1.00  0.00     0.047 A 
HETATM    7  C   UNL     1      40.031 -14.080   6.292  1.00  0.00     0.013 A 
HETATM    8  C   UNL     1      40.049 -15.420   6.679  1.00  0.00     0.001 A 
HETATM    9  C   UNL     1      40.680 -16.386   5.879  1.00  0.00     0.002 A 
HETATM   10  C   UNL     1      41.300 -16.029   4.678  1.00  0.00     0.030 A 
ENDROOT
BRANCH   4  11
HETATM   11  C   UNL     1      41.443 -11.429   5.378  1.00  0.00     0.018 A 
HETATM   12  C   UNL     1      42.750 -11.533   5.984  1.00  0.00     0.002 A 
HETATM   13  C   UNL     1      42.944 -10.396   6.771  1.00  0.00     0.043 A 
HETATM   14  C   UNL     1      43.788 -12.488   5.946  1.00  0.00     0.014 A 
HETATM   15  C   UNL     1      44.113 -10.167   7.509  1.00  0.00     0.030 A 
HETATM   16  N   UNL     1      41.815  -9.624   6.658  1.00  0.00    -0.365 N 
HETATM   17  C   UNL     1      45.121 -11.132   7.449  1.00  0.00     0.002 A 
HETATM   18  C   UNL     1      44.962 -12.279   6.681  1.00  0.00     0.001 A 
HETATM   19  H   UNL     1      41.679  -8.735   7.117  1.00  0.00     0.165 HD
HETATM   20  C   UNL     1      40.912 -10.230   5.834  1.00  0.00     0.100 A 
ENDBRANCH   4  11
BRANCH   4  21
HETATM   21  O   UNL     1      39.434 -11.947   4.094  1.00  0.00    -0.371 OA
HETATM   22  H   UNL     1      39.451 -10.977   4.104  1.00  0.00     0.212 HD
ENDBRANCH   4  21
BRANCH   1  23
HETATM   23  C   UNL     1      42.444 -14.796   2.054  1.00  0.00     0.133 C 
BRANCH  23  24
HETATM   24  C   UNL     1      43.421 -15.887   2.491  1.00  0.00     0.025 C 
BRANCH  24  25
HETATM   25  C   UNL     1      43.169 -17.224   1.794  1.00  0.00     0.040 C 
BRANCH  25  26
HETATM   26  C   UNL     1      43.483 -18.388   2.703  1.00  0.00    -0.058 A 
HETATM   27  C   UNL     1      43.893 -18.164   4.024  1.00  0.00     0.007 A 
HETATM   28  C   UNL     1      44.201 -19.237   4.861  1.00  0.00     0.001 A 
HETATM   29  C   UNL     1      44.111 -20.544   4.383  1.00  0.00     0.000 A 
HETATM   30  C   UNL     1      43.714 -20.776   3.067  1.00  0.00     0.001 A 
HETATM   31  C   UNL     1      43.402 -19.704   2.229  1.00  0.00     0.007 A 
ENDBRANCH  25  26
ENDBRANCH  24  25
ENDBRANCH  23  24
ENDBRANCH   1  23
TORSDOF 6
ENDMDL
MODEL 5
REMARK VINA RESULT:      -8.6      2.279      3.389
REMARK  6 active torsions:
REMARK  status: ('A' for Active; 'I' for Inactive)
REMARK    1  A    between atoms: C_4  and  C_5 
REMARK    2  A    between atoms: C_5  and  C_6 
REMARK    3  A    between atoms: C_6  and  C_7 
REMARK    4  A    between atoms: C_7  and  N_8 
REMARK    5  A    between atoms: C_11  and  C_13 
REMARK    6  A    between atoms: C_11  and  O_12 
ROOT
HETATM    1  N   UNL     1      42.088 -14.566   3.849  1.00  0.00    -0.314 N 
HETATM    2  C   UNL     1      41.625 -14.972   2.580  1.00  0.00     0.269 A 
HETATM    3  O   UNL     1      42.124 -15.849   1.889  1.00  0.00    -0.269 OA
HETATM    4  C   UNL     1      40.314 -14.164   2.295  1.00  0.00     0.198 A 
HETATM    5  C   UNL     1      40.225 -13.270   3.509  1.00  0.00     0.017 A 
HETATM    6  C   UNL     1      41.272 -13.563   4.390  1.00  0.00     0.047 A 
HETATM    7  C   UNL     1      39.263 -12.322   3.834  1.00  0.00     0.013 A 
HETATM    8  C   UNL     1      39.379 -11.651   5.051  1.00  0.00     0.001 A 
HETATM    9  C   UNL     1      40.438 -11.940   5.927  1.00  0.00     0.002 A 
HETATM   10  C   UNL     1      41.395 -12.905   5.601  1.00  0.00     0.030 A 
ENDROOT
BRANCH   4  11
HETATM   11  C   UNL     1      40.397 -13.290   1.070  1.00  0.00     0.018 A 
HETATM   12  C   UNL     1      40.005 -13.581  -0.289  1.00  0.00     0.002 A 
HETATM   13  C   UNL     1      40.267 -12.445  -1.058  1.00  0.00     0.043 A 
HETATM   14  C   UNL     1      39.458 -14.703  -0.945  1.00  0.00     0.014 A 
HETATM   15  C   UNL     1      40.007 -12.375  -2.433  1.00  0.00     0.030 A 
HETATM   16  N   UNL     1      40.794 -11.496  -0.217  1.00  0.00    -0.365 N 
HETATM   17  C   UNL     1      39.465 -13.504  -3.051  1.00  0.00     0.002 A 
HETATM   18  C   UNL     1      39.195 -14.655  -2.320  1.00  0.00     0.001 A 
HETATM   19  H   UNL     1      41.071 -10.568  -0.502  1.00  0.00     0.165 HD
HETATM   20  C   UNL     1      40.880 -11.988   1.052  1.00  0.00     0.100 A 
ENDBRANCH   4  11
BRANCH   4  21
HETATM   21  O   UNL     1      39.173 -15.024   2.275  1.00  0.00    -0.371 OA
HETATM   22  H   UNL     1      38.457 -14.520   1.857  1.00  0.00     0.212 HD
ENDBRANCH   4  21
BRANCH   1  23
HETATM   23  C   UNL     1      43.211 -15.192   4.512  1.00  0.00     0.133 C 
BRANCH  23  24
HETATM   24  C   UNL     1      42.848 -16.464   5.277  1.00  0.00     0.025 C 
BRANCH  24  25
HETATM   25  C   UNL     1      44.050 -17.379   5.514  1.00  0.00     0.040 C 
BRANCH  25  26
HETATM   26  C   UNL     1      43.977 -18.619   4.657  1.00  0.00    -0.058 A 
HETATM   27  C   UNL     1      43.785 -18.514   3.273  1.00  0.00     0.007 A 
HETATM   28  C   UNL     1      43.700 -19.659   2.481  1.00  0.00     0.001 A 
HETATM   29  C   UNL     1      43.796 -20.921   3.066  1.00  0.00     0.000 A 
HETATM   30  C   UNL     1      43.976 -21.036   4.443  1.00  0.00     0.001 A 
HETATM   31  C   UNL     1      44.065 -19.892   5.237  1.00  0.00     0.007 A 
ENDBRANCH  25  26
ENDBRANCH  24  25
ENDBRANCH  23  24
ENDBRANCH   1  23
TORSDOF 6
ENDMDL
MODEL 6
REMARK VINA RESULT:      -8.5      2.138      4.945
REMARK  6 active torsions:
REMARK  status: ('A' for Active; 'I' for Inactive)
REMARK    1  A    between atoms: C_4  and  C_5 
REMARK    2  A    between atoms: C_5  and  C_6 
REMARK    3  A    between atoms: C_6  and  C_7 
REMARK    4  A    between atoms: C_7  and  N_8 
REMARK    5  A    between atoms: C_11  and  C_13 
REMARK    6  A    between atoms: C_11  and  O_12 
ROOT
HETATM    1  N   UNL     1      41.462 -14.478   4.013  1.00  0.00    -0.314 N 
HETATM    2  C   UNL     1      42.643 -14.017   4.628  1.00  0.00     0.269 A 
HETATM    3  O   UNL     1      43.478 -14.720   5.180  1.00  0.00    -0.269 OA
HETATM    4  C   UNL     1      42.717 -12.473   4.371  1.00  0.00     0.198 A 
HETATM    5  C   UNL     1      41.420 -12.214   3.641  1.00  0.00     0.017 A 
HETATM    6  C   UNL     1      40.740 -13.420   3.441  1.00  0.00     0.047 A 
HETATM    7  C   UNL     1      40.916 -11.020   3.141  1.00  0.00     0.013 A 
HETATM    8  C   UNL     1      39.702 -11.050   2.454  1.00  0.00     0.001 A 
HETATM    9  C   UNL     1      39.018 -12.261   2.267  1.00  0.00     0.002 A 
HETATM   10  C   UNL     1      39.537 -13.462   2.760  1.00  0.00     0.030 A 
ENDROOT
BRANCH   4  11
HETATM   11  C   UNL     1      42.720 -11.649   5.633  1.00  0.00     0.018 A 
HETATM   12  C   UNL     1      43.836 -11.229   6.447  1.00  0.00     0.002 A 
HETATM   13  C   UNL     1      43.328 -10.471   7.505  1.00  0.00     0.043 A 
HETATM   14  C   UNL     1      45.232 -11.424   6.393  1.00  0.00     0.014 A 
HETATM   15  C   UNL     1      44.137  -9.901   8.495  1.00  0.00     0.030 A 
HETATM   16  N   UNL     1      41.964 -10.423   7.352  1.00  0.00    -0.365 N 
HETATM   17  C   UNL     1      45.515 -10.113   8.412  1.00  0.00     0.002 A 
HETATM   18  C   UNL     1      46.058 -10.865   7.377  1.00  0.00     0.001 A 
HETATM   19  H   UNL     1      41.335  -9.934   7.973  1.00  0.00     0.165 HD
HETATM   20  C   UNL     1      41.590 -11.124   6.244  1.00  0.00     0.100 A 
ENDBRANCH   4  11
BRANCH   4  21
HETATM   21  O   UNL     1      43.804 -12.147   3.503  1.00  0.00    -0.371 OA
HETATM   22  H   UNL     1      44.092 -12.980   3.099  1.00  0.00     0.212 HD
ENDBRANCH   4  21
BRANCH   1  23
HETATM   23  C   UNL     1      41.118 -15.881   3.926  1.00  0.00     0.133 C 
BRANCH  23  24
HETATM   24  C   UNL     1      41.439 -16.514   2.573  1.00  0.00     0.025 C 
BRANCH  24  25
HETATM   25  C   UNL     1      42.934 -16.767   2.375  1.00  0.00     0.040 C 
BRANCH  25  26
HETATM   26  C   UNL     1      43.338 -18.124   2.897  1.00  0.00    -0.058 A 
HETATM   27  C   UNL     1      43.178 -19.266   2.101  1.00  0.00     0.007 A 
HETATM   28  C   UNL     1      43.534 -20.525   2.587  1.00  0.00     0.001 A 
HETATM   29  C   UNL     1      44.044 -20.655   3.878  1.00  0.00     0.000 A 
HETATM   30  C   UNL     1      44.198 -19.527   4.681  1.00  0.00     0.001 A 
HETATM   31  C   UNL     1      43.845 -18.266   4.195  1.00  0.00     0.007 A 
ENDBRANCH  25  26
ENDBRANCH  24  25
ENDBRANCH  23  24
ENDBRANCH   1  23
TORSDOF 6
ENDMDL
MODEL 7
REMARK VINA RESULT:      -8.3      2.272      4.234
REMARK  6 active torsions:
REMARK  status: ('A' for Active; 'I' for Inactive)
REMARK    1  A    between atoms: C_4  and  C_5 
REMARK    2  A    between atoms: C_5  and  C_6 
REMARK    3  A    between atoms: C_6  and  C_7 
REMARK    4  A    between atoms: C_7  and  N_8 
REMARK    5  A    between atoms: C_11  and  C_13 
REMARK    6  A    between atoms: C_11  and  O_12 
ROOT
HETATM    1  N   UNL     1      41.600 -14.936   4.582  1.00  0.00    -0.314 N 
HETATM    2  C   UNL     1      42.336 -13.745   4.752  1.00  0.00     0.269 A 
HETATM    3  O   UNL     1      42.922 -13.412   5.773  1.00  0.00    -0.269 OA
HETATM    4  C   UNL     1      42.340 -13.011   3.368  1.00  0.00     0.198 A 
HETATM    5  C   UNL     1      41.469 -13.917   2.531  1.00  0.00     0.017 A 
HETATM    6  C   UNL     1      41.084 -15.033   3.282  1.00  0.00     0.047 A 
HETATM    7  C   UNL     1      41.100 -13.795   1.197  1.00  0.00     0.013 A 
HETATM    8  C   UNL     1      40.317 -14.801   0.631  1.00  0.00     0.001 A 
HETATM    9  C   UNL     1      39.924 -15.913   1.393  1.00  0.00     0.002 A 
HETATM   10  C   UNL     1      40.310 -16.038   2.731  1.00  0.00     0.030 A 
ENDROOT
BRANCH   4  11
HETATM   11  C   UNL     1      41.700 -11.647   3.406  1.00  0.00     0.018 A 
HETATM   12  C   UNL     1      40.593 -11.179   4.206  1.00  0.00     0.002 A 
HETATM   13  C   UNL     1      40.381  -9.834   3.892  1.00  0.00     0.043 A 
HETATM   14  C   UNL     1      39.741 -11.769   5.164  1.00  0.00     0.014 A 
HETATM   15  C   UNL     1      39.377  -9.059   4.486  1.00  0.00     0.030 A 
HETATM   16  N   UNL     1      41.313  -9.486   2.947  1.00  0.00    -0.365 N 
HETATM   17  C   UNL     1      38.552  -9.674   5.431  1.00  0.00     0.002 A 
HETATM   18  C   UNL     1      38.728 -11.012   5.765  1.00  0.00     0.001 A 
HETATM   19  H   UNL     1      41.400  -8.565   2.539  1.00  0.00     0.165 HD
HETATM   20  C   UNL     1      42.102 -10.557   2.646  1.00  0.00     0.100 A 
ENDBRANCH   4  11
BRANCH   4  21
HETATM   21  O   UNL     1      43.650 -12.985   2.802  1.00  0.00    -0.371 OA
HETATM   22  H   UNL     1      44.215 -13.509   3.392  1.00  0.00     0.212 HD
ENDBRANCH   4  21
BRANCH   1  23
HETATM   23  C   UNL     1      41.489 -15.944   5.614  1.00  0.00     0.133 C 
BRANCH  23  24
HETATM   24  C   UNL     1      42.785 -16.712   5.870  1.00  0.00     0.025 C 
BRANCH  24  25
HETATM   25  C   UNL     1      43.701 -16.756   4.647  1.00  0.00     0.040 C 
BRANCH  25  26
HETATM   26  C   UNL     1      43.695 -18.120   4.001  1.00  0.00    -0.058 A 
HETATM   27  C   UNL     1      43.255 -18.278   2.680  1.00  0.00     0.007 A 
HETATM   28  C   UNL     1      43.232 -19.541   2.087  1.00  0.00     0.001 A 
HETATM   29  C   UNL     1      43.640 -20.660   2.812  1.00  0.00     0.000 A 
HETATM   30  C   UNL     1      44.071 -20.514   4.129  1.00  0.00     0.001 A 
HETATM   31  C   UNL     1      44.098 -19.252   4.723  1.00  0.00     0.007 A 
ENDBRANCH  25  26
ENDBRANCH  24  25
ENDBRANCH  23  24
ENDBRANCH   1  23
TORSDOF 6
ENDMDL
MODEL 8
REMARK VINA RESULT:      -8.3      2.176      6.746
REMARK  6 active torsions:
REMARK  status: ('A' for Active; 'I' for Inactive)
REMARK    1  A    between atoms: C_4  and  C_5 
REMARK    2  A    between atoms: C_5  and  C_6 
REMARK    3  A    between atoms: C_6  and  C_7 
REMARK    4  A    between atoms: C_7  and  N_8 
REMARK    5  A    between atoms: C_11  and  C_13 
REMARK    6  A    between atoms: C_11  and  O_12 
ROOT
HETATM    1  N   UNL     1      41.050 -15.279   2.574  1.00  0.00    -0.314 N 
HETATM    2  C   UNL     1      40.600 -14.732   3.793  1.00  0.00     0.269 A 
HETATM    3  O   UNL     1      39.782 -13.831   3.909  1.00  0.00    -0.269 OA
HETATM    4  C   UNL     1      41.264 -15.569   4.939  1.00  0.00     0.198 A 
HETATM    5  C   UNL     1      42.142 -16.523   4.163  1.00  0.00     0.017 A 
HETATM    6  C   UNL     1      41.960 -16.323   2.790  1.00  0.00     0.047 A 
HETATM    7  C   UNL     1      42.982 -17.524   4.633  1.00  0.00     0.013 A 
HETATM    8  C   UNL     1      43.659 -18.312   3.701  1.00  0.00     0.001 A 
HETATM    9  C   UNL     1      43.483 -18.099   2.324  1.00  0.00     0.002 A 
HETATM   10  C   UNL     1      42.625 -17.099   1.857  1.00  0.00     0.030 A 
ENDROOT
BRANCH   4  11
HETATM   11  C   UNL     1      42.145 -14.754   5.850  1.00  0.00     0.018 A 
HETATM   12  C   UNL     1      42.930 -13.580   5.551  1.00  0.00     0.002 A 
HETATM   13  C   UNL     1      43.564 -13.181   6.731  1.00  0.00     0.043 A 
HETATM   14  C   UNL     1      43.172 -12.817   4.389  1.00  0.00     0.014 A 
HETATM   15  C   UNL     1      44.411 -12.068   6.806  1.00  0.00     0.030 A 
HETATM   16  N   UNL     1      43.188 -14.064   7.713  1.00  0.00    -0.365 N 
HETATM   17  C   UNL     1      44.628 -11.335   5.637  1.00  0.00     0.002 A 
HETATM   18  C   UNL     1      44.020 -11.704   4.443  1.00  0.00     0.001 A 
HETATM   19  H   UNL     1      43.491 -14.014   8.675  1.00  0.00     0.165 HD
HETATM   20  C   UNL     1      42.347 -15.007   7.200  1.00  0.00     0.100 A 
ENDBRANCH   4  11
BRANCH   4  21
HETATM   21  O   UNL     1      40.289 -16.326   5.656  1.00  0.00    -0.371 OA
HETATM   22  H   UNL     1      39.696 -15.683   6.076  1.00  0.00     0.212 HD
ENDBRANCH   4  21
BRANCH   1  23
HETATM   23  C   UNL     1      40.546 -14.848   1.287  1.00  0.00     0.133 C 
BRANCH  23  24
HETATM   24  C   UNL     1      41.415 -13.795   0.603  1.00  0.00     0.025 C 
BRANCH  24  25
HETATM   25  C   UNL     1      40.602 -12.632   0.034  1.00  0.00     0.040 C 
BRANCH  25  26
HETATM   26  C   UNL     1      39.651 -13.098  -1.041  1.00  0.00    -0.058 A 
HETATM   27  C   UNL     1      40.076 -14.010  -2.017  1.00  0.00     0.007 A 
HETATM   28  C   UNL     1      39.204 -14.429  -3.023  1.00  0.00     0.001 A 
HETATM   29  C   UNL     1      37.902 -13.934  -3.068  1.00  0.00     0.000 A 
HETATM   30  C   UNL     1      37.473 -13.020  -2.108  1.00  0.00     0.001 A 
HETATM   31  C   UNL     1      38.342 -12.601  -1.099  1.00  0.00     0.007 A 
ENDBRANCH  25  26
ENDBRANCH  24  25
ENDBRANCH  23  24
ENDBRANCH   1  23
TORSDOF 6
ENDMDL
MODEL 9
REMARK VINA RESULT:      -8.2      2.438      4.169
REMARK  6 active torsions:
REMARK  status: ('A' for Active; 'I' for Inactive)
REMARK    1  A    between atoms: C_4  and  C_5 
REMARK    2  A    between atoms: C_5  and  C_6 
REMARK    3  A    between atoms: C_6  and  C_7 
REMARK    4  A    between atoms: C_7  and  N_8 
REMARK    5  A    between atoms: C_11  and  C_13 
REMARK    6  A    between atoms: C_11  and  O_12 
ROOT
HETATM    1  N   UNL     1      42.200 -14.047   2.525  1.00  0.00    -0.314 N 
HETATM    2  C   UNL     1      41.092 -13.646   1.749  1.00  0.00     0.269 A 
HETATM    3  O   UNL     1      41.074 -13.556   0.530  1.00  0.00    -0.269 OA
HETATM    4  C   UNL     1      39.893 -13.450   2.738  1.00  0.00     0.198 A 
HETATM    5  C   UNL     1      40.541 -13.716   4.075  1.00  0.00     0.017 A 
HETATM    6  C   UNL     1      41.879 -14.080   3.889  1.00  0.00     0.047 A 
HETATM    7  C   UNL     1      39.978 -13.699   5.345  1.00  0.00     0.013 A 
HETATM    8  C   UNL     1      40.785 -14.031   6.433  1.00  0.00     0.001 A 
HETATM    9  C   UNL     1      42.131 -14.385   6.241  1.00  0.00     0.002 A 
HETATM   10  C   UNL     1      42.689 -14.414   4.960  1.00  0.00     0.030 A 
ENDROOT
BRANCH   4  11
HETATM   11  C   UNL     1      39.344 -12.046   2.752  1.00  0.00     0.018 A 
HETATM   12  C   UNL     1      39.965 -10.828   3.216  1.00  0.00     0.002 A 
HETATM   13  C   UNL     1      39.059  -9.785   3.006  1.00  0.00     0.043 A 
HETATM   14  C   UNL     1      41.207 -10.508   3.802  1.00  0.00     0.014 A 
HETATM   15  C   UNL     1      39.335  -8.453   3.344  1.00  0.00     0.030 A 
HETATM   16  N   UNL     1      37.934 -10.330   2.438  1.00  0.00    -0.365 N 
HETATM   17  C   UNL     1      40.575  -8.171   3.922  1.00  0.00     0.002 A 
HETATM   18  C   UNL     1      41.499  -9.183   4.151  1.00  0.00     0.001 A 
HETATM   19  H   UNL     1      37.115  -9.804   2.171  1.00  0.00     0.165 HD
HETATM   20  C   UNL     1      38.090 -11.676   2.285  1.00  0.00     0.100 A 
ENDBRANCH   4  11
BRANCH   4  21
HETATM   21  O   UNL     1      38.878 -14.431   2.518  1.00  0.00    -0.371 OA
HETATM   22  H   UNL     1      39.330 -15.289   2.480  1.00  0.00     0.212 HD
ENDBRANCH   4  21
BRANCH   1  23
HETATM   23  C   UNL     1      43.461 -14.450   1.941  1.00  0.00     0.133 C 
BRANCH  23  24
HETATM   24  C   UNL     1      43.501 -15.914   1.505  1.00  0.00     0.025 C 
BRANCH  24  25
HETATM   25  C   UNL     1      42.424 -16.764   2.179  1.00  0.00     0.040 C 
BRANCH  25  26
HETATM   26  C   UNL     1      43.021 -17.975   2.854  1.00  0.00    -0.058 A 
HETATM   27  C   UNL     1      43.554 -17.876   4.146  1.00  0.00     0.007 A 
HETATM   28  C   UNL     1      44.121 -18.990   4.766  1.00  0.00     0.001 A 
HETATM   29  C   UNL     1      44.171 -20.212   4.096  1.00  0.00     0.000 A 
HETATM   30  C   UNL     1      43.652 -20.318   2.807  1.00  0.00     0.001 A 
HETATM   31  C   UNL     1      43.081 -19.206   2.187  1.00  0.00     0.007 A 
ENDBRANCH  25  26
ENDBRANCH  24  25
ENDBRANCH  23  24
ENDBRANCH   1  23
TORSDOF 6
ENDMDL
MODEL 10
REMARK VINA RESULT:      -8.1      2.857      4.477
REMARK  6 active torsions:
REMARK  status: ('A' for Active; 'I' for Inactive)
REMARK    1  A    between atoms: C_4  and  C_5 
REMARK    2  A    between atoms: C_5  and  C_6 
REMARK    3  A    between atoms: C_6  and  C_7 
REMARK    4  A    between atoms: C_7  and  N_8 
REMARK    5  A    between atoms: C_11  and  C_13 
REMARK    6  A    between atoms: C_11  and  O_12 
ROOT
HETATM    1  N   UNL     1      41.700 -14.776   1.662  1.00  0.00    -0.314 N 
HETATM    2  C   UNL     1      40.373 -14.701   1.191  1.00  0.00     0.269 A 
HETATM    3  O   UNL     1      39.824 -15.530   0.478  1.00  0.00    -0.269 OA
HETATM    4  C   UNL     1      39.731 -13.428   1.841  1.00  0.00     0.198 A 
HETATM    5  C   UNL     1      40.895 -12.847   2.608  1.00  0.00     0.017 A 
HETATM    6  C   UNL     1      42.009 -13.685   2.486  1.00  0.00     0.047 A 
HETATM    7  C   UNL     1      40.944 -11.707   3.400  1.00  0.00     0.013 A 
HETATM    8  C   UNL     1      42.140 -11.403   4.051  1.00  0.00     0.001 A 
HETATM    9  C   UNL     1      43.259 -12.241   3.915  1.00  0.00     0.002 A 
HETATM   10  C   UNL     1      43.199 -13.395   3.129  1.00  0.00     0.030 A 
ENDROOT
BRANCH   4  11
HETATM   11  C   UNL     1      39.271 -12.404   0.836  1.00  0.00     0.018 A 
HETATM   12  C   UNL     1      39.836 -12.068  -0.450  1.00  0.00     0.002 A 
HETATM   13  C   UNL     1      39.044 -11.063  -1.011  1.00  0.00     0.043 A 
HETATM   14  C   UNL     1      40.949 -12.514  -1.192  1.00  0.00     0.014 A 
HETATM   15  C   UNL     1      39.304 -10.495  -2.265  1.00  0.00     0.030 A 
HETATM   16  N   UNL     1      38.037 -10.791  -0.118  1.00  0.00    -0.365 N 
HETATM   17  C   UNL     1      40.414 -10.961  -2.973  1.00  0.00     0.002 A 
HETATM   18  C   UNL     1      41.228 -11.955  -2.446  1.00  0.00     0.001 A 
HETATM   19  H   UNL     1      37.308 -10.108  -0.266  1.00  0.00     0.165 HD
HETATM   20  C   UNL     1      38.164 -11.580   0.987  1.00  0.00     0.100 A 
ENDBRANCH   4  11
BRANCH   4  21
HETATM   21  O   UNL     1      38.704 -13.784   2.767  1.00  0.00    -0.371 OA
HETATM   22  H   UNL     1      38.683 -13.082   3.436  1.00  0.00     0.212 HD
ENDBRANCH   4  21
BRANCH   1  23
HETATM   23  C   UNL     1      42.571 -15.897   1.380  1.00  0.00     0.133 C 
BRANCH  23  24
HETATM   24  C   UNL     1      42.355 -17.095   2.302  1.00  0.00     0.025 C 
BRANCH  24  25
HETATM   25  C   UNL     1      43.548 -17.361   3.220  1.00  0.00     0.040 C 
BRANCH  25  26
HETATM   26  C   UNL     1      43.289 -16.862   4.621  1.00  0.00    -0.058 A 
HETATM   27  C   UNL     1      44.324 -16.830   5.565  1.00  0.00     0.007 A 
HETATM   28  C   UNL     1      44.083 -16.385   6.866  1.00  0.00     0.001 A 
HETATM   29  C   UNL     1      42.803 -15.977   7.238  1.00  0.00     0.000 A 
HETATM   30  C   UNL     1      41.765 -16.014   6.308  1.00  0.00     0.001 A 
HETATM   31  C   UNL     1      42.005 -16.455   5.006  1.00  0.00     0.007 A 
ENDBRANCH  25  26
ENDBRANCH  24  25
ENDBRANCH  23  24
ENDBRANCH   1  23
TORSDOF 6
ENDMDL
