MODEL 1
REMARK VINA RESULT:      -8.4      0.000      0.000
REMARK  5 active torsions:
REMARK  status: ('A' for Active; 'I' for Inactive)
REMARK    1  A    between atoms: C_4  and  C_5 
REMARK    2  A    between atoms: C_5  and  C_6 
REMARK    3  A    between atoms: C_6  and  C_7 
REMARK       I    between atoms: C_7  and  N_8 
REMARK    4  A    between atoms: N_8  and  C_9 
REMARK    5  A    between atoms: C_11  and  C_12 
ROOT
HETATM    1  C   UNL     1      43.231 -15.374   3.760  1.00  0.00     0.035 A 
HETATM    2  C   UNL     1      43.473 -16.717   4.065  1.00  0.00     0.042 A 
HETATM    3  C   UNL     1      43.486 -17.704   3.063  1.00  0.00    -0.021 A 
HETATM    4  C   UNL     1      43.251 -17.313   1.738  1.00  0.00     0.012 A 
HETATM    5  C   UNL     1      43.014 -15.976   1.421  1.00  0.00     0.003 A 
HETATM    6  C   UNL     1      43.005 -15.011   2.428  1.00  0.00     0.029 A 
ENDROOT
BRANCH   1   7
HETATM    7  N   UNL     1      43.189 -14.342   4.718  1.00  0.00    -0.327 N 
HETATM    8  C   UNL     1      42.086 -13.649   5.177  1.00  0.00     0.222 C 
HETATM    9  O   UNL     1      40.916 -13.834   4.858  1.00  0.00    -0.273 OA
HETATM   10  H   UNL     1      44.075 -14.100   5.154  1.00  0.00     0.169 HD
BRANCH   8  11
HETATM   11  C   UNL     1      42.443 -12.562   6.174  1.00  0.00     0.110 C 
BRANCH  11  12
HETATM   12  C   UNL     1      43.641 -12.942   7.034  1.00  0.00     0.074 C 
BRANCH  12  13
HETATM   13  C   UNL     1      44.514 -11.806   7.445  1.00  0.00     0.053 A 
HETATM   14  O   UNL     1      44.408 -11.346   8.726  1.00  0.00    -0.320 OA
HETATM   15  C   UNL     1      45.301 -10.325   8.862  1.00  0.00     0.049 A 
HETATM   16  C   UNL     1      45.361  -9.668  10.183  1.00  0.00     0.076 C 
HETATM   17  C   UNL     1      45.983 -10.131   7.682  1.00  0.00     0.035 A 
HETATM   18  C   UNL     1      45.476 -11.084   6.767  1.00  0.00     0.035 A 
ENDBRANCH  12  13
ENDBRANCH  11  12
ENDBRANCH   8  11
ENDBRANCH   1   7
BRANCH   3  19
HETATM   19  C   UNL     1      43.740 -19.106   3.377  1.00  0.00     0.010 A 
HETATM   20  C   UNL     1      43.649 -20.269   2.573  1.00  0.00     0.152 A 
HETATM   21  N   UNL     1      43.962 -21.389   3.231  1.00  0.00    -0.187 NA
HETATM   22  N   UNL     1      44.260 -20.949   4.464  1.00  0.00    -0.289 N 
HETATM   23  H   UNL     1      44.537 -21.629   5.164  1.00  0.00     0.188 HD
HETATM   24  C   UNL     1      44.137 -19.598   4.604  1.00  0.00     0.123 A 
ENDBRANCH   3  19
TORSDOF 5
ENDMDL
MODEL 2
REMARK VINA RESULT:      -8.0      3.001      8.494
REMARK  5 active torsions:
REMARK  status: ('A' for Active; 'I' for Inactive)
REMARK    1  A    between atoms: C_4  and  C_5 
REMARK    2  A    between atoms: C_5  and  C_6 
REMARK    3  A    between atoms: C_6  and  C_7 
REMARK       I    between atoms: C_7  and  N_8 
REMARK    4  A    between atoms: N_8  and  C_9 
REMARK    5  A    between atoms: C_11  and  C_12 
ROOT
HETATM    1  C   UNL     1      43.130 -13.527   6.326  1.00  0.00     0.035 A 
HETATM    2  C   UNL     1      44.072 -12.607   6.801  1.00  0.00     0.042 A 
HETATM    3  C   UNL     1      43.766 -11.237   6.908  1.00  0.00    -0.021 A 
HETATM    4  C   UNL     1      42.488 -10.807   6.528  1.00  0.00     0.012 A 
HETATM    5  C   UNL     1      41.540 -11.716   6.058  1.00  0.00     0.003 A 
HETATM    6  C   UNL     1      41.860 -13.069   5.959  1.00  0.00     0.029 A 
ENDROOT
BRANCH   1   7
HETATM    7  N   UNL     1      43.379 -14.905   6.180  1.00  0.00    -0.327 N 
HETATM    8  C   UNL     1      43.325 -15.889   7.148  1.00  0.00     0.222 C 
HETATM    9  O   UNL     1      43.007 -15.747   8.325  1.00  0.00    -0.273 OA
HETATM   10  H   UNL     1      43.588 -15.224   5.238  1.00  0.00     0.169 HD
BRANCH   8  11
HETATM   11  C   UNL     1      43.714 -17.259   6.623  1.00  0.00     0.110 C 
BRANCH  11  12
HETATM   12  C   UNL     1      44.564 -17.170   5.363  1.00  0.00     0.074 C 
BRANCH  12  13
HETATM   13  C   UNL     1      43.904 -17.652   4.116  1.00  0.00     0.053 A 
HETATM   14  O   UNL     1      44.178 -18.922   3.695  1.00  0.00    -0.320 OA
HETATM   15  C   UNL     1      43.460 -19.131   2.556  1.00  0.00     0.049 A 
HETATM   16  C   UNL     1      43.601 -20.454   1.915  1.00  0.00     0.076 C 
HETATM   17  C   UNL     1      42.724 -18.009   2.246  1.00  0.00     0.035 A 
HETATM   18  C   UNL     1      43.011 -17.055   3.251  1.00  0.00     0.035 A 
ENDBRANCH  12  13
ENDBRANCH  11  12
ENDBRANCH   8  11
ENDBRANCH   1   7
BRANCH   3  19
HETATM   19  C   UNL     1      44.745 -10.276   7.405  1.00  0.00     0.010 A 
HETATM   20  C   UNL     1      44.573  -9.024   8.045  1.00  0.00     0.152 A 
HETATM   21  N   UNL     1      45.729  -8.427   8.350  1.00  0.00    -0.187 NA
HETATM   22  N   UNL     1      46.651  -9.296   7.910  1.00  0.00    -0.289 N 
HETATM   23  H   UNL     1      47.631  -9.063   8.032  1.00  0.00     0.188 HD
HETATM   24  C   UNL     1      46.116 -10.411   7.333  1.00  0.00     0.123 A 
ENDBRANCH   3  19
TORSDOF 5
ENDMDL
MODEL 3
REMARK VINA RESULT:      -7.8      3.919      7.375
REMARK  5 active torsions:
REMARK  status: ('A' for Active; 'I' for Inactive)
REMARK    1  A    between atoms: C_4  and  C_5 
REMARK    2  A    between atoms: C_5  and  C_6 
REMARK    3  A    between atoms: C_6  and  C_7 
REMARK       I    between atoms: C_7  and  N_8 
REMARK    4  A    between atoms: N_8  and  C_9 
REMARK    5  A    between atoms: C_11  and  C_12 
ROOT
HETATM    1  C   UNL     1      42.479 -15.752   3.278  1.00  0.00     0.035 A 
HETATM    2  C   UNL     1      42.760 -17.109   3.084  1.00  0.00     0.042 A 
HETATM    3  C   UNL     1      43.465 -17.855   4.046  1.00  0.00    -0.021 A 
HETATM    4  C   UNL     1      43.886 -17.208   5.215  1.00  0.00     0.012 A 
HETATM    5  C   UNL     1      43.609 -15.856   5.421  1.00  0.00     0.003 A 
HETATM    6  C   UNL     1      42.908 -15.134   4.457  1.00  0.00     0.029 A 
ENDROOT
BRANCH   1   7
HETATM    7  N   UNL     1      41.793 -14.948   2.348  1.00  0.00    -0.327 N 
HETATM    8  C   UNL     1      40.455 -14.991   2.007  1.00  0.00     0.222 C 
HETATM    9  O   UNL     1      39.596 -15.724   2.487  1.00  0.00    -0.273 OA
HETATM   10  H   UNL     1      42.340 -14.219   1.897  1.00  0.00     0.169 HD
BRANCH   8  11
HETATM   11  C   UNL     1      40.089 -13.999   0.917  1.00  0.00     0.110 C 
BRANCH  11  12
HETATM   12  C   UNL     1      40.324 -14.567  -0.477  1.00  0.00     0.074 C 
BRANCH  12  13
HETATM   13  C   UNL     1      39.293 -14.205  -1.492  1.00  0.00     0.053 A 
HETATM   14  O   UNL     1      38.644 -13.011  -1.349  1.00  0.00    -0.320 OA
HETATM   15  C   UNL     1      37.770 -12.903  -2.388  1.00  0.00     0.049 A 
HETATM   16  C   UNL     1      36.949 -11.677  -2.441  1.00  0.00     0.076 C 
HETATM   17  C   UNL     1      37.856 -14.014  -3.199  1.00  0.00     0.035 A 
HETATM   18  C   UNL     1      38.837 -14.853  -2.621  1.00  0.00     0.035 A 
ENDBRANCH  12  13
ENDBRANCH  11  12
ENDBRANCH   8  11
ENDBRANCH   1   7
BRANCH   3  19
HETATM   19  C   UNL     1      43.757 -19.271   3.848  1.00  0.00     0.010 A 
HETATM   20  C   UNL     1      43.711 -20.074   2.681  1.00  0.00     0.152 A 
HETATM   21  N   UNL     1      44.049 -21.347   2.906  1.00  0.00    -0.187 NA
HETATM   22  N   UNL     1      44.318 -21.367   4.221  1.00  0.00    -0.289 N 
HETATM   23  H   UNL     1      44.607 -22.245   4.640  1.00  0.00     0.188 HD
HETATM   24  C   UNL     1      44.154 -20.157   4.829  1.00  0.00     0.123 A 
ENDBRANCH   3  19
TORSDOF 5
ENDMDL
MODEL 4
REMARK VINA RESULT:      -7.6      3.659      4.976
REMARK  5 active torsions:
REMARK  status: ('A' for Active; 'I' for Inactive)
REMARK    1  A    between atoms: C_4  and  C_5 
REMARK    2  A    between atoms: C_5  and  C_6 
REMARK    3  A    between atoms: C_6  and  C_7 
REMARK       I    between atoms: C_7  and  N_8 
REMARK    4  A    between atoms: N_8  and  C_9 
REMARK    5  A    between atoms: C_11  and  C_12 
ROOT
HETATM    1  C   UNL     1      42.479 -15.707   2.347  1.00  0.00     0.035 A 
HETATM    2  C   UNL     1      42.777 -17.073   2.332  1.00  0.00     0.042 A 
HETATM    3  C   UNL     1      43.379 -17.703   3.437  1.00  0.00    -0.021 A 
HETATM    4  C   UNL     1      43.677 -16.929   4.566  1.00  0.00     0.012 A 
HETATM    5  C   UNL     1      43.380 -15.566   4.594  1.00  0.00     0.003 A 
HETATM    6  C   UNL     1      42.783 -14.959   3.490  1.00  0.00     0.029 A 
ENDROOT
BRANCH   1   7
HETATM    7  N   UNL     1      41.892 -15.015   1.270  1.00  0.00    -0.327 N 
HETATM    8  C   UNL     1      40.608 -15.135   0.777  1.00  0.00     0.222 C 
HETATM    9  O   UNL     1      39.714 -15.851   1.219  1.00  0.00    -0.273 OA
HETATM   10  H   UNL     1      42.473 -14.312   0.820  1.00  0.00     0.169 HD
BRANCH   8  11
HETATM   11  C   UNL     1      40.355 -14.261  -0.438  1.00  0.00     0.110 C 
BRANCH  11  12
HETATM   12  C   UNL     1      39.690 -12.942  -0.067  1.00  0.00     0.074 C 
BRANCH  12  13
HETATM   13  C   UNL     1      40.054 -12.403   1.274  1.00  0.00     0.053 A 
HETATM   14  O   UNL     1      41.343 -11.999   1.475  1.00  0.00    -0.320 OA
HETATM   15  C   UNL     1      41.426 -11.543   2.756  1.00  0.00     0.049 A 
HETATM   16  C   UNL     1      42.745 -11.049   3.201  1.00  0.00     0.076 C 
HETATM   17  C   UNL     1      40.201 -11.645   3.377  1.00  0.00     0.035 A 
HETATM   18  C   UNL     1      39.316 -12.200   2.422  1.00  0.00     0.035 A 
ENDBRANCH  12  13
ENDBRANCH  11  12
ENDBRANCH   8  11
ENDBRANCH   1   7
BRANCH   3  19
HETATM   19  C   UNL     1      43.689 -19.129   3.425  1.00  0.00     0.010 A 
HETATM   20  C   UNL     1      43.638 -20.081   2.377  1.00  0.00     0.152 A 
HETATM   21  N   UNL     1      43.999 -21.308   2.764  1.00  0.00    -0.187 NA
HETATM   22  N   UNL     1      44.288 -21.148   4.065  1.00  0.00    -0.289 N 
HETATM   23  H   UNL     1      44.597 -21.958   4.593  1.00  0.00     0.188 HD
HETATM   24  C   UNL     1      44.114 -19.870   4.509  1.00  0.00     0.123 A 
ENDBRANCH   3  19
TORSDOF 5
ENDMDL
MODEL 5
REMARK VINA RESULT:      -7.4      3.305      5.674
REMARK  5 active torsions:
REMARK  status: ('A' for Active; 'I' for Inactive)
REMARK    1  A    between atoms: C_4  and  C_5 
REMARK    2  A    between atoms: C_5  and  C_6 
REMARK    3  A    between atoms: C_6  and  C_7 
REMARK       I    between atoms: C_7  and  N_8 
REMARK    4  A    between atoms: N_8  and  C_9 
REMARK    5  A    between atoms: C_11  and  C_12 
ROOT
HETATM    1  C   UNL     1      42.857 -15.402   4.682  1.00  0.00     0.035 A 
HETATM    2  C   UNL     1      42.853 -16.581   3.927  1.00  0.00     0.042 A 
HETATM    3  C   UNL     1      43.635 -17.690   4.299  1.00  0.00    -0.021 A 
HETATM    4  C   UNL     1      44.426 -17.593   5.452  1.00  0.00     0.012 A 
HETATM    5  C   UNL     1      44.434 -16.425   6.214  1.00  0.00     0.003 A 
HETATM    6  C   UNL     1      43.653 -15.336   5.831  1.00  0.00     0.029 A 
ENDROOT
BRANCH   1   7
HETATM    7  N   UNL     1      42.111 -14.253   4.355  1.00  0.00    -0.327 N 
HETATM    8  C   UNL     1      40.912 -13.833   4.897  1.00  0.00     0.222 C 
HETATM    9  O   UNL     1      40.286 -14.370   5.805  1.00  0.00    -0.273 OA
HETATM   10  H   UNL     1      42.522 -13.636   3.660  1.00  0.00     0.169 HD
BRANCH   8  11
HETATM   11  C   UNL     1      40.380 -12.568   4.247  1.00  0.00     0.110 C 
BRANCH  11  12
HETATM   12  C   UNL     1      39.275 -12.863   3.240  1.00  0.00     0.074 C 
BRANCH  12  13
HETATM   13  C   UNL     1      39.740 -13.375   1.919  1.00  0.00     0.053 A 
HETATM   14  O   UNL     1      40.015 -12.465   0.939  1.00  0.00    -0.320 OA
HETATM   15  C   UNL     1      40.425 -13.165  -0.156  1.00  0.00     0.049 A 
HETATM   16  C   UNL     1      40.780 -12.378  -1.354  1.00  0.00     0.076 C 
HETATM   17  C   UNL     1      40.422 -14.515   0.116  1.00  0.00     0.035 A 
HETATM   18  C   UNL     1      39.979 -14.651   1.453  1.00  0.00     0.035 A 
ENDBRANCH  12  13
ENDBRANCH  11  12
ENDBRANCH   8  11
ENDBRANCH   1   7
BRANCH   3  19
HETATM   19  C   UNL     1      43.631 -18.921   3.516  1.00  0.00     0.010 A 
HETATM   20  C   UNL     1      44.011 -20.241   3.861  1.00  0.00     0.152 A 
HETATM   21  N   UNL     1      43.867 -21.109   2.855  1.00  0.00    -0.187 NA
HETATM   22  N   UNL     1      43.389 -20.349   1.858  1.00  0.00    -0.289 N 
HETATM   23  H   UNL     1      43.191 -20.792   0.966  1.00  0.00     0.188 HD
HETATM   24  C   UNL     1      43.236 -19.036   2.199  1.00  0.00     0.123 A 
ENDBRANCH   3  19
TORSDOF 5
ENDMDL
MODEL 6
REMARK VINA RESULT:      -7.3      3.332      9.318
REMARK  5 active torsions:
REMARK  status: ('A' for Active; 'I' for Inactive)
REMARK    1  A    between atoms: C_4  and  C_5 
REMARK    2  A    between atoms: C_5  and  C_6 
REMARK    3  A    between atoms: C_6  and  C_7 
REMARK       I    between atoms: C_7  and  N_8 
REMARK    4  A    between atoms: N_8  and  C_9 
REMARK    5  A    between atoms: C_11  and  C_12 
ROOT
HETATM    1  C   UNL     1      44.499 -11.514   7.347  1.00  0.00     0.035 A 
HETATM    2  C   UNL     1      43.876 -11.060   8.514  1.00  0.00     0.042 A 
HETATM    3  C   UNL     1      44.517 -10.159   9.383  1.00  0.00    -0.021 A 
HETATM    4  C   UNL     1      45.807  -9.719   9.055  1.00  0.00     0.012 A 
HETATM    5  C   UNL     1      46.437 -10.162   7.892  1.00  0.00     0.003 A 
HETATM    6  C   UNL     1      45.785 -11.054   7.042  1.00  0.00     0.029 A 
ENDROOT
BRANCH   1   7
HETATM    7  N   UNL     1      43.918 -12.427   6.445  1.00  0.00    -0.327 N 
HETATM    8  C   UNL     1      43.464 -13.706   6.700  1.00  0.00     0.222 C 
HETATM    9  O   UNL     1      43.447 -14.278   7.786  1.00  0.00    -0.273 OA
HETATM   10  H   UNL     1      43.781 -12.091   5.495  1.00  0.00     0.169 HD
BRANCH   8  11
HETATM   11  C   UNL     1      42.950 -14.411   5.458  1.00  0.00     0.110 C 
BRANCH  11  12
HETATM   12  C   UNL     1      43.255 -15.903   5.478  1.00  0.00     0.074 C 
BRANCH  12  13
HETATM   13  C   UNL     1      43.238 -16.572   4.146  1.00  0.00     0.053 A 
HETATM   14  O   UNL     1      43.604 -17.887   4.083  1.00  0.00    -0.320 OA
HETATM   15  C   UNL     1      43.500 -18.271   2.780  1.00  0.00     0.049 A 
HETATM   16  C   UNL     1      43.850 -19.672   2.471  1.00  0.00     0.076 C 
HETATM   17  C   UNL     1      43.066 -17.217   2.008  1.00  0.00     0.035 A 
HETATM   18  C   UNL     1      42.898 -16.121   2.887  1.00  0.00     0.035 A 
ENDBRANCH  12  13
ENDBRANCH  11  12
ENDBRANCH   8  11
ENDBRANCH   1   7
BRANCH   3  19
HETATM   19  C   UNL     1      43.869  -9.681  10.600  1.00  0.00     0.010 A 
HETATM   20  C   UNL     1      43.583  -8.366  11.044  1.00  0.00     0.152 A 
HETATM   21  N   UNL     1      42.973  -8.335  12.232  1.00  0.00    -0.187 NA
HETATM   22  N   UNL     1      42.861  -9.632  12.557  1.00  0.00    -0.289 N 
HETATM   23  H   UNL     1      42.418  -9.873  13.437  1.00  0.00     0.188 HD
HETATM   24  C   UNL     1      43.385 -10.475  11.619  1.00  0.00     0.123 A 
ENDBRANCH   3  19
TORSDOF 5
ENDMDL
MODEL 7
REMARK VINA RESULT:      -7.3      4.577      7.936
REMARK  5 active torsions:
REMARK  status: ('A' for Active; 'I' for Inactive)
REMARK    1  A    between atoms: C_4  and  C_5 
REMARK    2  A    between atoms: C_5  and  C_6 
REMARK    3  A    between atoms: C_6  and  C_7 
REMARK       I    between atoms: C_7  and  N_8 
REMARK    4  A    between atoms: N_8  and  C_9 
REMARK    5  A    between atoms: C_11  and  C_12 
ROOT
HETATM    1  C   UNL     1      42.629 -15.935   2.354  1.00  0.00     0.035 A 
HETATM    2  C   UNL     1      42.672 -15.644   3.722  1.00  0.00     0.042 A 
HETATM    3  C   UNL     1      43.207 -16.558   4.648  1.00  0.00    -0.021 A 
HETATM    4  C   UNL     1      43.704 -17.779   4.170  1.00  0.00     0.012 A 
HETATM    5  C   UNL     1      43.670 -18.078   2.808  1.00  0.00     0.003 A 
HETATM    6  C   UNL     1      43.137 -17.159   1.905  1.00  0.00     0.029 A 
ENDROOT
BRANCH   1   7
HETATM    7  N   UNL     1      42.093 -15.071   1.380  1.00  0.00    -0.327 N 
HETATM    8  C   UNL     1      40.787 -14.989   0.939  1.00  0.00     0.222 C 
HETATM    9  O   UNL     1      39.829 -15.636   1.351  1.00  0.00    -0.273 OA
HETATM   10  H   UNL     1      42.739 -14.399   0.974  1.00  0.00     0.169 HD
BRANCH   8  11
HETATM   11  C   UNL     1      40.598 -13.969  -0.170  1.00  0.00     0.110 C 
BRANCH  11  12
HETATM   12  C   UNL     1      39.520 -14.391  -1.159  1.00  0.00     0.074 C 
BRANCH  12  13
HETATM   13  C   UNL     1      38.800 -13.270  -1.829  1.00  0.00     0.053 A 
HETATM   14  O   UNL     1      39.538 -12.214  -2.282  1.00  0.00    -0.320 OA
HETATM   15  C   UNL     1      38.670 -11.335  -2.857  1.00  0.00     0.049 A 
HETATM   16  C   UNL     1      39.252 -10.101  -3.423  1.00  0.00     0.076 C 
HETATM   17  C   UNL     1      37.384 -11.821  -2.782  1.00  0.00     0.035 A 
HETATM   18  C   UNL     1      37.466 -13.068  -2.119  1.00  0.00     0.035 A 
ENDBRANCH  12  13
ENDBRANCH  11  12
ENDBRANCH   8  11
ENDBRANCH   1   7
BRANCH   3  19
HETATM   19  C   UNL     1      43.255 -16.257   6.074  1.00  0.00     0.010 A 
HETATM   20  C   UNL     1      43.004 -15.053   6.778  1.00  0.00     0.152 A 
HETATM   21  N   UNL     1      43.158 -15.175   8.099  1.00  0.00    -0.187 NA
HETATM   22  N   UNL     1      43.506 -16.462   8.252  1.00  0.00    -0.289 N 
HETATM   23  H   UNL     1      43.680 -16.806   9.191  1.00  0.00     0.188 HD
HETATM   24  C   UNL     1      43.584 -17.148   7.075  1.00  0.00     0.123 A 
ENDBRANCH   3  19
TORSDOF 5
ENDMDL
MODEL 8
REMARK VINA RESULT:      -7.3      4.402      7.532
REMARK  5 active torsions:
REMARK  status: ('A' for Active; 'I' for Inactive)
REMARK    1  A    between atoms: C_4  and  C_5 
REMARK    2  A    between atoms: C_5  and  C_6 
REMARK    3  A    between atoms: C_6  and  C_7 
REMARK       I    between atoms: C_7  and  N_8 
REMARK    4  A    between atoms: N_8  and  C_9 
REMARK    5  A    between atoms: C_11  and  C_12 
ROOT
HETATM    1  C   UNL     1      39.684 -13.477   2.474  1.00  0.00     0.035 A 
HETATM    2  C   UNL     1      40.206 -13.595   1.181  1.00  0.00     0.042 A 
HETATM    3  C   UNL     1      39.762 -12.767   0.134  1.00  0.00    -0.021 A 
HETATM    4  C   UNL     1      38.778 -11.809   0.412  1.00  0.00     0.012 A 
HETATM    5  C   UNL     1      38.254 -11.678   1.698  1.00  0.00     0.003 A 
HETATM    6  C   UNL     1      38.706 -12.508   2.723  1.00  0.00     0.029 A 
ENDROOT
BRANCH   1   7
HETATM    7  N   UNL     1      40.073 -14.285   3.560  1.00  0.00    -0.327 N 
HETATM    8  C   UNL     1      41.040 -14.027   4.511  1.00  0.00     0.222 C 
HETATM    9  O   UNL     1      41.722 -13.012   4.611  1.00  0.00    -0.273 OA
HETATM   10  H   UNL     1      39.554 -15.151   3.681  1.00  0.00     0.169 HD
BRANCH   8  11
HETATM   11  C   UNL     1      41.218 -15.166   5.499  1.00  0.00     0.110 C 
BRANCH  11  12
HETATM   12  C   UNL     1      42.586 -15.824   5.375  1.00  0.00     0.074 C 
BRANCH  12  13
HETATM   13  C   UNL     1      42.897 -16.393   4.033  1.00  0.00     0.053 A 
HETATM   14  O   UNL     1      42.927 -17.752   3.903  1.00  0.00    -0.320 OA
HETATM   15  C   UNL     1      43.220 -18.026   2.601  1.00  0.00     0.049 A 
HETATM   16  C   UNL     1      43.305 -19.451   2.224  1.00  0.00     0.076 C 
HETATM   17  C   UNL     1      43.372 -16.854   1.893  1.00  0.00     0.035 A 
HETATM   18  C   UNL     1      43.165 -15.801   2.815  1.00  0.00     0.035 A 
ENDBRANCH  12  13
ENDBRANCH  11  12
ENDBRANCH   8  11
ENDBRANCH   1   7
BRANCH   3  19
HETATM   19  C   UNL     1      40.306 -12.886  -1.214  1.00  0.00     0.010 A 
HETATM   20  C   UNL     1      40.108 -13.874  -2.210  1.00  0.00     0.152 A 
HETATM   21  N   UNL     1      40.794 -13.634  -3.332  1.00  0.00    -0.187 NA
HETATM   22  N   UNL     1      41.434 -12.485  -3.062  1.00  0.00    -0.289 N 
HETATM   23  H   UNL     1      42.032 -12.087  -3.779  1.00  0.00     0.188 HD
HETATM   24  C   UNL     1      41.182 -12.002  -1.811  1.00  0.00     0.123 A 
ENDBRANCH   3  19
TORSDOF 5
ENDMDL
MODEL 9
REMARK VINA RESULT:      -7.3      2.886      8.279
REMARK  5 active torsions:
REMARK  status: ('A' for Active; 'I' for Inactive)
REMARK    1  A    between atoms: C_4  and  C_5 
REMARK    2  A    between atoms: C_5  and  C_6 
REMARK    3  A    between atoms: C_6  and  C_7 
REMARK       I    between atoms: C_7  and  N_8 
REMARK    4  A    between atoms: N_8  and  C_9 
REMARK    5  A    between atoms: C_11  and  C_12 
ROOT
HETATM    1  C   UNL     1      42.005 -13.318   5.043  1.00  0.00     0.035 A 
HETATM    2  C   UNL     1      43.135 -12.848   5.720  1.00  0.00     0.042 A 
HETATM    3  C   UNL     1      43.179 -11.548   6.258  1.00  0.00    -0.021 A 
HETATM    4  C   UNL     1      42.056 -10.724   6.103  1.00  0.00     0.012 A 
HETATM    5  C   UNL     1      40.921 -11.184   5.433  1.00  0.00     0.003 A 
HETATM    6  C   UNL     1      40.897 -12.475   4.908  1.00  0.00     0.029 A 
ENDROOT
BRANCH   1   7
HETATM    7  N   UNL     1      41.905 -14.600   4.469  1.00  0.00    -0.327 N 
HETATM    8  C   UNL     1      42.500 -15.065   3.313  1.00  0.00     0.222 C 
HETATM    9  O   UNL     1      43.270 -14.450   2.582  1.00  0.00    -0.273 OA
HETATM   10  H   UNL     1      41.356 -15.281   4.988  1.00  0.00     0.169 HD
BRANCH   8  11
HETATM   11  C   UNL     1      42.111 -16.494   2.980  1.00  0.00     0.110 C 
BRANCH  11  12
HETATM   12  C   UNL     1      43.201 -17.219   2.203  1.00  0.00     0.074 C 
BRANCH  12  13
HETATM   13  C   UNL     1      43.452 -18.627   2.624  1.00  0.00     0.053 A 
HETATM   14  O   UNL     1      43.790 -18.857   3.927  1.00  0.00    -0.320 OA
HETATM   15  C   UNL     1      43.957 -20.202   4.068  1.00  0.00     0.049 A 
HETATM   16  C   UNL     1      44.330 -20.687   5.412  1.00  0.00     0.076 C 
HETATM   17  C   UNL     1      43.724 -20.837   2.869  1.00  0.00     0.035 A 
HETATM   18  C   UNL     1      43.399 -19.823   1.937  1.00  0.00     0.035 A 
ENDBRANCH  12  13
ENDBRANCH  11  12
ENDBRANCH   8  11
ENDBRANCH   1   7
BRANCH   3  19
HETATM   19  C   UNL     1      44.355 -11.056   6.967  1.00  0.00     0.010 A 
HETATM   20  C   UNL     1      45.735 -11.295   6.752  1.00  0.00     0.152 A 
HETATM   21  N   UNL     1      46.520 -10.659   7.627  1.00  0.00    -0.187 NA
HETATM   22  N   UNL     1      45.646 -10.003   8.406  1.00  0.00    -0.289 N 
HETATM   23  H   UNL     1      46.009  -9.431   9.162  1.00  0.00     0.188 HD
HETATM   24  C   UNL     1      44.344 -10.211   8.058  1.00  0.00     0.123 A 
ENDBRANCH   3  19
TORSDOF 5
ENDMDL
MODEL 10
REMARK VINA RESULT:      -7.2      3.787      5.863
REMARK  5 active torsions:
REMARK  status: ('A' for Active; 'I' for Inactive)
REMARK    1  A    between atoms: C_4  and  C_5 
REMARK    2  A    between atoms: C_5  and  C_6 
REMARK    3  A    between atoms: C_6  and  C_7 
REMARK       I    between atoms: C_7  and  N_8 
REMARK    4  A    between atoms: N_8  and  C_9 
REMARK    5  A    between atoms: C_11  and  C_12 
ROOT
HETATM    1  C   UNL     1      42.896 -15.606   3.092  1.00  0.00     0.035 A 
HETATM    2  C   UNL     1      43.111 -16.976   2.910  1.00  0.00     0.042 A 
HETATM    3  C   UNL     1      43.569 -17.790   3.962  1.00  0.00    -0.021 A 
HETATM    4  C   UNL     1      43.808 -17.198   5.210  1.00  0.00     0.012 A 
HETATM    5  C   UNL     1      43.592 -15.834   5.404  1.00  0.00     0.003 A 
HETATM    6  C   UNL     1      43.137 -15.043   4.350  1.00  0.00     0.029 A 
ENDROOT
BRANCH   1   7
HETATM    7  N   UNL     1      42.454 -14.734   2.077  1.00  0.00    -0.327 N 
HETATM    8  C   UNL     1      41.169 -14.293   1.832  1.00  0.00     0.222 C 
HETATM    9  O   UNL     1      40.164 -14.551   2.488  1.00  0.00    -0.273 OA
HETATM   10  H   UNL     1      43.175 -14.353   1.470  1.00  0.00     0.169 HD
BRANCH   8  11
HETATM   11  C   UNL     1      41.072 -13.402   0.607  1.00  0.00     0.110 C 
BRANCH  11  12
HETATM   12  C   UNL     1      41.053 -11.924   0.974  1.00  0.00     0.074 C 
BRANCH  12  13
HETATM   13  C   UNL     1      41.211 -10.983  -0.172  1.00  0.00     0.053 A 
HETATM   14  O   UNL     1      42.043  -9.912  -0.013  1.00  0.00    -0.320 OA
HETATM   15  C   UNL     1      42.029  -9.215  -1.184  1.00  0.00     0.049 A 
HETATM   16  C   UNL     1      42.867  -8.001  -1.244  1.00  0.00     0.076 C 
HETATM   17  C   UNL     1      41.200  -9.833  -2.094  1.00  0.00     0.035 A 
HETATM   18  C   UNL     1      40.672 -10.972  -1.443  1.00  0.00     0.035 A 
ENDBRANCH  12  13
ENDBRANCH  11  12
ENDBRANCH   8  11
ENDBRANCH   1   7
BRANCH   3  19
HETATM   19  C   UNL     1      43.793 -19.220   3.776  1.00  0.00     0.010 A 
HETATM   20  C   UNL     1      43.696 -20.032   2.619  1.00  0.00     0.152 A 
HETATM   21  N   UNL     1      43.977 -21.317   2.854  1.00  0.00    -0.187 NA
HETATM   22  N   UNL     1      44.260 -21.336   4.166  1.00  0.00    -0.289 N 
HETATM   23  H   UNL     1      44.513 -22.222   4.592  1.00  0.00     0.188 HD
HETATM   24  C   UNL     1      44.159 -20.113   4.762  1.00  0.00     0.123 A 
ENDBRANCH   3  19
TORSDOF 5
ENDMDL
