MODEL 1
REMARK VINA RESULT:      -8.7      0.000      0.000
REMARK  9 active torsions:
REMARK  status: ('A' for Active; 'I' for Inactive)
REMARK    1  A    between atoms: C_2  and  O_3 
REMARK    2  A    between atoms: O_3  and  C_4 
REMARK    3  A    between atoms: C_5  and  C_6 
REMARK    4  A    between atoms: N_7  and  C_9 
REMARK    5  A    between atoms: C_9  and  C_10 
REMARK       I    between atoms: C_10  and  N_11 
REMARK    6  A    between atoms: N_11  and  C_12 
REMARK    7  A    between atoms: C_20  and  C_21 
REMARK    8  A    between atoms: C_21  and  O_22 
REMARK    9  A    between atoms: C_28  and  O_29 
ROOT
HETATM    1  C   UNL     1      40.843 -13.978   2.215  1.00  0.00     0.231 C 
HETATM    2  N   UNL     1      41.312 -12.783   3.067  1.00  0.00    -0.054 N 
HETATM    3  H   UNL     1      41.164 -13.165   4.012  1.00  0.00     0.281 HD
HETATM    4  C   UNL     1      40.411 -11.585   2.987  1.00  0.00     0.239 C 
HETATM    5  C   UNL     1      40.179 -11.168   1.548  1.00  0.00     0.066 C 
HETATM    6  C   UNL     1      39.552 -12.317   0.762  1.00  0.00     0.065 C 
HETATM    7  C   UNL     1      40.506 -13.536   0.765  1.00  0.00     0.055 C 
HETATM    8  C   UNL     1      39.218 -11.889  -0.677  1.00  0.00     0.038 C 
HETATM    9  C   UNL     1      38.598 -13.034  -1.476  1.00  0.00     0.003 C 
HETATM   10  C   UNL     1      39.482 -14.273  -1.455  1.00  0.00     0.001 C 
HETATM   11  C   UNL     1      39.862 -14.692  -0.036  1.00  0.00     0.010 C 
ENDROOT
BRANCH   2  12
HETATM   12  C   UNL     1      42.821 -12.445   3.052  1.00  0.00     0.338 C 
BRANCH  12  13
HETATM   13  C   UNL     1      43.402 -12.585   4.474  1.00  0.00     0.248 C 
HETATM   14  N   UNL     1      44.032 -11.404   4.877  1.00  0.00    -0.319 N 
HETATM   15  H   UNL     1      44.122 -10.652   4.208  1.00  0.00     0.169 HD
HETATM   16  O   UNL     1      43.164 -13.556   5.184  1.00  0.00    -0.271 OA
BRANCH  14  17
HETATM   17  C   UNL     1      43.820 -10.954   6.164  1.00  0.00     0.094 C 
HETATM   18  S   UNL     1      45.189 -11.236   7.136  1.00  0.00    -0.075 SA
HETATM   19  C   UNL     1      44.549 -10.289   8.387  1.00  0.00    -0.008 C 
HETATM   20  C   UNL     1      43.262  -9.857   8.120  1.00  0.00    -0.026 C 
HETATM   21  C   UNL     1      45.328  -9.989   9.631  1.00  0.00     0.047 C 
HETATM   22  C   UNL     1      42.469  -9.090   9.148  1.00  0.00     0.041 C 
HETATM   23  C   UNL     1      42.795 -10.296   6.815  1.00  0.00     0.080 C 
HETATM   24  C   UNL     1      43.358  -8.529  10.270  1.00  0.00     0.005 C 
HETATM   25  C   UNL     1      44.387  -9.555  10.760  1.00  0.00     0.005 C 
BRANCH  23  26
HETATM   26  C   UNL     1      41.433 -10.119   6.302  1.00  0.00     0.296 C 
HETATM   27  O   UNL     1      41.002  -9.045   5.904  1.00  0.00    -0.259 OA
BRANCH  26  28
HETATM   28  O   UNL     1      40.671 -11.246   6.439  1.00  0.00    -0.322 OA
HETATM   29  C   UNL     1      39.315 -10.991   6.806  1.00  0.00     0.213 C 
ENDBRANCH  26  28
ENDBRANCH  23  26
ENDBRANCH  14  17
ENDBRANCH  12  13
ENDBRANCH   2  12
BRANCH   1  30
HETATM   30  C   UNL     1      41.706 -15.216   2.445  1.00  0.00     0.006 A 
HETATM   31  C   UNL     1      41.516 -16.139   3.495  1.00  0.00     0.077 A 
HETATM   32  C   UNL     1      42.353 -17.256   3.608  1.00  0.00     0.037 A 
HETATM   33  C   UNL     1      43.383 -17.466   2.693  1.00  0.00     0.003 A 
HETATM   34  C   UNL     1      43.581 -16.570   1.651  1.00  0.00     0.001 A 
HETATM   35  C   UNL     1      42.751 -15.457   1.526  1.00  0.00     0.012 A 
BRANCH  31  36
HETATM   36  O   UNL     1      40.454 -15.923   4.334  1.00  0.00    -0.351 OA
BRANCH  36  37
HETATM   37  C   UNL     1      40.703 -16.068   5.738  1.00  0.00     0.171 C 
HETATM   38  C   UNL     1      40.265 -14.784   6.422  1.00  0.00     0.034 C 
ENDBRANCH  36  37
ENDBRANCH  31  36
ENDBRANCH   1  30
BRANCH   6  39
HETATM   39  O   UNL     1      38.344 -12.676   1.445  1.00  0.00    -0.389 OA
HETATM   40  H   UNL     1      38.193 -13.638   1.356  1.00  0.00     0.210 HD
ENDBRANCH   6  39
TORSDOF 9
ENDMDL
MODEL 2
REMARK VINA RESULT:      -8.3      3.329      7.001
REMARK  9 active torsions:
REMARK  status: ('A' for Active; 'I' for Inactive)
REMARK    1  A    between atoms: C_2  and  O_3 
REMARK    2  A    between atoms: O_3  and  C_4 
REMARK    3  A    between atoms: C_5  and  C_6 
REMARK    4  A    between atoms: N_7  and  C_9 
REMARK    5  A    between atoms: C_9  and  C_10 
REMARK       I    between atoms: C_10  and  N_11 
REMARK    6  A    between atoms: N_11  and  C_12 
REMARK    7  A    between atoms: C_20  and  C_21 
REMARK    8  A    between atoms: C_21  and  O_22 
REMARK    9  A    between atoms: C_28  and  O_29 
ROOT
HETATM    1  C   UNL     1      39.284 -11.801  -0.187  1.00  0.00     0.231 C 
HETATM    2  N   UNL     1      40.162 -12.360   0.950  1.00  0.00    -0.054 N 
HETATM    3  H   UNL     1      40.759 -11.543   1.137  1.00  0.00     0.281 HD
HETATM    4  C   UNL     1      41.108 -13.442   0.516  1.00  0.00     0.239 C 
HETATM    5  C   UNL     1      40.373 -14.557  -0.202  1.00  0.00     0.066 C 
HETATM    6  C   UNL     1      39.650 -14.006  -1.429  1.00  0.00     0.065 C 
HETATM    7  C   UNL     1      38.610 -12.946  -0.991  1.00  0.00     0.055 C 
HETATM    8  C   UNL     1      38.975 -15.134  -2.229  1.00  0.00     0.038 C 
HETATM    9  C   UNL     1      38.240 -14.593  -3.454  1.00  0.00     0.003 C 
HETATM   10  C   UNL     1      37.243 -13.508  -3.073  1.00  0.00     0.001 C 
HETATM   11  C   UNL     1      37.881 -12.398  -2.240  1.00  0.00     0.010 C 
ENDROOT
BRANCH   2  12
HETATM   12  C   UNL     1      39.480 -12.621   2.313  1.00  0.00     0.338 C 
BRANCH  12  13
HETATM   13  C   UNL     1      40.511 -13.183   3.314  1.00  0.00     0.248 C 
HETATM   14  N   UNL     1      40.050 -14.367   3.898  1.00  0.00    -0.319 N 
HETATM   15  H   UNL     1      39.109 -14.673   3.692  1.00  0.00     0.169 HD
HETATM   16  O   UNL     1      41.641 -12.718   3.418  1.00  0.00    -0.271 OA
BRANCH  14  17
HETATM   17  C   UNL     1      40.936 -15.415   4.040  1.00  0.00     0.094 C 
HETATM   18  S   UNL     1      41.008 -16.343   2.614  1.00  0.00    -0.075 SA
HETATM   19  C   UNL     1      42.348 -17.204   3.190  1.00  0.00    -0.008 C 
HETATM   20  C   UNL     1      42.669 -16.874   4.495  1.00  0.00    -0.026 C 
HETATM   21  C   UNL     1      43.068 -18.209   2.344  1.00  0.00     0.047 C 
HETATM   22  C   UNL     1      43.762 -17.603   5.236  1.00  0.00     0.041 C 
HETATM   23  C   UNL     1      41.794 -15.845   5.032  1.00  0.00     0.080 C 
HETATM   24  C   UNL     1      44.681 -18.393   4.290  1.00  0.00     0.005 C 
HETATM   25  C   UNL     1      43.889 -19.159   3.223  1.00  0.00     0.005 C 
BRANCH  23  26
HETATM   26  C   UNL     1      41.789 -15.383   6.424  1.00  0.00     0.296 C 
HETATM   27  O   UNL     1      41.547 -16.118   7.372  1.00  0.00    -0.259 OA
BRANCH  26  28
HETATM   28  O   UNL     1      41.956 -14.030   6.528  1.00  0.00    -0.322 OA
HETATM   29  C   UNL     1      43.319 -13.606   6.476  1.00  0.00     0.213 C 
ENDBRANCH  26  28
ENDBRANCH  23  26
ENDBRANCH  14  17
ENDBRANCH  12  13
ENDBRANCH   2  12
BRANCH   1  30
HETATM   30  C   UNL     1      38.450 -10.608   0.270  1.00  0.00     0.006 A 
HETATM   31  C   UNL     1      38.976  -9.337   0.583  1.00  0.00     0.077 A 
HETATM   32  C   UNL     1      38.121  -8.300   0.976  1.00  0.00     0.037 A 
HETATM   33  C   UNL     1      36.746  -8.511   1.070  1.00  0.00     0.003 A 
HETATM   34  C   UNL     1      36.212  -9.754   0.762  1.00  0.00     0.001 A 
HETATM   35  C   UNL     1      37.052 -10.792   0.365  1.00  0.00     0.012 A 
BRANCH  31  36
HETATM   36  O   UNL     1      40.325  -9.160   0.419  1.00  0.00    -0.351 OA
BRANCH  36  37
HETATM   37  C   UNL     1      40.734  -8.153  -0.515  1.00  0.00     0.171 C 
HETATM   38  C   UNL     1      40.869  -8.810  -1.877  1.00  0.00     0.034 C 
ENDBRANCH  36  37
ENDBRANCH  31  36
ENDBRANCH   1  30
BRANCH   6  39
HETATM   39  O   UNL     1      40.641 -13.370  -2.245  1.00  0.00    -0.389 OA
HETATM   40  H   UNL     1      40.389 -12.437  -2.395  1.00  0.00     0.210 HD
ENDBRANCH   6  39
TORSDOF 9
ENDMDL
MODEL 3
REMARK VINA RESULT:      -8.3      2.476      5.711
REMARK  9 active torsions:
REMARK  status: ('A' for Active; 'I' for Inactive)
REMARK    1  A    between atoms: C_2  and  O_3 
REMARK    2  A    between atoms: O_3  and  C_4 
REMARK    3  A    between atoms: C_5  and  C_6 
REMARK    4  A    between atoms: N_7  and  C_9 
REMARK    5  A    between atoms: C_9  and  C_10 
REMARK       I    between atoms: C_10  and  N_11 
REMARK    6  A    between atoms: N_11  and  C_12 
REMARK    7  A    between atoms: C_20  and  C_21 
REMARK    8  A    between atoms: C_21  and  O_22 
REMARK    9  A    between atoms: C_28  and  O_29 
ROOT
HETATM    1  C   UNL     1      42.690 -16.442   3.669  1.00  0.00     0.231 C 
HETATM    2  N   UNL     1      42.415 -15.976   5.111  1.00  0.00    -0.054 N 
HETATM    3  H   UNL     1      42.725 -14.996   5.047  1.00  0.00     0.281 HD
HETATM    4  C   UNL     1      43.315 -16.601   6.137  1.00  0.00     0.239 C 
HETATM    5  C   UNL     1      43.288 -18.114   6.041  1.00  0.00     0.066 C 
HETATM    6  C   UNL     1      43.732 -18.560   4.650  1.00  0.00     0.065 C 
HETATM    7  C   UNL     1      42.766 -17.991   3.584  1.00  0.00     0.055 C 
HETATM    8  C   UNL     1      43.806 -20.094   4.556  1.00  0.00     0.038 C 
HETATM    9  C   UNL     1      44.241 -20.553   3.165  1.00  0.00     0.003 C 
HETATM   10  C   UNL     1      43.346 -19.971   2.080  1.00  0.00     0.001 C 
HETATM   11  C   UNL     1      43.223 -18.452   2.179  1.00  0.00     0.010 C 
ENDROOT
BRANCH   2  12
HETATM   12  C   UNL     1      40.937 -15.854   5.552  1.00  0.00     0.338 C 
BRANCH  12  13
HETATM   13  C   UNL     1      40.725 -14.526   6.307  1.00  0.00     0.248 C 
HETATM   14  N   UNL     1      41.645 -13.559   5.889  1.00  0.00    -0.319 N 
HETATM   15  H   UNL     1      42.372 -13.832   5.242  1.00  0.00     0.169 HD
HETATM   16  O   UNL     1      39.758 -14.336   7.036  1.00  0.00    -0.271 OA
BRANCH  14  17
HETATM   17  C   UNL     1      41.193 -12.273   5.677  1.00  0.00     0.094 C 
HETATM   18  S   UNL     1      39.901 -12.261   4.569  1.00  0.00    -0.075 SA
HETATM   19  C   UNL     1      39.571 -10.635   4.904  1.00  0.00    -0.008 C 
HETATM   20  C   UNL     1      40.500 -10.070   5.760  1.00  0.00    -0.026 C 
HETATM   21  C   UNL     1      38.394  -9.924   4.307  1.00  0.00     0.047 C 
HETATM   22  C   UNL     1      40.453  -8.602   6.102  1.00  0.00     0.041 C 
HETATM   23  C   UNL     1      41.508 -11.028   6.185  1.00  0.00     0.080 C 
HETATM   24  C   UNL     1      39.100  -7.964   5.749  1.00  0.00     0.005 C 
HETATM   25  C   UNL     1      38.596  -8.406   4.369  1.00  0.00     0.005 C 
BRANCH  23  26
HETATM   26  C   UNL     1      42.700 -10.705   6.976  1.00  0.00     0.296 C 
HETATM   27  O   UNL     1      43.020  -9.560   7.267  1.00  0.00    -0.259 OA
BRANCH  26  28
HETATM   28  O   UNL     1      43.470 -11.805   7.236  1.00  0.00    -0.322 OA
HETATM   29  C   UNL     1      44.866 -11.525   7.346  1.00  0.00     0.213 C 
ENDBRANCH  26  28
ENDBRANCH  23  26
ENDBRANCH  14  17
ENDBRANCH  12  13
ENDBRANCH   2  12
BRANCH   1  30
HETATM   30  C   UNL     1      41.854 -15.671   2.650  1.00  0.00     0.006 A 
HETATM   31  C   UNL     1      42.055 -14.315   2.314  1.00  0.00     0.077 A 
HETATM   32  C   UNL     1      41.244 -13.704   1.351  1.00  0.00     0.037 A 
HETATM   33  C   UNL     1      40.228 -14.420   0.720  1.00  0.00     0.003 A 
HETATM   34  C   UNL     1      40.020 -15.755   1.036  1.00  0.00     0.001 A 
HETATM   35  C   UNL     1      40.824 -16.377   1.989  1.00  0.00     0.012 A 
BRANCH  31  36
HETATM   36  O   UNL     1      43.103 -13.670   2.916  1.00  0.00    -0.351 OA
BRANCH  36  37
HETATM   37  C   UNL     1      43.168 -12.248   2.744  1.00  0.00     0.171 C 
HETATM   38  C   UNL     1      44.199 -11.709   3.721  1.00  0.00     0.034 C 
ENDBRANCH  36  37
ENDBRANCH  31  36
ENDBRANCH   1  30
BRANCH   6  39
HETATM   39  O   UNL     1      45.036 -18.007   4.433  1.00  0.00    -0.389 OA
HETATM   40  H   UNL     1      45.715 -18.661   4.693  1.00  0.00     0.210 HD
ENDBRANCH   6  39
TORSDOF 9
ENDMDL
MODEL 4
REMARK VINA RESULT:      -8.1      1.626      2.492
REMARK  9 active torsions:
REMARK  status: ('A' for Active; 'I' for Inactive)
REMARK    1  A    between atoms: C_2  and  O_3 
REMARK    2  A    between atoms: O_3  and  C_4 
REMARK    3  A    between atoms: C_5  and  C_6 
REMARK    4  A    between atoms: N_7  and  C_9 
REMARK    5  A    between atoms: C_9  and  C_10 
REMARK       I    between atoms: C_10  and  N_11 
REMARK    6  A    between atoms: N_11  and  C_12 
REMARK    7  A    between atoms: C_20  and  C_21 
REMARK    8  A    between atoms: C_21  and  O_22 
REMARK    9  A    between atoms: C_28  and  O_29 
ROOT
HETATM    1  C   UNL     1      40.782 -14.034   2.439  1.00  0.00     0.231 C 
HETATM    2  N   UNL     1      41.184 -12.939   3.445  1.00  0.00    -0.054 N 
HETATM    3  H   UNL     1      41.020 -13.438   4.331  1.00  0.00     0.281 HD
HETATM    4  C   UNL     1      40.247 -11.767   3.480  1.00  0.00     0.239 C 
HETATM    5  C   UNL     1      40.047 -11.185   2.094  1.00  0.00     0.066 C 
HETATM    6  C   UNL     1      39.482 -12.247   1.154  1.00  0.00     0.065 C 
HETATM    7  C   UNL     1      40.475 -13.428   1.042  1.00  0.00     0.055 C 
HETATM    8  C   UNL     1      39.180 -11.655  -0.234  1.00  0.00     0.038 C 
HETATM    9  C   UNL     1      38.623 -12.712  -1.187  1.00  0.00     0.003 C 
HETATM   10  C   UNL     1      39.546 -13.918  -1.285  1.00  0.00     0.001 C 
HETATM   11  C   UNL     1      39.895 -14.497   0.085  1.00  0.00     0.010 C 
ENDROOT
BRANCH   2  12
HETATM   12  C   UNL     1      42.681 -12.559   3.524  1.00  0.00     0.338 C 
BRANCH  12  13
HETATM   13  C   UNL     1      43.059 -12.221   4.981  1.00  0.00     0.248 C 
HETATM   14  N   UNL     1      43.316 -10.855   5.128  1.00  0.00    -0.319 N 
HETATM   15  H   UNL     1      43.320 -10.272   4.303  1.00  0.00     0.169 HD
HETATM   16  O   UNL     1      42.961 -13.040   5.888  1.00  0.00    -0.271 OA
BRANCH  14  17
HETATM   17  C   UNL     1      42.810 -10.209   6.238  1.00  0.00     0.094 C 
HETATM   18  S   UNL     1      41.414  -9.322   5.837  1.00  0.00    -0.075 SA
HETATM   19  C   UNL     1      41.075  -9.033   7.471  1.00  0.00    -0.008 C 
HETATM   20  C   UNL     1      42.070  -9.504   8.310  1.00  0.00    -0.026 C 
HETATM   21  C   UNL     1      39.826  -8.331   7.910  1.00  0.00     0.047 C 
HETATM   22  C   UNL     1      42.018  -9.254   9.797  1.00  0.00     0.041 C 
HETATM   23  C   UNL     1      43.140 -10.160   7.578  1.00  0.00     0.080 C 
HETATM   24  C   UNL     1      40.620  -8.821  10.266  1.00  0.00     0.005 C 
HETATM   25  C   UNL     1      39.992  -7.780   9.330  1.00  0.00     0.005 C 
BRANCH  23  26
HETATM   26  C   UNL     1      44.396 -10.638   8.166  1.00  0.00     0.296 C 
HETATM   27  O   UNL     1      44.455 -11.206   9.248  1.00  0.00    -0.259 OA
BRANCH  26  28
HETATM   28  O   UNL     1      45.491 -10.266   7.436  1.00  0.00    -0.322 OA
HETATM   29  C   UNL     1      46.283  -9.249   8.050  1.00  0.00     0.213 C 
ENDBRANCH  26  28
ENDBRANCH  23  26
ENDBRANCH  14  17
ENDBRANCH  12  13
ENDBRANCH   2  12
BRANCH   1  30
HETATM   30  C   UNL     1      41.677 -15.266   2.547  1.00  0.00     0.006 A 
HETATM   31  C   UNL     1      41.542 -16.268   3.531  1.00  0.00     0.077 A 
HETATM   32  C   UNL     1      42.405 -17.371   3.532  1.00  0.00     0.037 A 
HETATM   33  C   UNL     1      43.408 -17.489   2.570  1.00  0.00     0.003 A 
HETATM   34  C   UNL     1      43.551 -16.514   1.593  1.00  0.00     0.001 A 
HETATM   35  C   UNL     1      42.695 -15.414   1.578  1.00  0.00     0.012 A 
BRANCH  31  36
HETATM   36  O   UNL     1      40.506 -16.140   4.418  1.00  0.00    -0.351 OA
BRANCH  36  37
HETATM   37  C   UNL     1      40.846 -16.139   5.810  1.00  0.00     0.171 C 
HETATM   38  C   UNL     1      40.249 -14.889   6.433  1.00  0.00     0.034 C 
ENDBRANCH  36  37
ENDBRANCH  31  36
ENDBRANCH   1  30
BRANCH   6  39
HETATM   39  O   UNL     1      38.266 -12.721   1.745  1.00  0.00    -0.389 OA
HETATM   40  H   UNL     1      37.900 -12.031   2.334  1.00  0.00     0.210 HD
ENDBRANCH   6  39
TORSDOF 9
ENDMDL
MODEL 5
REMARK VINA RESULT:      -8.0      2.904      6.082
REMARK  9 active torsions:
REMARK  status: ('A' for Active; 'I' for Inactive)
REMARK    1  A    between atoms: C_2  and  O_3 
REMARK    2  A    between atoms: O_3  and  C_4 
REMARK    3  A    between atoms: C_5  and  C_6 
REMARK    4  A    between atoms: N_7  and  C_9 
REMARK    5  A    between atoms: C_9  and  C_10 
REMARK       I    between atoms: C_10  and  N_11 
REMARK    6  A    between atoms: N_11  and  C_12 
REMARK    7  A    between atoms: C_20  and  C_21 
REMARK    8  A    between atoms: C_21  and  O_22 
REMARK    9  A    between atoms: C_28  and  O_29 
ROOT
HETATM    1  C   UNL     1      42.618 -15.629   4.162  1.00  0.00     0.231 C 
HETATM    2  N   UNL     1      42.073 -14.937   5.426  1.00  0.00    -0.054 N 
HETATM    3  H   UNL     1      42.347 -13.963   5.232  1.00  0.00     0.281 HD
HETATM    4  C   UNL     1      42.802 -15.303   6.686  1.00  0.00     0.239 C 
HETATM    5  C   UNL     1      42.856 -16.807   6.871  1.00  0.00     0.066 C 
HETATM    6  C   UNL     1      43.558 -17.458   5.682  1.00  0.00     0.065 C 
HETATM    7  C   UNL     1      42.773 -17.159   4.382  1.00  0.00     0.055 C 
HETATM    8  C   UNL     1      43.711 -18.974   5.890  1.00  0.00     0.038 C 
HETATM    9  C   UNL     1      44.405 -19.638   4.701  1.00  0.00     0.003 C 
HETATM   10  C   UNL     1      43.692 -19.326   3.393  1.00  0.00     0.001 C 
HETATM   11  C   UNL     1      43.490 -17.826   3.185  1.00  0.00     0.010 C 
ENDROOT
BRANCH   2  12
HETATM   12  C   UNL     1      40.537 -14.848   5.583  1.00  0.00     0.338 C 
BRANCH  12  13
HETATM   13  C   UNL     1      40.130 -13.402   5.932  1.00  0.00     0.248 C 
HETATM   14  N   UNL     1      40.924 -12.478   5.246  1.00  0.00    -0.319 N 
HETATM   15  H   UNL     1      41.697 -12.822   4.693  1.00  0.00     0.169 HD
HETATM   16  O   UNL     1      39.127 -13.146   6.589  1.00  0.00    -0.271 OA
BRANCH  14  17
HETATM   17  C   UNL     1      40.310 -11.378   4.682  1.00  0.00     0.094 C 
HETATM   18  S   UNL     1      39.506 -11.805   3.244  1.00  0.00    -0.075 SA
HETATM   19  C   UNL     1      38.744 -10.294   3.170  1.00  0.00    -0.008 C 
HETATM   20  C   UNL     1      39.181  -9.431   4.159  1.00  0.00    -0.026 C 
HETATM   21  C   UNL     1      37.723  -9.972   2.122  1.00  0.00     0.047 C 
HETATM   22  C   UNL     1      38.710  -7.999   4.207  1.00  0.00     0.041 C 
HETATM   23  C   UNL     1      40.160 -10.052   5.036  1.00  0.00     0.080 C 
HETATM   24  C   UNL     1      37.458  -7.768   3.345  1.00  0.00     0.005 C 
HETATM   25  C   UNL     1      37.565  -8.454   1.978  1.00  0.00     0.005 C 
BRANCH  23  26
HETATM   26  C   UNL     1      40.911  -9.359   6.088  1.00  0.00     0.296 C 
HETATM   27  O   UNL     1      41.660  -8.417   5.866  1.00  0.00    -0.259 OA
BRANCH  26  28
HETATM   28  O   UNL     1      40.779  -9.961   7.309  1.00  0.00    -0.322 OA
HETATM   29  C   UNL     1      39.478  -9.831   7.884  1.00  0.00     0.213 C 
ENDBRANCH  26  28
ENDBRANCH  23  26
ENDBRANCH  14  17
ENDBRANCH  12  13
ENDBRANCH   2  12
BRANCH   1  30
HETATM   30  C   UNL     1      41.945 -15.114   2.893  1.00  0.00     0.006 A 
HETATM   31  C   UNL     1      42.360 -13.973   2.174  1.00  0.00     0.077 A 
HETATM   32  C   UNL     1      41.684 -13.594   1.008  1.00  0.00     0.037 A 
HETATM   33  C   UNL     1      40.593 -14.330   0.548  1.00  0.00     0.003 A 
HETATM   34  C   UNL     1      40.174 -15.457   1.241  1.00  0.00     0.001 A 
HETATM   35  C   UNL     1      40.842 -15.848   2.400  1.00  0.00     0.012 A 
BRANCH  31  36
HETATM   36  O   UNL     1      43.472 -13.316   2.631  1.00  0.00    -0.351 OA
BRANCH  36  37
HETATM   37  C   UNL     1      43.316 -11.927   2.945  1.00  0.00     0.171 C 
HETATM   38  C   UNL     1      44.146 -11.636   4.184  1.00  0.00     0.034 C 
ENDBRANCH  36  37
ENDBRANCH  31  36
ENDBRANCH   1  30
BRANCH   6  39
HETATM   39  O   UNL     1      44.855 -16.856   5.585  1.00  0.00    -0.389 OA
HETATM   40  H   UNL     1      45.539 -17.555   5.597  1.00  0.00     0.210 HD
ENDBRANCH   6  39
TORSDOF 9
ENDMDL
MODEL 6
REMARK VINA RESULT:      -7.9      2.946      8.197
REMARK  9 active torsions:
REMARK  status: ('A' for Active; 'I' for Inactive)
REMARK    1  A    between atoms: C_2  and  O_3 
REMARK    2  A    between atoms: O_3  and  C_4 
REMARK    3  A    between atoms: C_5  and  C_6 
REMARK    4  A    between atoms: N_7  and  C_9 
REMARK    5  A    between atoms: C_9  and  C_10 
REMARK       I    between atoms: C_10  and  N_11 
REMARK    6  A    between atoms: N_11  and  C_12 
REMARK    7  A    between atoms: C_20  and  C_21 
REMARK    8  A    between atoms: C_21  and  O_22 
REMARK    9  A    between atoms: C_28  and  O_29 
ROOT
HETATM    1  C   UNL     1      42.504  -8.541   7.509  1.00  0.00     0.231 C 
HETATM    2  N   UNL     1      42.261  -9.573   6.391  1.00  0.00    -0.054 N 
HETATM    3  H   UNL     1      43.225  -9.899   6.232  1.00  0.00     0.281 HD
HETATM    4  C   UNL     1      41.835  -8.968   5.084  1.00  0.00     0.239 C 
HETATM    5  C   UNL     1      40.629  -8.067   5.264  1.00  0.00     0.066 C 
HETATM    6  C   UNL     1      40.952  -6.947   6.250  1.00  0.00     0.065 C 
HETATM    7  C   UNL     1      41.314  -7.551   7.628  1.00  0.00     0.055 C 
HETATM    8  C   UNL     1      39.776  -5.963   6.377  1.00  0.00     0.038 C 
HETATM    9  C   UNL     1      40.085  -4.842   7.369  1.00  0.00     0.003 C 
HETATM   10  C   UNL     1      40.497  -5.395   8.726  1.00  0.00     0.001 C 
HETATM   11  C   UNL     1      41.636  -6.408   8.620  1.00  0.00     0.010 C 
ENDROOT
BRANCH   2  12
HETATM   12  C   UNL     1      41.505 -10.868   6.768  1.00  0.00     0.338 C 
BRANCH  12  13
HETATM   13  C   UNL     1      41.326 -11.752   5.516  1.00  0.00     0.248 C 
HETATM   14  N   UNL     1      42.555 -12.257   5.080  1.00  0.00    -0.319 N 
HETATM   15  H   UNL     1      43.398 -11.941   5.540  1.00  0.00     0.169 HD
HETATM   16  O   UNL     1      40.221 -12.082   5.102  1.00  0.00    -0.271 OA
BRANCH  14  17
HETATM   17  C   UNL     1      42.619 -13.579   4.692  1.00  0.00     0.094 C 
HETATM   18  S   UNL     1      42.672 -13.709   2.995  1.00  0.00    -0.075 SA
HETATM   19  C   UNL     1      43.035 -15.361   3.089  1.00  0.00    -0.008 C 
HETATM   20  C   UNL     1      43.003 -15.838   4.388  1.00  0.00    -0.026 C 
HETATM   21  C   UNL     1      43.341 -16.176   1.869  1.00  0.00     0.047 C 
HETATM   22  C   UNL     1      43.190 -17.305   4.683  1.00  0.00     0.041 C 
HETATM   23  C   UNL     1      42.699 -14.791   5.349  1.00  0.00     0.080 C 
HETATM   24  C   UNL     1      43.799 -18.066   3.495  1.00  0.00     0.005 C 
HETATM   25  C   UNL     1      43.151 -17.669   2.162  1.00  0.00     0.005 C 
BRANCH  23  26
HETATM   26  C   UNL     1      42.459 -15.003   6.780  1.00  0.00     0.296 C 
HETATM   27  O   UNL     1      43.118 -14.461   7.658  1.00  0.00    -0.259 OA
BRANCH  26  28
HETATM   28  O   UNL     1      41.512 -15.961   7.016  1.00  0.00    -0.322 OA
HETATM   29  C   UNL     1      40.191 -15.581   6.629  1.00  0.00     0.213 C 
ENDBRANCH  26  28
ENDBRANCH  23  26
ENDBRANCH  14  17
ENDBRANCH  12  13
ENDBRANCH   2  12
BRANCH   1  30
HETATM   30  C   UNL     1      43.076  -9.188   8.768  1.00  0.00     0.006 A 
HETATM   31  C   UNL     1      44.408  -9.633   8.903  1.00  0.00     0.077 A 
HETATM   32  C   UNL     1      44.840 -10.198  10.109  1.00  0.00     0.037 A 
HETATM   33  C   UNL     1      43.963 -10.334  11.185  1.00  0.00     0.003 A 
HETATM   34  C   UNL     1      42.650  -9.898  11.069  1.00  0.00     0.001 A 
HETATM   35  C   UNL     1      42.210  -9.329   9.875  1.00  0.00     0.012 A 
BRANCH  31  36
HETATM   36  O   UNL     1      45.249  -9.425   7.842  1.00  0.00    -0.351 OA
BRANCH  36  37
HETATM   37  C   UNL     1      46.209 -10.453   7.569  1.00  0.00     0.171 C 
HETATM   38  C   UNL     1      45.575 -11.436   6.600  1.00  0.00     0.034 C 
ENDBRANCH  36  37
ENDBRANCH  31  36
ENDBRANCH   1  30
BRANCH   6  39
HETATM   39  O   UNL     1      42.097  -6.257   5.734  1.00  0.00    -0.389 OA
HETATM   40  H   UNL     1      42.771  -6.908   5.455  1.00  0.00     0.210 HD
ENDBRANCH   6  39
TORSDOF 9
ENDMDL
MODEL 7
REMARK VINA RESULT:      -7.7      2.551      7.976
REMARK  9 active torsions:
REMARK  status: ('A' for Active; 'I' for Inactive)
REMARK    1  A    between atoms: C_2  and  O_3 
REMARK    2  A    between atoms: O_3  and  C_4 
REMARK    3  A    between atoms: C_5  and  C_6 
REMARK    4  A    between atoms: N_7  and  C_9 
REMARK    5  A    between atoms: C_9  and  C_10 
REMARK       I    between atoms: C_10  and  N_11 
REMARK    6  A    between atoms: N_11  and  C_12 
REMARK    7  A    between atoms: C_20  and  C_21 
REMARK    8  A    between atoms: C_21  and  O_22 
REMARK    9  A    between atoms: C_28  and  O_29 
ROOT
HETATM    1  C   UNL     1      42.128  -8.954   7.237  1.00  0.00     0.231 C 
HETATM    2  N   UNL     1      42.495 -10.181   6.381  1.00  0.00    -0.054 N 
HETATM    3  H   UNL     1      43.523 -10.118   6.405  1.00  0.00     0.281 HD
HETATM    4  C   UNL     1      42.132 -10.046   4.931  1.00  0.00     0.239 C 
HETATM    5  C   UNL     1      40.668  -9.685   4.764  1.00  0.00     0.066 C 
HETATM    6  C   UNL     1      40.366  -8.370   5.479  1.00  0.00     0.065 C 
HETATM    7  C   UNL     1      40.657  -8.518   6.992  1.00  0.00     0.055 C 
HETATM    8  C   UNL     1      38.910  -7.934   5.244  1.00  0.00     0.038 C 
HETATM    9  C   UNL     1      38.592  -6.623   5.963  1.00  0.00     0.003 C 
HETATM   10  C   UNL     1      38.915  -6.708   7.448  1.00  0.00     0.001 C 
HETATM   11  C   UNL     1      40.344  -7.182   7.707  1.00  0.00     0.010 C 
ENDROOT
BRANCH   2  12
HETATM   12  C   UNL     1      42.211 -11.578   6.980  1.00  0.00     0.338 C 
BRANCH  12  13
HETATM   13  C   UNL     1      43.281 -12.580   6.499  1.00  0.00     0.248 C 
HETATM   14  N   UNL     1      42.848 -13.898   6.674  1.00  0.00    -0.319 N 
HETATM   15  H   UNL     1      41.972 -14.060   7.151  1.00  0.00     0.169 HD
HETATM   16  O   UNL     1      44.284 -12.224   5.891  1.00  0.00    -0.271 OA
BRANCH  14  17
HETATM   17  C   UNL     1      43.080 -14.804   5.659  1.00  0.00     0.094 C 
HETATM   18  S   UNL     1      43.955 -16.146   6.235  1.00  0.00    -0.075 SA
HETATM   19  C   UNL     1      43.696 -16.990   4.790  1.00  0.00    -0.008 C 
HETATM   20  C   UNL     1      43.054 -16.222   3.835  1.00  0.00    -0.026 C 
HETATM   21  C   UNL     1      44.142 -18.410   4.610  1.00  0.00     0.047 C 
HETATM   22  C   UNL     1      42.824 -16.747   2.439  1.00  0.00     0.041 C 
HETATM   23  C   UNL     1      42.731 -14.893   4.326  1.00  0.00     0.080 C 
HETATM   24  C   UNL     1      42.995 -18.272   2.355  1.00  0.00     0.005 C 
HETATM   25  C   UNL     1      44.232 -18.758   3.120  1.00  0.00     0.005 C 
BRANCH  23  26
HETATM   26  C   UNL     1      42.177 -13.804   3.514  1.00  0.00     0.296 C 
HETATM   27  O   UNL     1      42.792 -13.273   2.598  1.00  0.00    -0.259 OA
BRANCH  26  28
HETATM   28  O   UNL     1      40.965 -13.371   3.975  1.00  0.00    -0.322 OA
HETATM   29  C   UNL     1      39.912 -13.458   3.014  1.00  0.00     0.213 C 
ENDBRANCH  26  28
ENDBRANCH  23  26
ENDBRANCH  14  17
ENDBRANCH  12  13
ENDBRANCH   2  12
BRANCH   1  30
HETATM   30  C   UNL     1      42.649  -9.078   8.666  1.00  0.00     0.006 A 
HETATM   31  C   UNL     1      43.996  -8.895   9.044  1.00  0.00     0.077 A 
HETATM   32  C   UNL     1      44.370  -9.012  10.388  1.00  0.00     0.037 A 
HETATM   33  C   UNL     1      43.423  -9.317  11.365  1.00  0.00     0.003 A 
HETATM   34  C   UNL     1      42.093  -9.497  11.010  1.00  0.00     0.001 A 
HETATM   35  C   UNL     1      41.707  -9.377   9.676  1.00  0.00     0.012 A 
BRANCH  31  36
HETATM   36  O   UNL     1      44.880  -8.538   8.060  1.00  0.00    -0.351 OA
BRANCH  36  37
HETATM   37  C   UNL     1      46.214  -9.050   8.175  1.00  0.00     0.171 C 
HETATM   38  C   UNL     1      46.204 -10.486   7.680  1.00  0.00     0.034 C 
ENDBRANCH  36  37
ENDBRANCH  31  36
ENDBRANCH   1  30
BRANCH   6  39
HETATM   39  O   UNL     1      41.253  -7.387   4.932  1.00  0.00    -0.389 OA
HETATM   40  H   UNL     1      42.083  -7.819   4.649  1.00  0.00     0.210 HD
ENDBRANCH   6  39
TORSDOF 9
ENDMDL
MODEL 8
REMARK VINA RESULT:      -7.7      3.584      6.676
REMARK  9 active torsions:
REMARK  status: ('A' for Active; 'I' for Inactive)
REMARK    1  A    between atoms: C_2  and  O_3 
REMARK    2  A    between atoms: O_3  and  C_4 
REMARK    3  A    between atoms: C_5  and  C_6 
REMARK    4  A    between atoms: N_7  and  C_9 
REMARK    5  A    between atoms: C_9  and  C_10 
REMARK       I    between atoms: C_10  and  N_11 
REMARK    6  A    between atoms: N_11  and  C_12 
REMARK    7  A    between atoms: C_20  and  C_21 
REMARK    8  A    between atoms: C_21  and  O_22 
REMARK    9  A    between atoms: C_28  and  O_29 
ROOT
HETATM    1  C   UNL     1      39.174 -11.776  -0.259  1.00  0.00     0.231 C 
HETATM    2  N   UNL     1      39.963 -12.333   0.941  1.00  0.00    -0.054 N 
HETATM    3  H   UNL     1      40.570 -11.527   1.148  1.00  0.00     0.281 HD
HETATM    4  C   UNL     1      40.903 -13.449   0.589  1.00  0.00     0.239 C 
HETATM    5  C   UNL     1      40.183 -14.560  -0.150  1.00  0.00     0.066 C 
HETATM    6  C   UNL     1      39.553 -14.017  -1.430  1.00  0.00     0.065 C 
HETATM    7  C   UNL     1      38.519 -12.920  -1.080  1.00  0.00     0.055 C 
HETATM    8  C   UNL     1      38.898 -15.144  -2.247  1.00  0.00     0.038 C 
HETATM    9  C   UNL     1      38.256 -14.611  -3.527  1.00  0.00     0.003 C 
HETATM   10  C   UNL     1      37.268 -13.491  -3.232  1.00  0.00     0.001 C 
HETATM   11  C   UNL     1      37.884 -12.380  -2.384  1.00  0.00     0.010 C 
ENDROOT
BRANCH   2  12
HETATM   12  C   UNL     1      39.191 -12.545   2.265  1.00  0.00     0.338 C 
BRANCH  12  13
HETATM   13  C   UNL     1      40.187 -12.654   3.438  1.00  0.00     0.248 C 
HETATM   14  N   UNL     1      39.812 -13.671   4.321  1.00  0.00    -0.319 N 
HETATM   15  H   UNL     1      38.933 -14.146   4.166  1.00  0.00     0.169 HD
HETATM   16  O   UNL     1      41.243 -12.032   3.458  1.00  0.00    -0.271 OA
BRANCH  14  17
HETATM   17  C   UNL     1      40.793 -14.507   4.812  1.00  0.00     0.094 C 
HETATM   18  S   UNL     1      41.368 -13.948   6.314  1.00  0.00    -0.075 SA
HETATM   19  C   UNL     1      42.229 -15.384   6.568  1.00  0.00    -0.008 C 
HETATM   20  C   UNL     1      42.179 -16.233   5.477  1.00  0.00    -0.026 C 
HETATM   21  C   UNL     1      42.959 -15.655   7.848  1.00  0.00     0.047 C 
HETATM   22  C   UNL     1      42.968 -17.518   5.452  1.00  0.00     0.041 C 
HETATM   23  C   UNL     1      41.368 -15.692   4.398  1.00  0.00     0.080 C 
HETATM   24  C   UNL     1      43.451 -17.932   6.851  1.00  0.00     0.005 C 
HETATM   25  C   UNL     1      44.016 -16.745   7.642  1.00  0.00     0.005 C 
BRANCH  23  26
HETATM   26  C   UNL     1      41.233 -16.286   3.064  1.00  0.00     0.296 C 
HETATM   27  O   UNL     1      40.168 -16.348   2.463  1.00  0.00    -0.259 OA
BRANCH  26  28
HETATM   28  O   UNL     1      42.392 -16.868   2.630  1.00  0.00    -0.322 OA
HETATM   29  C   UNL     1      43.221 -16.005   1.852  1.00  0.00     0.213 C 
ENDBRANCH  26  28
ENDBRANCH  23  26
ENDBRANCH  14  17
ENDBRANCH  12  13
ENDBRANCH   2  12
BRANCH   1  30
HETATM   30  C   UNL     1      38.346 -10.551   0.120  1.00  0.00     0.006 A 
HETATM   31  C   UNL     1      38.878  -9.262   0.334  1.00  0.00     0.077 A 
HETATM   32  C   UNL     1      38.029  -8.198   0.661  1.00  0.00     0.037 A 
HETATM   33  C   UNL     1      36.655  -8.397   0.786  1.00  0.00     0.003 A 
HETATM   34  C   UNL     1      36.115  -9.659   0.575  1.00  0.00     0.001 A 
HETATM   35  C   UNL     1      36.949 -10.725   0.244  1.00  0.00     0.012 A 
BRANCH  31  36
HETATM   36  O   UNL     1      40.225  -9.101   0.142  1.00  0.00    -0.351 OA
BRANCH  36  37
HETATM   37  C   UNL     1      40.625  -8.139  -0.843  1.00  0.00     0.171 C 
HETATM   38  C   UNL     1      40.435  -8.770  -2.211  1.00  0.00     0.034 C 
ENDBRANCH  36  37
ENDBRANCH  31  36
ENDBRANCH   1  30
BRANCH   6  39
HETATM   39  O   UNL     1      40.611 -13.426  -2.196  1.00  0.00    -0.389 OA
HETATM   40  H   UNL     1      40.235 -12.775  -2.821  1.00  0.00     0.210 HD
ENDBRANCH   6  39
TORSDOF 9
ENDMDL
MODEL 9
REMARK VINA RESULT:      -7.6     17.494     19.439
REMARK  9 active torsions:
REMARK  status: ('A' for Active; 'I' for Inactive)
REMARK    1  A    between atoms: C_2  and  O_3 
REMARK    2  A    between atoms: O_3  and  C_4 
REMARK    3  A    between atoms: C_5  and  C_6 
REMARK    4  A    between atoms: N_7  and  C_9 
REMARK    5  A    between atoms: C_9  and  C_10 
REMARK       I    between atoms: C_10  and  N_11 
REMARK    6  A    between atoms: N_11  and  C_12 
REMARK    7  A    between atoms: C_20  and  C_21 
REMARK    8  A    between atoms: C_21  and  O_22 
REMARK    9  A    between atoms: C_28  and  O_29 
ROOT
HETATM    1  C   UNL     1      44.412 -30.135   0.086  1.00  0.00     0.231 C 
HETATM    2  N   UNL     1      45.520 -30.086   1.156  1.00  0.00    -0.054 N 
HETATM    3  H   UNL     1      44.946 -30.025   2.009  1.00  0.00     0.281 HD
HETATM    4  C   UNL     1      46.329 -28.822   1.141  1.00  0.00     0.239 C 
HETATM    5  C   UNL     1      46.895 -28.550  -0.240  1.00  0.00     0.066 C 
HETATM    6  C   UNL     1      45.763 -28.429  -1.257  1.00  0.00     0.065 C 
HETATM    7  C   UNL     1      44.967 -29.755  -1.314  1.00  0.00     0.055 C 
HETATM    8  C   UNL     1      46.304 -28.058  -2.648  1.00  0.00     0.038 C 
HETATM    9  C   UNL     1      45.181 -27.944  -3.678  1.00  0.00     0.003 C 
HETATM   10  C   UNL     1      44.339 -29.211  -3.728  1.00  0.00     0.001 C 
HETATM   11  C   UNL     1      43.825 -29.624  -2.350  1.00  0.00     0.010 C 
ENDROOT
BRANCH   2  12
HETATM   12  C   UNL     1      46.352 -31.371   1.379  1.00  0.00     0.338 C 
BRANCH  12  13
HETATM   13  C   UNL     1      46.645 -31.549   2.883  1.00  0.00     0.248 C 
HETATM   14  N   UNL     1      47.632 -32.517   3.090  1.00  0.00    -0.319 N 
HETATM   15  H   UNL     1      47.971 -33.040   2.294  1.00  0.00     0.169 HD
HETATM   16  O   UNL     1      46.180 -30.797   3.732  1.00  0.00    -0.271 OA
BRANCH  14  17
HETATM   17  C   UNL     1      48.617 -32.260   4.021  1.00  0.00     0.094 C 
HETATM   18  S   UNL     1      48.572 -33.405   5.281  1.00  0.00    -0.075 SA
HETATM   19  C   UNL     1      50.049 -32.851   5.896  1.00  0.00    -0.008 C 
HETATM   20  C   UNL     1      50.517 -31.734   5.226  1.00  0.00    -0.026 C 
HETATM   21  C   UNL     1      50.730 -33.524   7.049  1.00  0.00     0.047 C 
HETATM   22  C   UNL     1      51.762 -31.016   5.684  1.00  0.00     0.041 C 
HETATM   23  C   UNL     1      49.639 -31.339   4.138  1.00  0.00     0.080 C 
HETATM   24  C   UNL     1      52.607 -31.869   6.645  1.00  0.00     0.005 C 
HETATM   25  C   UNL     1      51.745 -32.576   7.699  1.00  0.00     0.005 C 
BRANCH  23  26
HETATM   26  C   UNL     1      49.786 -30.121   3.334  1.00  0.00     0.296 C 
HETATM   27  O   UNL     1      49.144 -29.100   3.542  1.00  0.00    -0.259 OA
BRANCH  26  28
HETATM   28  O   UNL     1      50.615 -30.298   2.261  1.00  0.00    -0.322 OA
HETATM   29  C   UNL     1      49.943 -30.320   1.002  1.00  0.00     0.213 C 
ENDBRANCH  26  28
ENDBRANCH  23  26
ENDBRANCH  14  17
ENDBRANCH  12  13
ENDBRANCH   2  12
BRANCH   1  30
HETATM   30  C   UNL     1      43.525 -31.368   0.238  1.00  0.00     0.006 A 
HETATM   31  C   UNL     1      42.603 -31.565   1.287  1.00  0.00     0.077 A 
HETATM   32  C   UNL     1      41.821 -32.726   1.325  1.00  0.00     0.037 A 
HETATM   33  C   UNL     1      41.948 -33.700   0.336  1.00  0.00     0.003 A 
HETATM   34  C   UNL     1      42.848 -33.520  -0.705  1.00  0.00     0.001 A 
HETATM   35  C   UNL     1      43.628 -32.366  -0.757  1.00  0.00     0.012 A 
BRANCH  31  36
HETATM   36  O   UNL     1      42.470 -30.554   2.202  1.00  0.00    -0.351 OA
BRANCH  36  37
HETATM   37  C   UNL     1      42.533 -30.925   3.585  1.00  0.00     0.171 C 
HETATM   38  C   UNL     1      41.278 -30.404   4.263  1.00  0.00     0.034 C 
ENDBRANCH  36  37
ENDBRANCH  31  36
ENDBRANCH   1  30
BRANCH   6  39
HETATM   39  O   UNL     1      44.894 -27.390  -0.791  1.00  0.00    -0.389 OA
HETATM   40  H   UNL     1      45.415 -26.578  -0.629  1.00  0.00     0.210 HD
ENDBRANCH   6  39
TORSDOF 9
ENDMDL
MODEL 10
REMARK VINA RESULT:      -7.5      2.716      7.972
REMARK  9 active torsions:
REMARK  status: ('A' for Active; 'I' for Inactive)
REMARK    1  A    between atoms: C_2  and  O_3 
REMARK    2  A    between atoms: O_3  and  C_4 
REMARK    3  A    between atoms: C_5  and  C_6 
REMARK    4  A    between atoms: N_7  and  C_9 
REMARK    5  A    between atoms: C_9  and  C_10 
REMARK       I    between atoms: C_10  and  N_11 
REMARK    6  A    between atoms: N_11  and  C_12 
REMARK    7  A    between atoms: C_20  and  C_21 
REMARK    8  A    between atoms: C_21  and  O_22 
REMARK    9  A    between atoms: C_28  and  O_29 
ROOT
HETATM    1  C   UNL     1      42.644  -8.695   7.129  1.00  0.00     0.231 C 
HETATM    2  N   UNL     1      42.478  -9.879   6.157  1.00  0.00    -0.054 N 
HETATM    3  H   UNL     1      43.463 -10.049   5.908  1.00  0.00     0.281 HD
HETATM    4  C   UNL     1      41.807  -9.519   4.864  1.00  0.00     0.239 C 
HETATM    5  C   UNL     1      40.479  -8.827   5.109  1.00  0.00     0.066 C 
HETATM    6  C   UNL     1      40.692  -7.558   5.930  1.00  0.00     0.065 C 
HETATM    7  C   UNL     1      41.309  -7.920   7.303  1.00  0.00     0.055 C 
HETATM    8  C   UNL     1      39.374  -6.787   6.111  1.00  0.00     0.038 C 
HETATM    9  C   UNL     1      39.572  -5.519   6.940  1.00  0.00     0.003 C 
HETATM   10  C   UNL     1      40.226  -5.824   8.280  1.00  0.00     0.001 C 
HETATM   11  C   UNL     1      41.517  -6.628   8.128  1.00  0.00     0.010 C 
ENDROOT
BRANCH   2  12
HETATM   12  C   UNL     1      42.024 -11.232   6.754  1.00  0.00     0.338 C 
BRANCH  12  13
HETATM   13  C   UNL     1      43.090 -12.311   6.472  1.00  0.00     0.248 C 
HETATM   14  N   UNL     1      42.544 -13.594   6.576  1.00  0.00    -0.319 N 
HETATM   15  H   UNL     1      41.589 -13.688   6.895  1.00  0.00     0.169 HD
HETATM   16  O   UNL     1      44.204 -12.032   6.045  1.00  0.00    -0.271 OA
BRANCH  14  17
HETATM   17  C   UNL     1      42.885 -14.531   5.622  1.00  0.00     0.094 C 
HETATM   18  S   UNL     1      43.687 -15.853   6.334  1.00  0.00    -0.075 SA
HETATM   19  C   UNL     1      43.589 -16.742   4.896  1.00  0.00    -0.008 C 
HETATM   20  C   UNL     1      43.058 -16.006   3.852  1.00  0.00    -0.026 C 
HETATM   21  C   UNL     1      44.049 -18.166   4.812  1.00  0.00     0.047 C 
HETATM   22  C   UNL     1      42.983 -16.574   2.457  1.00  0.00     0.041 C 
HETATM   23  C   UNL     1      42.686 -14.662   4.262  1.00  0.00     0.080 C 
HETATM   24  C   UNL     1      43.159 -18.101   2.440  1.00  0.00     0.005 C 
HETATM   25  C   UNL     1      44.303 -18.561   3.352  1.00  0.00     0.005 C 
BRANCH  23  26
HETATM   26  C   UNL     1      42.228 -13.600   3.360  1.00  0.00     0.296 C 
HETATM   27  O   UNL     1      42.957 -12.702   2.959  1.00  0.00    -0.259 OA
BRANCH  26  28
HETATM   28  O   UNL     1      40.881 -13.655   3.127  1.00  0.00    -0.322 OA
HETATM   29  C   UNL     1      40.119 -12.723   3.894  1.00  0.00     0.213 C 
ENDBRANCH  26  28
ENDBRANCH  23  26
ENDBRANCH  14  17
ENDBRANCH  12  13
ENDBRANCH   2  12
BRANCH   1  30
HETATM   30  C   UNL     1      43.461  -9.076   8.360  1.00  0.00     0.006 A 
HETATM   31  C   UNL     1      42.907  -9.460   9.600  1.00  0.00     0.077 A 
HETATM   32  C   UNL     1      43.746  -9.810  10.664  1.00  0.00     0.037 A 
HETATM   33  C   UNL     1      45.132  -9.778  10.518  1.00  0.00     0.003 A 
HETATM   34  C   UNL     1      45.693  -9.407   9.303  1.00  0.00     0.001 A 
HETATM   35  C   UNL     1      44.868  -9.061   8.234  1.00  0.00     0.012 A 
BRANCH  31  36
HETATM   36  O   UNL     1      41.541  -9.534   9.679  1.00  0.00    -0.351 OA
BRANCH  36  37
HETATM   37  C   UNL     1      40.941  -9.085  10.901  1.00  0.00     0.171 C 
HETATM   38  C   UNL     1      39.480  -8.784  10.617  1.00  0.00     0.034 C 
ENDBRANCH  36  37
ENDBRANCH  31  36
ENDBRANCH   1  30
BRANCH   6  39
HETATM   39  O   UNL     1      41.624  -6.745   5.206  1.00  0.00    -0.389 OA
HETATM   40  H   UNL     1      42.283  -6.375   5.826  1.00  0.00     0.210 HD
ENDBRANCH   6  39
TORSDOF 9
ENDMDL
