MODEL 1
REMARK VINA RESULT:      -8.8      0.000      0.000
REMARK  6 active torsions:
REMARK  status: ('A' for Active; 'I' for Inactive)
REMARK    1  A    between atoms: C_5  and  C_6 
REMARK    2  A    between atoms: C_6  and  O_7 
REMARK    3  A    between atoms: C_6  and  C_8 
REMARK    4  A    between atoms: C_8  and  N_9 
REMARK       I    between atoms: N_9  and  C_10 
REMARK    5  A    between atoms: C_10  and  C_11 
REMARK    6  A    between atoms: C_11  and  C_12 
ROOT
HETATM    1  N   UNL     1      44.679 -11.909   7.190  1.00  0.00    -0.358 N 
HETATM    2  C   UNL     1      44.026 -12.133   6.000  1.00  0.00     0.222 C 
HETATM    3  O   UNL     1      44.364 -11.612   4.941  1.00  0.00    -0.273 OA
HETATM    4  H   UNL     1      44.430 -12.459   8.002  1.00  0.00     0.162 HD
ENDROOT
BRANCH   1   5
HETATM    5  C   UNL     1      45.890 -11.105   7.266  1.00  0.00     0.159 C 
BRANCH   5   6
HETATM    6  C   UNL     1      45.684  -9.592   7.492  1.00  0.00     0.169 C 
BRANCH   6   7
HETATM    7  C   UNL     1      45.002  -9.262   8.805  1.00  0.00    -0.028 A 
HETATM    8  C   UNL     1      45.349  -9.958   9.971  1.00  0.00     0.010 A 
HETATM    9  C   UNL     1      44.713  -9.678  11.184  1.00  0.00     0.007 A 
HETATM   10  C   UNL     1      43.714  -8.701  11.252  1.00  0.00    -0.062 A 
HETATM   11  C   UNL     1      43.031  -8.389  12.550  1.00  0.00     0.048 C 
HETATM   12  C   UNL     1      43.378  -7.993  10.094  1.00  0.00     0.007 A 
HETATM   13  C   UNL     1      44.013  -8.272   8.882  1.00  0.00     0.010 A 
ENDBRANCH   6   7
BRANCH   6  14
HETATM   14  O   UNL     1      46.963  -8.943   7.465  1.00  0.00    -0.389 OA
HETATM   15  H   UNL     1      47.303  -9.048   6.559  1.00  0.00     0.210 HD
ENDBRANCH   6  14
ENDBRANCH   5   6
ENDBRANCH   1   5
BRANCH   2  16
HETATM   16  C   UNL     1      42.859 -13.100   6.089  1.00  0.00     0.142 C 
BRANCH  16  17
HETATM   17  C   UNL     1      43.185 -14.506   5.659  1.00  0.00    -0.031 A 
HETATM   18  C   UNL     1      43.937 -15.375   6.441  1.00  0.00     0.125 A 
HETATM   19  N   UNL     1      44.284 -16.630   6.071  1.00  0.00    -0.260 NA
HETATM   20  C   UNL     1      43.906 -17.063   4.857  1.00  0.00     0.066 A 
HETATM   21  C   UNL     1      43.162 -16.258   3.971  1.00  0.00    -0.007 A 
HETATM   22  C   UNL     1      44.260 -18.341   4.447  1.00  0.00     0.032 A 
HETATM   23  C   UNL     1      42.808 -14.968   4.395  1.00  0.00     0.022 A 
HETATM   24  C   UNL     1      42.803 -16.751   2.704  1.00  0.00     0.014 A 
HETATM   25  C   UNL     1      43.175 -18.037   2.315  1.00  0.00     0.001 A 
HETATM   26  C   UNL     1      43.905 -18.834   3.188  1.00  0.00     0.002 A 
ENDBRANCH  16  17
ENDBRANCH   2  16
TORSDOF 6
ENDMDL
MODEL 2
REMARK VINA RESULT:      -8.7      3.194      4.538
REMARK  6 active torsions:
REMARK  status: ('A' for Active; 'I' for Inactive)
REMARK    1  A    between atoms: C_5  and  C_6 
REMARK    2  A    between atoms: C_6  and  O_7 
REMARK    3  A    between atoms: C_6  and  C_8 
REMARK    4  A    between atoms: C_8  and  N_9 
REMARK       I    between atoms: N_9  and  C_10 
REMARK    5  A    between atoms: C_10  and  C_11 
REMARK    6  A    between atoms: C_11  and  C_12 
ROOT
HETATM    1  N   UNL     1      41.023 -14.154   3.417  1.00  0.00    -0.358 N 
HETATM    2  C   UNL     1      42.144 -13.782   2.710  1.00  0.00     0.222 C 
HETATM    3  O   UNL     1      42.604 -12.645   2.734  1.00  0.00    -0.273 OA
HETATM    4  H   UNL     1      40.764 -15.131   3.454  1.00  0.00     0.162 HD
ENDROOT
BRANCH   1   5
HETATM    5  C   UNL     1      40.350 -13.243   4.331  1.00  0.00     0.159 C 
BRANCH   5   6
HETATM    6  C   UNL     1      40.737 -13.370   5.819  1.00  0.00     0.169 C 
BRANCH   6   7
HETATM    7  C   UNL     1      42.051 -12.697   6.164  1.00  0.00    -0.028 A 
HETATM    8  C   UNL     1      43.171 -13.472   6.497  1.00  0.00     0.010 A 
HETATM    9  C   UNL     1      44.382 -12.864   6.838  1.00  0.00     0.007 A 
HETATM   10  C   UNL     1      44.495 -11.470   6.860  1.00  0.00    -0.062 A 
HETATM   11  C   UNL     1      45.791 -10.807   7.218  1.00  0.00     0.048 C 
HETATM   12  C   UNL     1      43.383 -10.694   6.512  1.00  0.00     0.007 A 
HETATM   13  C   UNL     1      42.173 -11.301   6.171  1.00  0.00     0.010 A 
ENDBRANCH   6   7
BRANCH   6  14
HETATM   14  O   UNL     1      39.700 -12.783   6.617  1.00  0.00    -0.389 OA
HETATM   15  H   UNL     1      38.984 -12.544   6.002  1.00  0.00     0.210 HD
ENDBRANCH   6  14
ENDBRANCH   5   6
ENDBRANCH   1   5
BRANCH   2  16
HETATM   16  C   UNL     1      42.789 -14.899   1.909  1.00  0.00     0.142 C 
BRANCH  16  17
HETATM   17  C   UNL     1      43.107 -16.134   2.711  1.00  0.00    -0.031 A 
HETATM   18  C   UNL     1      43.527 -16.082   4.035  1.00  0.00     0.125 A 
HETATM   19  N   UNL     1      43.861 -17.166   4.773  1.00  0.00    -0.260 NA
HETATM   20  C   UNL     1      43.813 -18.374   4.188  1.00  0.00     0.066 A 
HETATM   21  C   UNL     1      43.426 -18.542   2.843  1.00  0.00    -0.007 A 
HETATM   22  C   UNL     1      44.164 -19.502   4.917  1.00  0.00     0.032 A 
HETATM   23  C   UNL     1      43.073 -17.396   2.112  1.00  0.00     0.022 A 
HETATM   24  C   UNL     1      43.407 -19.826   2.269  1.00  0.00     0.014 A 
HETATM   25  C   UNL     1      43.767 -20.942   3.024  1.00  0.00     0.001 A 
HETATM   26  C   UNL     1      44.146 -20.779   4.351  1.00  0.00     0.002 A 
ENDBRANCH  16  17
ENDBRANCH   2  16
TORSDOF 6
ENDMDL
MODEL 3
REMARK VINA RESULT:      -8.5      4.365      6.081
REMARK  6 active torsions:
REMARK  status: ('A' for Active; 'I' for Inactive)
REMARK    1  A    between atoms: C_5  and  C_6 
REMARK    2  A    between atoms: C_6  and  O_7 
REMARK    3  A    between atoms: C_6  and  C_8 
REMARK    4  A    between atoms: C_8  and  N_9 
REMARK       I    between atoms: N_9  and  C_10 
REMARK    5  A    between atoms: C_10  and  C_11 
REMARK    6  A    between atoms: C_11  and  C_12 
ROOT
HETATM    1  N   UNL     1      39.115 -13.801   2.406  1.00  0.00    -0.358 N 
HETATM    2  C   UNL     1      39.719 -14.585   1.449  1.00  0.00     0.222 C 
HETATM    3  O   UNL     1      40.029 -14.166   0.338  1.00  0.00    -0.273 OA
HETATM    4  H   UNL     1      38.995 -14.168   3.341  1.00  0.00     0.162 HD
ENDROOT
BRANCH   1   5
HETATM    5  C   UNL     1      38.886 -12.378   2.205  1.00  0.00     0.159 C 
BRANCH   5   6
HETATM    6  C   UNL     1      40.116 -11.464   2.383  1.00  0.00     0.169 C 
BRANCH   6   7
HETATM    7  C   UNL     1      41.062 -11.923   3.475  1.00  0.00    -0.028 A 
HETATM    8  C   UNL     1      40.700 -11.783   4.822  1.00  0.00     0.010 A 
HETATM    9  C   UNL     1      41.571 -12.182   5.839  1.00  0.00     0.007 A 
HETATM   10  C   UNL     1      42.823 -12.723   5.529  1.00  0.00    -0.062 A 
HETATM   11  C   UNL     1      43.763 -13.161   6.613  1.00  0.00     0.048 C 
HETATM   12  C   UNL     1      43.180 -12.881   4.186  1.00  0.00     0.007 A 
HETATM   13  C   UNL     1      42.310 -12.482   3.169  1.00  0.00     0.010 A 
ENDBRANCH   6   7
BRANCH   6  14
HETATM   14  O   UNL     1      40.838 -11.418   1.144  1.00  0.00    -0.389 OA
HETATM   15  H   UNL     1      40.848 -10.485   0.868  1.00  0.00     0.210 HD
ENDBRANCH   6  14
ENDBRANCH   5   6
ENDBRANCH   1   5
BRANCH   2  16
HETATM   16  C   UNL     1      39.996 -16.014   1.881  1.00  0.00     0.142 C 
BRANCH  16  17
HETATM   17  C   UNL     1      41.153 -16.160   2.834  1.00  0.00    -0.031 A 
HETATM   18  C   UNL     1      42.452 -16.408   2.406  1.00  0.00     0.125 A 
HETATM   19  N   UNL     1      43.508 -16.587   3.233  1.00  0.00    -0.260 NA
HETATM   20  C   UNL     1      43.292 -16.552   4.558  1.00  0.00     0.066 A 
HETATM   21  C   UNL     1      42.011 -16.333   5.104  1.00  0.00    -0.007 A 
HETATM   22  C   UNL     1      44.354 -16.746   5.430  1.00  0.00     0.032 A 
HETATM   23  C   UNL     1      40.942 -16.138   4.216  1.00  0.00     0.022 A 
HETATM   24  C   UNL     1      41.831 -16.321   6.499  1.00  0.00     0.014 A 
HETATM   25  C   UNL     1      42.915 -16.523   7.352  1.00  0.00     0.001 A 
HETATM   26  C   UNL     1      44.180 -16.735   6.816  1.00  0.00     0.002 A 
ENDBRANCH  16  17
ENDBRANCH   2  16
TORSDOF 6
ENDMDL
MODEL 4
REMARK VINA RESULT:      -8.4      5.024      7.628
REMARK  6 active torsions:
REMARK  status: ('A' for Active; 'I' for Inactive)
REMARK    1  A    between atoms: C_5  and  C_6 
REMARK    2  A    between atoms: C_6  and  O_7 
REMARK    3  A    between atoms: C_6  and  C_8 
REMARK    4  A    between atoms: C_8  and  N_9 
REMARK       I    between atoms: N_9  and  C_10 
REMARK    5  A    between atoms: C_10  and  C_11 
REMARK    6  A    between atoms: C_11  and  C_12 
ROOT
HETATM    1  N   UNL     1      41.306 -12.280   2.414  1.00  0.00    -0.358 N 
HETATM    2  C   UNL     1      40.235 -12.106   3.261  1.00  0.00     0.222 C 
HETATM    3  O   UNL     1      39.073 -12.049   2.870  1.00  0.00    -0.273 OA
HETATM    4  H   UNL     1      42.224 -12.440   2.806  1.00  0.00     0.162 HD
ENDROOT
BRANCH   1   5
HETATM    5  C   UNL     1      41.131 -12.510   0.987  1.00  0.00     0.159 C 
BRANCH   5   6
HETATM    6  C   UNL     1      40.799 -13.959   0.572  1.00  0.00     0.169 C 
BRANCH   6   7
HETATM    7  C   UNL     1      41.509 -15.007   1.406  1.00  0.00    -0.028 A 
HETATM    8  C   UNL     1      42.878 -15.242   1.222  1.00  0.00     0.010 A 
HETATM    9  C   UNL     1      43.539 -16.221   1.969  1.00  0.00     0.007 A 
HETATM   10  C   UNL     1      42.843 -16.987   2.910  1.00  0.00    -0.062 A 
HETATM   11  C   UNL     1      43.544 -18.035   3.721  1.00  0.00     0.048 C 
HETATM   12  C   UNL     1      41.479 -16.743   3.108  1.00  0.00     0.007 A 
HETATM   13  C   UNL     1      40.818 -15.766   2.361  1.00  0.00     0.010 A 
ENDBRANCH   6   7
BRANCH   6  14
HETATM   14  O   UNL     1      39.384 -14.160   0.693  1.00  0.00    -0.389 OA
HETATM   15  H   UNL     1      39.245 -14.625   1.537  1.00  0.00     0.210 HD
ENDBRANCH   6  14
ENDBRANCH   5   6
ENDBRANCH   1   5
BRANCH   2  16
HETATM   16  C   UNL     1      40.598 -12.011   4.732  1.00  0.00     0.142 C 
BRANCH  16  17
HETATM   17  C   UNL     1      41.093 -13.300   5.333  1.00  0.00    -0.031 A 
HETATM   18  C   UNL     1      40.249 -14.210   5.959  1.00  0.00     0.125 A 
HETATM   19  N   UNL     1      40.663 -15.357   6.546  1.00  0.00    -0.260 NA
HETATM   20  C   UNL     1      41.979 -15.629   6.555  1.00  0.00     0.066 A 
HETATM   21  C   UNL     1      42.928 -14.765   5.973  1.00  0.00    -0.007 A 
HETATM   22  C   UNL     1      42.432 -16.792   7.163  1.00  0.00     0.032 A 
HETATM   23  C   UNL     1      42.460 -13.591   5.361  1.00  0.00     0.022 A 
HETATM   24  C   UNL     1      44.296 -15.085   6.021  1.00  0.00     0.014 A 
HETATM   25  C   UNL     1      44.725 -16.258   6.641  1.00  0.00     0.001 A 
HETATM   26  C   UNL     1      43.791 -17.113   7.212  1.00  0.00     0.002 A 
ENDBRANCH  16  17
ENDBRANCH   2  16
TORSDOF 6
ENDMDL
MODEL 5
REMARK VINA RESULT:      -8.3      5.630      8.688
REMARK  6 active torsions:
REMARK  status: ('A' for Active; 'I' for Inactive)
REMARK    1  A    between atoms: C_5  and  C_6 
REMARK    2  A    between atoms: C_6  and  O_7 
REMARK    3  A    between atoms: C_6  and  C_8 
REMARK    4  A    between atoms: C_8  and  N_9 
REMARK       I    between atoms: N_9  and  C_10 
REMARK    5  A    between atoms: C_10  and  C_11 
REMARK    6  A    between atoms: C_11  and  C_12 
ROOT
HETATM    1  N   UNL     1      41.229 -13.531   2.647  1.00  0.00    -0.358 N 
HETATM    2  C   UNL     1      41.602 -14.066   3.859  1.00  0.00     0.222 C 
HETATM    3  O   UNL     1      40.817 -14.234   4.788  1.00  0.00    -0.273 OA
HETATM    4  H   UNL     1      41.891 -13.530   1.883  1.00  0.00     0.162 HD
ENDROOT
BRANCH   1   5
HETATM    5  C   UNL     1      39.843 -13.211   2.339  1.00  0.00     0.159 C 
BRANCH   5   6
HETATM    6  C   UNL     1      39.620 -12.227   1.172  1.00  0.00     0.169 C 
BRANCH   6   7
HETATM    7  C   UNL     1      39.198 -12.901  -0.119  1.00  0.00    -0.028 A 
HETATM    8  C   UNL     1      39.770 -14.124  -0.493  1.00  0.00     0.010 A 
HETATM    9  C   UNL     1      39.405 -14.745  -1.690  1.00  0.00     0.007 A 
HETATM   10  C   UNL     1      38.466 -14.151  -2.540  1.00  0.00    -0.062 A 
HETATM   11  C   UNL     1      38.062 -14.812  -3.824  1.00  0.00     0.048 C 
HETATM   12  C   UNL     1      37.880 -12.938  -2.162  1.00  0.00     0.007 A 
HETATM   13  C   UNL     1      38.245 -12.317  -0.965  1.00  0.00     0.010 A 
ENDBRANCH   6   7
BRANCH   6  14
HETATM   14  O   UNL     1      38.605 -11.286   1.549  1.00  0.00    -0.389 OA
HETATM   15  H   UNL     1      39.015 -10.689   2.200  1.00  0.00     0.210 HD
ENDBRANCH   6  14
ENDBRANCH   5   6
ENDBRANCH   1   5
BRANCH   2  16
HETATM   16  C   UNL     1      43.065 -14.458   3.956  1.00  0.00     0.142 C 
BRANCH  16  17
HETATM   17  C   UNL     1      43.302 -15.936   4.122  1.00  0.00    -0.031 A 
HETATM   18  C   UNL     1      43.818 -16.488   5.288  1.00  0.00     0.125 A 
HETATM   19  N   UNL     1      44.083 -17.805   5.458  1.00  0.00    -0.260 NA
HETATM   20  C   UNL     1      43.861 -18.637   4.428  1.00  0.00     0.066 A 
HETATM   21  C   UNL     1      43.363 -18.183   3.191  1.00  0.00    -0.007 A 
HETATM   22  C   UNL     1      44.136 -19.990   4.571  1.00  0.00     0.032 A 
HETATM   23  C   UNL     1      43.087 -16.813   3.055  1.00  0.00     0.022 A 
HETATM   24  C   UNL     1      43.162 -19.091   2.135  1.00  0.00     0.014 A 
HETATM   25  C   UNL     1      43.450 -20.445   2.304  1.00  0.00     0.001 A 
HETATM   26  C   UNL     1      43.938 -20.895   3.525  1.00  0.00     0.002 A 
ENDBRANCH  16  17
ENDBRANCH   2  16
TORSDOF 6
ENDMDL
MODEL 6
REMARK VINA RESULT:      -8.2      1.722      2.202
REMARK  6 active torsions:
REMARK  status: ('A' for Active; 'I' for Inactive)
REMARK    1  A    between atoms: C_5  and  C_6 
REMARK    2  A    between atoms: C_6  and  O_7 
REMARK    3  A    between atoms: C_6  and  C_8 
REMARK    4  A    between atoms: C_8  and  N_9 
REMARK       I    between atoms: N_9  and  C_10 
REMARK    5  A    between atoms: C_10  and  C_11 
REMARK    6  A    between atoms: C_11  and  C_12 
ROOT
HETATM    1  N   UNL     1      43.102 -11.735   7.430  1.00  0.00    -0.358 N 
HETATM    2  C   UNL     1      43.911 -12.764   7.004  1.00  0.00     0.222 C 
HETATM    3  O   UNL     1      45.036 -12.586   6.545  1.00  0.00    -0.273 OA
HETATM    4  H   UNL     1      42.238 -11.952   7.909  1.00  0.00     0.162 HD
ENDROOT
BRANCH   1   5
HETATM    5  C   UNL     1      43.562 -10.354   7.458  1.00  0.00     0.159 C 
BRANCH   5   6
HETATM    6  C   UNL     1      44.257  -9.901   8.759  1.00  0.00     0.169 C 
BRANCH   6   7
HETATM    7  C   UNL     1      43.333  -9.863   9.961  1.00  0.00    -0.028 A 
HETATM    8  C   UNL     1      43.753 -10.395  11.187  1.00  0.00     0.010 A 
HETATM    9  C   UNL     1      42.903 -10.386  12.296  1.00  0.00     0.007 A 
HETATM   10  C   UNL     1      41.614  -9.851  12.198  1.00  0.00    -0.062 A 
HETATM   11  C   UNL     1      40.696  -9.831  13.384  1.00  0.00     0.048 C 
HETATM   12  C   UNL     1      41.198  -9.304  10.980  1.00  0.00     0.007 A 
HETATM   13  C   UNL     1      42.047  -9.313   9.871  1.00  0.00     0.010 A 
ENDBRANCH   6   7
BRANCH   6  14
HETATM   14  O   UNL     1      45.337 -10.801   9.042  1.00  0.00    -0.389 OA
HETATM   15  H   UNL     1      45.952 -10.735   8.290  1.00  0.00     0.210 HD
ENDBRANCH   6  14
ENDBRANCH   5   6
ENDBRANCH   1   5
BRANCH   2  16
HETATM   16  C   UNL     1      43.313 -14.150   7.166  1.00  0.00     0.142 C 
BRANCH  16  17
HETATM   17  C   UNL     1      43.197 -14.929   5.882  1.00  0.00    -0.031 A 
HETATM   18  C   UNL     1      42.468 -14.474   4.790  1.00  0.00     0.125 A 
HETATM   19  N   UNL     1      42.307 -15.164   3.638  1.00  0.00    -0.260 NA
HETATM   20  C   UNL     1      42.861 -16.384   3.543  1.00  0.00     0.066 A 
HETATM   21  C   UNL     1      43.601 -16.955   4.598  1.00  0.00    -0.007 A 
HETATM   22  C   UNL     1      42.701 -17.120   2.377  1.00  0.00     0.032 A 
HETATM   23  C   UNL     1      43.759 -16.205   5.773  1.00  0.00     0.022 A 
HETATM   24  C   UNL     1      44.150 -18.243   4.458  1.00  0.00     0.014 A 
HETATM   25  C   UNL     1      43.970 -18.962   3.277  1.00  0.00     0.001 A 
HETATM   26  C   UNL     1      43.244 -18.399   2.234  1.00  0.00     0.002 A 
ENDBRANCH  16  17
ENDBRANCH   2  16
TORSDOF 6
ENDMDL
MODEL 7
REMARK VINA RESULT:      -8.2      2.398      8.765
REMARK  6 active torsions:
REMARK  status: ('A' for Active; 'I' for Inactive)
REMARK    1  A    between atoms: C_5  and  C_6 
REMARK    2  A    between atoms: C_6  and  O_7 
REMARK    3  A    between atoms: C_6  and  C_8 
REMARK    4  A    between atoms: C_8  and  N_9 
REMARK       I    between atoms: N_9  and  C_10 
REMARK    5  A    between atoms: C_10  and  C_11 
REMARK    6  A    between atoms: C_11  and  C_12 
ROOT
HETATM    1  N   UNL     1      41.493 -14.358   4.005  1.00  0.00    -0.358 N 
HETATM    2  C   UNL     1      41.693 -12.998   4.050  1.00  0.00     0.222 C 
HETATM    3  O   UNL     1      42.136 -12.354   3.103  1.00  0.00    -0.273 OA
HETATM    4  H   UNL     1      41.014 -14.813   4.772  1.00  0.00     0.162 HD
ENDROOT
BRANCH   1   5
HETATM    5  C   UNL     1      41.702 -15.129   2.788  1.00  0.00     0.159 C 
BRANCH   5   6
HETATM    6  C   UNL     1      43.142 -15.627   2.543  1.00  0.00     0.169 C 
BRANCH   6   7
HETATM    7  C   UNL     1      43.443 -16.962   3.196  1.00  0.00    -0.028 A 
HETATM    8  C   UNL     1      43.737 -17.024   4.565  1.00  0.00     0.010 A 
HETATM    9  C   UNL     1      44.037 -18.246   5.174  1.00  0.00     0.007 A 
HETATM   10  C   UNL     1      44.055 -19.427   4.425  1.00  0.00    -0.062 A 
HETATM   11  C   UNL     1      44.369 -20.743   5.070  1.00  0.00     0.048 C 
HETATM   12  C   UNL     1      43.745 -19.370   3.062  1.00  0.00     0.007 A 
HETATM   13  C   UNL     1      43.445 -18.150   2.453  1.00  0.00     0.010 A 
ENDBRANCH   6   7
BRANCH   6  14
HETATM   14  O   UNL     1      43.352 -15.753   1.130  1.00  0.00    -0.389 OA
HETATM   15  H   UNL     1      42.707 -16.410   0.815  1.00  0.00     0.210 HD
ENDBRANCH   6  14
ENDBRANCH   5   6
ENDBRANCH   1   5
BRANCH   2  16
HETATM   16  C   UNL     1      41.301 -12.341   5.361  1.00  0.00     0.142 C 
BRANCH  16  17
HETATM   17  C   UNL     1      42.464 -11.829   6.171  1.00  0.00    -0.031 A 
HETATM   18  C   UNL     1      43.539 -12.632   6.531  1.00  0.00     0.125 A 
HETATM   19  N   UNL     1      44.580 -12.219   7.292  1.00  0.00    -0.260 NA
HETATM   20  C   UNL     1      44.568 -10.959   7.757  1.00  0.00     0.066 A 
HETATM   21  C   UNL     1      43.515 -10.065   7.475  1.00  0.00    -0.007 A 
HETATM   22  C   UNL     1      45.616 -10.513   8.551  1.00  0.00     0.032 A 
HETATM   23  C   UNL     1      42.460 -10.524   6.672  1.00  0.00     0.022 A 
HETATM   24  C   UNL     1      43.539  -8.760   7.998  1.00  0.00     0.014 A 
HETATM   25  C   UNL     1      44.603  -8.338   8.796  1.00  0.00     0.001 A 
HETATM   26  C   UNL     1      45.643  -9.217   9.072  1.00  0.00     0.002 A 
ENDBRANCH  16  17
ENDBRANCH   2  16
TORSDOF 6
ENDMDL
MODEL 8
REMARK VINA RESULT:      -8.2      3.610      5.834
REMARK  6 active torsions:
REMARK  status: ('A' for Active; 'I' for Inactive)
REMARK    1  A    between atoms: C_5  and  C_6 
REMARK    2  A    between atoms: C_6  and  O_7 
REMARK    3  A    between atoms: C_6  and  C_8 
REMARK    4  A    between atoms: C_8  and  N_9 
REMARK       I    between atoms: N_9  and  C_10 
REMARK    5  A    between atoms: C_10  and  C_11 
REMARK    6  A    between atoms: C_11  and  C_12 
ROOT
HETATM    1  N   UNL     1      42.178 -12.755   6.369  1.00  0.00    -0.358 N 
HETATM    2  C   UNL     1      43.241 -13.543   6.745  1.00  0.00     0.222 C 
HETATM    3  O   UNL     1      44.412 -13.202   6.604  1.00  0.00    -0.273 OA
HETATM    4  H   UNL     1      41.240 -13.037   6.621  1.00  0.00     0.162 HD
ENDROOT
BRANCH   1   5
HETATM    5  C   UNL     1      42.362 -11.403   5.861  1.00  0.00     0.159 C 
BRANCH   5   6
HETATM    6  C   UNL     1      42.742 -11.288   4.370  1.00  0.00     0.169 C 
BRANCH   6   7
HETATM    7  C   UNL     1      42.066 -12.321   3.489  1.00  0.00    -0.028 A 
HETATM    8  C   UNL     1      40.681 -12.518   3.575  1.00  0.00     0.010 A 
HETATM    9  C   UNL     1      40.049 -13.482   2.785  1.00  0.00     0.007 A 
HETATM   10  C   UNL     1      40.790 -14.270   1.898  1.00  0.00    -0.062 A 
HETATM   11  C   UNL     1      40.120 -15.302   1.041  1.00  0.00     0.048 C 
HETATM   12  C   UNL     1      42.170 -14.064   1.798  1.00  0.00     0.007 A 
HETATM   13  C   UNL     1      42.802 -13.101   2.588  1.00  0.00     0.010 A 
ENDBRANCH   6   7
BRANCH   6  14
HETATM   14  O   UNL     1      42.381  -9.981   3.902  1.00  0.00    -0.389 OA
HETATM   15  H   UNL     1      42.682  -9.354   4.582  1.00  0.00     0.210 HD
ENDBRANCH   6  14
ENDBRANCH   5   6
ENDBRANCH   1   5
BRANCH   2  16
HETATM   16  C   UNL     1      42.857 -14.871   7.373  1.00  0.00     0.142 C 
BRANCH  16  17
HETATM   17  C   UNL     1      43.101 -16.068   6.493  1.00  0.00    -0.031 A 
HETATM   18  C   UNL     1      43.637 -17.257   6.974  1.00  0.00     0.125 A 
HETATM   19  N   UNL     1      43.909 -18.338   6.206  1.00  0.00    -0.260 NA
HETATM   20  C   UNL     1      43.676 -18.256   4.886  1.00  0.00     0.066 A 
HETATM   21  C   UNL     1      43.157 -17.091   4.287  1.00  0.00    -0.007 A 
HETATM   22  C   UNL     1      43.959 -19.346   4.074  1.00  0.00     0.032 A 
HETATM   23  C   UNL     1      42.874 -15.995   5.116  1.00  0.00     0.022 A 
HETATM   24  C   UNL     1      42.944 -17.048   2.897  1.00  0.00     0.014 A 
HETATM   25  C   UNL     1      43.240 -18.155   2.103  1.00  0.00     0.001 A 
HETATM   26  C   UNL     1      43.748 -19.307   2.693  1.00  0.00     0.002 A 
ENDBRANCH  16  17
ENDBRANCH   2  16
TORSDOF 6
ENDMDL
MODEL 9
REMARK VINA RESULT:      -8.1      5.432      8.614
REMARK  6 active torsions:
REMARK  status: ('A' for Active; 'I' for Inactive)
REMARK    1  A    between atoms: C_5  and  C_6 
REMARK    2  A    between atoms: C_6  and  O_7 
REMARK    3  A    between atoms: C_6  and  C_8 
REMARK    4  A    between atoms: C_8  and  N_9 
REMARK       I    between atoms: N_9  and  C_10 
REMARK    5  A    between atoms: C_10  and  C_11 
REMARK    6  A    between atoms: C_11  and  C_12 
ROOT
HETATM    1  N   UNL     1      40.592 -14.546   4.538  1.00  0.00    -0.358 N 
HETATM    2  C   UNL     1      40.428 -13.183   4.438  1.00  0.00     0.222 C 
HETATM    3  O   UNL     1      41.100 -12.378   5.076  1.00  0.00    -0.273 OA
HETATM    4  H   UNL     1      40.094 -15.152   3.899  1.00  0.00     0.162 HD
ENDROOT
BRANCH   1   5
HETATM    5  C   UNL     1      41.650 -15.138   5.344  1.00  0.00     0.159 C 
BRANCH   5   6
HETATM    6  C   UNL     1      43.018 -15.301   4.648  1.00  0.00     0.169 C 
BRANCH   6   7
HETATM    7  C   UNL     1      43.203 -16.650   3.982  1.00  0.00    -0.028 A 
HETATM    8  C   UNL     1      43.966 -17.645   4.609  1.00  0.00     0.010 A 
HETATM    9  C   UNL     1      44.163 -18.885   3.996  1.00  0.00     0.007 A 
HETATM   10  C   UNL     1      43.605 -19.152   2.741  1.00  0.00    -0.062 A 
HETATM   11  C   UNL     1      43.805 -20.482   2.077  1.00  0.00     0.048 C 
HETATM   12  C   UNL     1      42.830 -18.168   2.120  1.00  0.00     0.007 A 
HETATM   13  C   UNL     1      42.633 -16.928   2.732  1.00  0.00     0.010 A 
ENDBRANCH   6   7
BRANCH   6  14
HETATM   14  O   UNL     1      43.153 -14.278   3.652  1.00  0.00    -0.389 OA
HETATM   15  H   UNL     1      44.085 -14.288   3.373  1.00  0.00     0.210 HD
ENDBRANCH   6  14
ENDBRANCH   5   6
ENDBRANCH   1   5
BRANCH   2  16
HETATM   16  C   UNL     1      39.360 -12.743   3.453  1.00  0.00     0.142 C 
BRANCH  16  17
HETATM   17  C   UNL     1      39.858 -12.548   2.045  1.00  0.00    -0.031 A 
HETATM   18  C   UNL     1      40.519 -11.397   1.634  1.00  0.00     0.125 A 
HETATM   19  N   UNL     1      40.943 -11.169   0.370  1.00  0.00    -0.260 NA
HETATM   20  C   UNL     1      40.688 -12.099  -0.565  1.00  0.00     0.066 A 
HETATM   21  C   UNL     1      40.002 -13.294  -0.267  1.00  0.00    -0.007 A 
HETATM   22  C   UNL     1      41.099 -11.885  -1.873  1.00  0.00     0.032 A 
HETATM   23  C   UNL     1      39.590 -13.502   1.059  1.00  0.00     0.022 A 
HETATM   24  C   UNL     1      39.744 -14.231  -1.283  1.00  0.00     0.014 A 
HETATM   25  C   UNL     1      40.165 -13.990  -2.590  1.00  0.00     0.001 A 
HETATM   26  C   UNL     1      40.845 -12.814  -2.885  1.00  0.00     0.002 A 
ENDBRANCH  16  17
ENDBRANCH   2  16
TORSDOF 6
ENDMDL
MODEL 10
REMARK VINA RESULT:      -8.1      1.533      9.149
REMARK  6 active torsions:
REMARK  status: ('A' for Active; 'I' for Inactive)
REMARK    1  A    between atoms: C_5  and  C_6 
REMARK    2  A    between atoms: C_6  and  O_7 
REMARK    3  A    between atoms: C_6  and  C_8 
REMARK    4  A    between atoms: C_8  and  N_9 
REMARK       I    between atoms: N_9  and  C_10 
REMARK    5  A    between atoms: C_10  and  C_11 
REMARK    6  A    between atoms: C_11  and  C_12 
ROOT
HETATM    1  N   UNL     1      44.368 -12.276   7.109  1.00  0.00    -0.358 N 
HETATM    2  C   UNL     1      45.398 -11.421   6.789  1.00  0.00     0.222 C 
HETATM    3  O   UNL     1      45.756 -11.205   5.635  1.00  0.00    -0.273 OA
HETATM    4  H   UNL     1      44.041 -12.319   8.065  1.00  0.00     0.162 HD
ENDROOT
BRANCH   1   5
HETATM    5  C   UNL     1      43.555 -12.920   6.088  1.00  0.00     0.159 C 
BRANCH   5   6
HETATM    6  C   UNL     1      42.809 -14.198   6.526  1.00  0.00     0.169 C 
BRANCH   6   7
HETATM    7  C   UNL     1      43.087 -15.397   5.640  1.00  0.00    -0.028 A 
HETATM    8  C   UNL     1      43.935 -16.419   6.087  1.00  0.00     0.010 A 
HETATM    9  C   UNL     1      44.216 -17.519   5.272  1.00  0.00     0.007 A 
HETATM   10  C   UNL     1      43.659 -17.615   3.993  1.00  0.00    -0.062 A 
HETATM   11  C   UNL     1      43.949 -18.794   3.113  1.00  0.00     0.048 C 
HETATM   12  C   UNL     1      42.798 -16.605   3.550  1.00  0.00     0.007 A 
HETATM   13  C   UNL     1      42.517 -15.506   4.364  1.00  0.00     0.010 A 
ENDBRANCH   6   7
BRANCH   6  14
HETATM   14  O   UNL     1      43.198 -14.522   7.868  1.00  0.00    -0.389 OA
HETATM   15  H   UNL     1      43.826 -15.263   7.799  1.00  0.00     0.210 HD
ENDBRANCH   6  14
ENDBRANCH   5   6
ENDBRANCH   1   5
BRANCH   2  16
HETATM   16  C   UNL     1      46.050 -10.739   7.979  1.00  0.00     0.142 C 
BRANCH  16  17
HETATM   17  C   UNL     1      45.145  -9.794   8.724  1.00  0.00    -0.031 A 
HETATM   18  C   UNL     1      44.721  -8.582   8.191  1.00  0.00     0.125 A 
HETATM   19  N   UNL     1      43.944  -7.689   8.846  1.00  0.00    -0.260 NA
HETATM   20  C   UNL     1      43.575  -7.970  10.107  1.00  0.00     0.066 A 
HETATM   21  C   UNL     1      43.968  -9.158  10.756  1.00  0.00    -0.007 A 
HETATM   22  C   UNL     1      42.789  -7.066  10.807  1.00  0.00     0.032 A 
HETATM   23  C   UNL     1      44.763 -10.067  10.041  1.00  0.00     0.022 A 
HETATM   24  C   UNL     1      43.570  -9.401  12.083  1.00  0.00     0.014 A 
HETATM   25  C   UNL     1      42.784  -8.473  12.765  1.00  0.00     0.001 A 
HETATM   26  C   UNL     1      42.392  -7.304  12.125  1.00  0.00     0.002 A 
ENDBRANCH  16  17
ENDBRANCH   2  16
TORSDOF 6
ENDMDL
