MODEL 1
REMARK VINA RESULT:      -8.4      0.000      0.000
REMARK  1 active torsions:
REMARK  status: ('A' for Active; 'I' for Inactive)
REMARK    1  A    between atoms: C_6  and  N_7 
ROOT
HETATM    1  N   UNL     1      42.121 -15.253   4.806  1.00  0.00    -0.320 N 
HETATM    2  C   UNL     1      40.816 -15.079   5.346  1.00  0.00     0.141 C 
HETATM    3  N   UNL     1      40.107 -16.082   5.781  1.00  0.00    -0.380 N 
HETATM    4  H   UNL     1      39.184 -15.919   6.156  1.00  0.00     0.158 HD
HETATM    5  H   UNL     1      40.504 -17.012   5.742  1.00  0.00     0.158 HD
HETATM    6  S   UNL     1      40.279 -13.453   5.337  1.00  0.00    -0.086 SA
HETATM    7  C   UNL     1      41.627 -12.968   4.175  1.00  0.00     0.093 C 
HETATM    8  C   UNL     1      42.776 -13.971   4.446  1.00  0.00     0.121 C 
HETATM    9  C   UNL     1      42.143 -11.556   4.349  1.00  0.00     0.158 C 
HETATM   10  S   UNL     1      43.491 -11.661   5.498  1.00  0.00     0.147 S 
HETATM   11  O   UNL     1      43.064 -11.125   6.771  1.00  0.00    -0.228 OA
HETATM   12  O   UNL     1      44.689 -11.205   4.825  1.00  0.00    -0.228 OA
HETATM   13  C   UNL     1      43.574 -13.424   5.629  1.00  0.00     0.167 C 
ENDROOT
BRANCH   1  14
HETATM   14  C   UNL     1      42.594 -16.412   4.153  1.00  0.00     0.048 A 
HETATM   15  C   UNL     1      42.099 -16.780   2.876  1.00  0.00    -0.034 A 
HETATM   16  C   UNL     1      42.533 -17.974   2.271  1.00  0.00     0.015 A 
HETATM   17  C   UNL     1      41.093 -15.954   2.117  1.00  0.00     0.050 C 
HETATM   18  C   UNL     1      43.466 -18.803   2.892  1.00  0.00    -0.061 A 
HETATM   19  C   UNL     1      43.949 -20.054   2.218  1.00  0.00     0.048 C 
HETATM   20  C   UNL     1      43.981 -18.422   4.130  1.00  0.00     0.015 A 
HETATM   21  C   UNL     1      43.541 -17.254   4.780  1.00  0.00    -0.034 A 
HETATM   22  C   UNL     1      44.129 -16.963   6.134  1.00  0.00     0.050 C 
ENDBRANCH   1  14
TORSDOF 1
ENDMDL
MODEL 2
REMARK VINA RESULT:      -8.4      1.427      1.656
REMARK  1 active torsions:
REMARK  status: ('A' for Active; 'I' for Inactive)
REMARK    1  A    between atoms: C_6  and  N_7 
ROOT
HETATM    1  N   UNL     1      42.206 -15.250   4.330  1.00  0.00    -0.320 N 
HETATM    2  C   UNL     1      40.909 -15.011   3.797  1.00  0.00     0.141 C 
HETATM    3  N   UNL     1      39.943 -15.877   3.911  1.00  0.00    -0.380 N 
HETATM    4  H   UNL     1      39.036 -15.672   3.518  1.00  0.00     0.158 HD
HETATM    5  H   UNL     1      40.120 -16.743   4.404  1.00  0.00     0.158 HD
HETATM    6  S   UNL     1      40.765 -13.510   2.985  1.00  0.00    -0.086 SA
HETATM    7  C   UNL     1      42.599 -13.315   2.930  1.00  0.00     0.093 C 
HETATM    8  C   UNL     1      43.128 -14.100   4.156  1.00  0.00     0.121 C 
HETATM    9  C   UNL     1      43.091 -11.885   3.000  1.00  0.00     0.158 C 
HETATM   10  S   UNL     1      43.341 -11.532   4.721  1.00  0.00     0.147 S 
HETATM   11  O   UNL     1      42.282 -10.660   5.179  1.00  0.00    -0.228 OA
HETATM   12  O   UNL     1      44.742 -11.224   4.916  1.00  0.00    -0.228 OA
HETATM   13  C   UNL     1      43.045 -13.158   5.357  1.00  0.00     0.167 C 
ENDROOT
BRANCH   1  14
HETATM   14  C   UNL     1      42.802 -16.518   4.509  1.00  0.00     0.048 A 
HETATM   15  C   UNL     1      43.273 -17.262   3.398  1.00  0.00    -0.034 A 
HETATM   16  C   UNL     1      43.802 -18.552   3.589  1.00  0.00     0.015 A 
HETATM   17  C   UNL     1      43.220 -16.747   1.983  1.00  0.00     0.050 C 
HETATM   18  C   UNL     1      43.898 -19.114   4.861  1.00  0.00    -0.061 A 
HETATM   19  C   UNL     1      44.501 -20.475   5.055  1.00  0.00     0.048 C 
HETATM   20  C   UNL     1      43.471 -18.366   5.958  1.00  0.00     0.015 A 
HETATM   21  C   UNL     1      42.902 -17.089   5.798  1.00  0.00    -0.034 A 
HETATM   22  C   UNL     1      42.431 -16.391   7.045  1.00  0.00     0.050 C 
ENDBRANCH   1  14
TORSDOF 1
ENDMDL
MODEL 3
REMARK VINA RESULT:      -8.4      0.127      1.955
REMARK  1 active torsions:
REMARK  status: ('A' for Active; 'I' for Inactive)
REMARK    1  A    between atoms: C_6  and  N_7 
ROOT
HETATM    1  N   UNL     1      42.054 -15.260   4.843  1.00  0.00    -0.320 N 
HETATM    2  C   UNL     1      40.785 -15.064   5.456  1.00  0.00     0.141 C 
HETATM    3  N   UNL     1      40.099 -16.050   5.958  1.00  0.00    -0.380 N 
HETATM    4  H   UNL     1      39.201 -15.871   6.383  1.00  0.00     0.158 HD
HETATM    5  H   UNL     1      40.487 -16.983   5.919  1.00  0.00     0.158 HD
HETATM    6  S   UNL     1      40.258 -13.434   5.438  1.00  0.00    -0.086 SA
HETATM    7  C   UNL     1      41.537 -12.988   4.185  1.00  0.00     0.093 C 
HETATM    8  C   UNL     1      42.694 -13.992   4.412  1.00  0.00     0.121 C 
HETATM    9  C   UNL     1      42.070 -11.575   4.293  1.00  0.00     0.158 C 
HETATM   10  S   UNL     1      43.484 -11.661   5.361  1.00  0.00     0.147 S 
HETATM   11  O   UNL     1      43.137 -11.091   6.644  1.00  0.00    -0.228 OA
HETATM   12  O   UNL     1      44.642 -11.231   4.606  1.00  0.00    -0.228 OA
HETATM   13  C   UNL     1      43.565 -13.422   5.531  1.00  0.00     0.167 C 
ENDROOT
BRANCH   1  14
HETATM   14  C   UNL     1      42.481 -16.438   4.192  1.00  0.00     0.048 A 
HETATM   15  C   UNL     1      43.470 -17.272   4.774  1.00  0.00    -0.034 A 
HETATM   16  C   UNL     1      43.931 -18.405   4.079  1.00  0.00     0.015 A 
HETATM   17  C   UNL     1      44.085 -16.998   6.121  1.00  0.00     0.050 C 
HETATM   18  C   UNL     1      43.419 -18.746   2.828  1.00  0.00    -0.061 A 
HETATM   19  C   UNL     1      43.892 -19.979   2.116  1.00  0.00     0.048 C 
HETATM   20  C   UNL     1      42.419 -17.947   2.273  1.00  0.00     0.015 A 
HETATM   21  C   UNL     1      41.962 -16.786   2.924  1.00  0.00    -0.034 A 
HETATM   22  C   UNL     1      40.915 -15.973   2.213  1.00  0.00     0.050 C 
ENDBRANCH   1  14
TORSDOF 1
ENDMDL
MODEL 4
REMARK VINA RESULT:      -8.3      1.437      2.290
REMARK  1 active torsions:
REMARK  status: ('A' for Active; 'I' for Inactive)
REMARK    1  A    between atoms: C_6  and  N_7 
ROOT
HETATM    1  N   UNL     1      42.171 -15.164   4.288  1.00  0.00    -0.320 N 
HETATM    2  C   UNL     1      40.902 -14.869   3.717  1.00  0.00     0.141 C 
HETATM    3  N   UNL     1      39.903 -15.703   3.781  1.00  0.00    -0.380 N 
HETATM    4  H   UNL     1      39.018 -15.459   3.362  1.00  0.00     0.158 HD
HETATM    5  H   UNL     1      40.034 -16.584   4.262  1.00  0.00     0.158 HD
HETATM    6  S   UNL     1      40.837 -13.348   2.931  1.00  0.00    -0.086 SA
HETATM    7  C   UNL     1      42.678 -13.216   2.942  1.00  0.00     0.093 C 
HETATM    8  C   UNL     1      43.137 -14.043   4.168  1.00  0.00     0.121 C 
HETATM    9  C   UNL     1      43.216 -11.806   3.058  1.00  0.00     0.158 C 
HETATM   10  S   UNL     1      43.419 -11.496   4.793  1.00  0.00     0.147 S 
HETATM   11  O   UNL     1      42.376 -10.596   5.233  1.00  0.00    -0.228 OA
HETATM   12  O   UNL     1      44.822 -11.240   5.040  1.00  0.00    -0.228 OA
HETATM   13  C   UNL     1      43.046 -13.123   5.385  1.00  0.00     0.167 C 
ENDROOT
BRANCH   1  14
HETATM   14  C   UNL     1      42.717 -16.455   4.461  1.00  0.00     0.048 A 
HETATM   15  C   UNL     1      42.811 -17.037   5.750  1.00  0.00    -0.034 A 
HETATM   16  C   UNL     1      43.420 -18.296   5.910  1.00  0.00     0.015 A 
HETATM   17  C   UNL     1      42.300 -16.361   6.996  1.00  0.00     0.050 C 
HETATM   18  C   UNL     1      43.919 -19.003   4.817  1.00  0.00    -0.061 A 
HETATM   19  C   UNL     1      44.530 -20.362   4.998  1.00  0.00     0.048 C 
HETATM   20  C   UNL     1      43.792 -18.447   3.545  1.00  0.00     0.015 A 
HETATM   21  C   UNL     1      43.223 -17.175   3.354  1.00  0.00    -0.034 A 
HETATM   22  C   UNL     1      43.179 -16.651   1.944  1.00  0.00     0.050 C 
ENDBRANCH   1  14
TORSDOF 1
ENDMDL
MODEL 5
REMARK VINA RESULT:      -6.9      3.179      3.778
REMARK  1 active torsions:
REMARK  status: ('A' for Active; 'I' for Inactive)
REMARK    1  A    between atoms: C_6  and  N_7 
ROOT
HETATM    1  N   UNL     1      40.872 -13.120   2.746  1.00  0.00    -0.320 N 
HETATM    2  C   UNL     1      39.638 -12.806   3.380  1.00  0.00     0.141 C 
HETATM    3  N   UNL     1      39.282 -13.347   4.510  1.00  0.00    -0.380 N 
HETATM    4  H   UNL     1      38.396 -13.100   4.928  1.00  0.00     0.158 HD
HETATM    5  H   UNL     1      39.909 -14.004   4.954  1.00  0.00     0.158 HD
HETATM    6  S   UNL     1      38.680 -11.687   2.505  1.00  0.00    -0.086 SA
HETATM    7  C   UNL     1      39.708 -11.925   0.991  1.00  0.00     0.093 C 
HETATM    8  C   UNL     1      41.109 -12.331   1.512  1.00  0.00     0.121 C 
HETATM    9  C   UNL     1      39.836 -10.702   0.108  1.00  0.00     0.158 C 
HETATM   10  S   UNL     1      41.281  -9.838   0.667  1.00  0.00     0.147 S 
HETATM   11  O   UNL     1      40.868  -8.653   1.388  1.00  0.00    -0.228 OA
HETATM   12  O   UNL     1      42.227  -9.792  -0.427  1.00  0.00    -0.228 OA
HETATM   13  C   UNL     1      41.855 -11.037   1.837  1.00  0.00     0.167 C 
ENDROOT
BRANCH   1  14
HETATM   14  C   UNL     1      41.567 -14.344   2.859  1.00  0.00     0.048 A 
HETATM   15  C   UNL     1      41.149 -15.487   2.130  1.00  0.00    -0.034 A 
HETATM   16  C   UNL     1      41.813 -16.715   2.307  1.00  0.00     0.015 A 
HETATM   17  C   UNL     1      39.992 -15.467   1.166  1.00  0.00     0.050 C 
HETATM   18  C   UNL     1      42.899 -16.832   3.173  1.00  0.00    -0.061 A 
HETATM   19  C   UNL     1      43.623 -18.139   3.322  1.00  0.00     0.048 C 
HETATM   20  C   UNL     1      43.334 -15.700   3.860  1.00  0.00     0.015 A 
HETATM   21  C   UNL     1      42.670 -14.466   3.736  1.00  0.00    -0.034 A 
HETATM   22  C   UNL     1      43.194 -13.321   4.560  1.00  0.00     0.050 C 
ENDBRANCH   1  14
TORSDOF 1
ENDMDL
MODEL 6
REMARK VINA RESULT:      -6.9      9.177     10.430
REMARK  1 active torsions:
REMARK  status: ('A' for Active; 'I' for Inactive)
REMARK    1  A    between atoms: C_6  and  N_7 
ROOT
HETATM    1  N   UNL     1      42.137  -8.718  11.628  1.00  0.00    -0.320 N 
HETATM    2  C   UNL     1      40.771  -8.956  11.308  1.00  0.00     0.141 C 
HETATM    3  N   UNL     1      40.413  -9.796  10.378  1.00  0.00    -0.380 N 
HETATM    4  H   UNL     1      39.434  -9.936  10.178  1.00  0.00     0.158 HD
HETATM    5  H   UNL     1      41.132 -10.301   9.876  1.00  0.00     0.158 HD
HETATM    6  S   UNL     1      39.674  -8.022  12.235  1.00  0.00    -0.086 SA
HETATM    7  C   UNL     1      41.034  -6.912  12.805  1.00  0.00     0.093 C 
HETATM    8  C   UNL     1      42.313  -7.786  12.769  1.00  0.00     0.121 C 
HETATM    9  C   UNL     1      40.853  -6.345  14.196  1.00  0.00     0.158 C 
HETATM   10  S   UNL     1      41.640  -7.487  15.302  1.00  0.00     0.147 S 
HETATM   11  O   UNL     1      40.621  -8.225  16.016  1.00  0.00    -0.228 OA
HETATM   12  O   UNL     1      42.712  -6.789  15.978  1.00  0.00    -0.228 OA
HETATM   13  C   UNL     1      42.363  -8.555  14.089  1.00  0.00     0.167 C 
ENDROOT
BRANCH   1  14
HETATM   14  C   UNL     1      43.225  -8.840  10.736  1.00  0.00     0.048 A 
HETATM   15  C   UNL     1      43.480  -7.843   9.761  1.00  0.00    -0.034 A 
HETATM   16  C   UNL     1      44.528  -8.014   8.838  1.00  0.00     0.015 A 
HETATM   17  C   UNL     1      42.661  -6.584   9.640  1.00  0.00     0.050 C 
HETATM   18  C   UNL     1      45.346  -9.143   8.872  1.00  0.00    -0.061 A 
HETATM   19  C   UNL     1      46.484  -9.294   7.906  1.00  0.00     0.048 C 
HETATM   20  C   UNL     1      45.119 -10.105   9.855  1.00  0.00     0.015 A 
HETATM   21  C   UNL     1      44.057  -9.983  10.770  1.00  0.00    -0.034 A 
HETATM   22  C   UNL     1      43.874 -11.103  11.758  1.00  0.00     0.050 C 
ENDBRANCH   1  14
TORSDOF 1
ENDMDL
MODEL 7
REMARK VINA RESULT:      -6.9      9.204     10.515
REMARK  1 active torsions:
REMARK  status: ('A' for Active; 'I' for Inactive)
REMARK    1  A    between atoms: C_6  and  N_7 
ROOT
HETATM    1  N   UNL     1      42.090  -8.754  11.592  1.00  0.00    -0.320 N 
HETATM    2  C   UNL     1      40.715  -8.980  11.305  1.00  0.00     0.141 C 
HETATM    3  N   UNL     1      40.328  -9.823  10.391  1.00  0.00    -0.380 N 
HETATM    4  H   UNL     1      39.343  -9.954  10.214  1.00  0.00     0.158 HD
HETATM    5  H   UNL     1      41.029 -10.341   9.877  1.00  0.00     0.158 HD
HETATM    6  S   UNL     1      39.649  -8.025  12.247  1.00  0.00    -0.086 SA
HETATM    7  C   UNL     1      41.033  -6.926  12.777  1.00  0.00     0.093 C 
HETATM    8  C   UNL     1      42.301  -7.814  12.721  1.00  0.00     0.121 C 
HETATM    9  C   UNL     1      40.889  -6.344  14.167  1.00  0.00     0.158 C 
HETATM   10  S   UNL     1      41.688  -7.485  15.265  1.00  0.00     0.147 S 
HETATM   11  O   UNL     1      40.678  -8.206  16.008  1.00  0.00    -0.228 OA
HETATM   12  O   UNL     1      42.783  -6.793  15.912  1.00  0.00    -0.228 OA
HETATM   13  C   UNL     1      42.372  -8.572  14.046  1.00  0.00     0.167 C 
ENDROOT
BRANCH   1  14
HETATM   14  C   UNL     1      43.157  -8.896  10.678  1.00  0.00     0.048 A 
HETATM   15  C   UNL     1      44.025 -10.015  10.743  1.00  0.00    -0.034 A 
HETATM   16  C   UNL     1      45.123 -10.105   9.867  1.00  0.00     0.015 A 
HETATM   17  C   UNL     1      43.847 -11.136  11.734  1.00  0.00     0.050 C 
HETATM   18  C   UNL     1      45.368  -9.121   8.911  1.00  0.00    -0.061 A 
HETATM   19  C   UNL     1      46.520  -9.249   7.957  1.00  0.00     0.048 C 
HETATM   20  C   UNL     1      44.492  -8.040   8.822  1.00  0.00     0.015 A 
HETATM   21  C   UNL     1      43.407  -7.900   9.706  1.00  0.00    -0.034 A 
HETATM   22  C   UNL     1      42.554  -6.670   9.552  1.00  0.00     0.050 C 
ENDBRANCH   1  14
TORSDOF 1
ENDMDL
MODEL 8
REMARK VINA RESULT:      -6.7      7.040      9.147
REMARK  1 active torsions:
REMARK  status: ('A' for Active; 'I' for Inactive)
REMARK    1  A    between atoms: C_6  and  N_7 
ROOT
HETATM    1  N   UNL     1      42.553  -8.850  10.195  1.00  0.00    -0.320 N 
HETATM    2  C   UNL     1      42.718  -7.471  10.501  1.00  0.00     0.141 C 
HETATM    3  N   UNL     1      43.114  -6.606   9.610  1.00  0.00    -0.380 N 
HETATM    4  H   UNL     1      43.221  -5.636   9.866  1.00  0.00     0.158 HD
HETATM    5  H   UNL     1      43.299  -6.927   8.669  1.00  0.00     0.158 HD
HETATM    6  S   UNL     1      42.375  -7.082  12.134  1.00  0.00    -0.086 SA
HETATM    7  C   UNL     1      42.423  -8.864  12.613  1.00  0.00     0.093 C 
HETATM    8  C   UNL     1      42.019  -9.638  11.334  1.00  0.00     0.121 C 
HETATM    9  C   UNL     1      41.493  -9.245  13.745  1.00  0.00     0.158 C 
HETATM   10  S   UNL     1      39.965  -9.732  12.986  1.00  0.00     0.147 S 
HETATM   11  O   UNL     1      38.983  -8.692  13.200  1.00  0.00    -0.228 OA
HETATM   12  O   UNL     1      39.718 -11.117  13.327  1.00  0.00    -0.228 OA
HETATM   13  C   UNL     1      40.491  -9.670  11.297  1.00  0.00     0.167 C 
ENDROOT
BRANCH   1  14
HETATM   14  C   UNL     1      43.265  -9.566   9.208  1.00  0.00     0.048 A 
HETATM   15  C   UNL     1      44.611  -9.957   9.424  1.00  0.00    -0.034 A 
HETATM   16  C   UNL     1      45.325 -10.611   8.403  1.00  0.00     0.015 A 
HETATM   17  C   UNL     1      45.347  -9.691  10.711  1.00  0.00     0.050 C 
HETATM   18  C   UNL     1      44.730 -10.906   7.177  1.00  0.00    -0.061 A 
HETATM   19  C   UNL     1      45.492 -11.638   6.111  1.00  0.00     0.048 C 
HETATM   20  C   UNL     1      43.395 -10.556   6.979  1.00  0.00     0.015 A 
HETATM   21  C   UNL     1      42.663  -9.868   7.965  1.00  0.00    -0.034 A 
HETATM   22  C   UNL     1      41.244  -9.497   7.627  1.00  0.00     0.050 C 
ENDBRANCH   1  14
TORSDOF 1
ENDMDL
MODEL 9
REMARK VINA RESULT:      -6.7      3.329      5.016
REMARK  1 active torsions:
REMARK  status: ('A' for Active; 'I' for Inactive)
REMARK    1  A    between atoms: C_6  and  N_7 
ROOT
HETATM    1  N   UNL     1      41.581 -14.946   4.189  1.00  0.00    -0.320 N 
HETATM    2  C   UNL     1      40.994 -14.694   5.461  1.00  0.00     0.141 C 
HETATM    3  N   UNL     1      39.838 -14.108   5.586  1.00  0.00    -0.380 N 
HETATM    4  H   UNL     1      39.455 -13.944   6.506  1.00  0.00     0.158 HD
HETATM    5  H   UNL     1      39.337 -13.834   4.750  1.00  0.00     0.158 HD
HETATM    6  S   UNL     1      41.962 -15.206   6.778  1.00  0.00    -0.086 SA
HETATM    7  C   UNL     1      43.435 -15.386   5.682  1.00  0.00     0.093 C 
HETATM    8  C   UNL     1      42.860 -15.693   4.277  1.00  0.00     0.121 C 
HETATM    9  C   UNL     1      44.396 -16.486   6.082  1.00  0.00     0.158 C 
HETATM   10  S   UNL     1      43.868 -17.942   5.217  1.00  0.00     0.147 S 
HETATM   11  O   UNL     1      43.238 -18.842   6.157  1.00  0.00    -0.228 OA
HETATM   12  O   UNL     1      44.944 -18.359   4.343  1.00  0.00    -0.228 OA
HETATM   13  C   UNL     1      42.609 -17.199   4.218  1.00  0.00     0.167 C 
ENDROOT
BRANCH   1  14
HETATM   14  C   UNL     1      41.372 -14.183   3.020  1.00  0.00     0.048 A 
HETATM   15  C   UNL     1      40.580 -14.685   1.956  1.00  0.00    -0.034 A 
HETATM   16  C   UNL     1      40.439 -13.939   0.772  1.00  0.00     0.015 A 
HETATM   17  C   UNL     1      39.876 -16.016   2.015  1.00  0.00     0.050 C 
HETATM   18  C   UNL     1      41.047 -12.693   0.624  1.00  0.00    -0.061 A 
HETATM   19  C   UNL     1      40.856 -11.891  -0.630  1.00  0.00     0.048 C 
HETATM   20  C   UNL     1      41.794 -12.183   1.684  1.00  0.00     0.015 A 
HETATM   21  C   UNL     1      41.987 -12.919   2.868  1.00  0.00    -0.034 A 
HETATM   22  C   UNL     1      42.850 -12.293   3.929  1.00  0.00     0.050 C 
ENDBRANCH   1  14
TORSDOF 1
ENDMDL
MODEL 10
REMARK VINA RESULT:      -6.6      3.284      5.593
REMARK  1 active torsions:
REMARK  status: ('A' for Active; 'I' for Inactive)
REMARK    1  A    between atoms: C_6  and  N_7 
ROOT
HETATM    1  N   UNL     1      41.594 -14.440   2.405  1.00  0.00    -0.320 N 
HETATM    2  C   UNL     1      42.692 -15.342   2.337  1.00  0.00     0.141 C 
HETATM    3  N   UNL     1      43.583 -15.278   1.390  1.00  0.00    -0.380 N 
HETATM    4  H   UNL     1      44.348 -15.937   1.375  1.00  0.00     0.158 HD
HETATM    5  H   UNL     1      43.496 -14.556   0.687  1.00  0.00     0.158 HD
HETATM    6  S   UNL     1      42.700 -16.511   3.590  1.00  0.00    -0.086 SA
HETATM    7  C   UNL     1      40.949 -16.121   4.024  1.00  0.00     0.093 C 
HETATM    8  C   UNL     1      40.747 -14.643   3.607  1.00  0.00     0.121 C 
HETATM    9  C   UNL     1      40.605 -16.280   5.489  1.00  0.00     0.158 C 
HETATM   10  S   UNL     1      40.896 -14.700   6.240  1.00  0.00     0.147 S 
HETATM   11  O   UNL     1      42.102 -14.773   7.034  1.00  0.00    -0.228 OA
HETATM   12  O   UNL     1      39.639 -14.221   6.777  1.00  0.00    -0.228 OA
HETATM   13  C   UNL     1      41.246 -13.782   4.767  1.00  0.00     0.167 C 
ENDROOT
BRANCH   1  14
HETATM   14  C   UNL     1      40.985 -13.799   1.303  1.00  0.00     0.048 A 
HETATM   15  C   UNL     1      41.193 -12.417   1.062  1.00  0.00    -0.034 A 
HETATM   16  C   UNL     1      40.525 -11.781  -0.001  1.00  0.00     0.015 A 
HETATM   17  C   UNL     1      42.098 -11.562   1.911  1.00  0.00     0.050 C 
HETATM   18  C   UNL     1      39.671 -12.488  -0.846  1.00  0.00    -0.061 A 
HETATM   19  C   UNL     1      38.996 -11.805  -1.999  1.00  0.00     0.048 C 
HETATM   20  C   UNL     1      39.497 -13.855  -0.632  1.00  0.00     0.015 A 
HETATM   21  C   UNL     1      40.120 -14.514   0.444  1.00  0.00    -0.034 A 
HETATM   22  C   UNL     1      39.825 -15.980   0.610  1.00  0.00     0.050 C 
ENDBRANCH   1  14
TORSDOF 1
ENDMDL
