MODEL 1
REMARK VINA RESULT:      -9.4      0.000      0.000
REMARK  4 active torsions:
REMARK  status: ('A' for Active; 'I' for Inactive)
REMARK    1  A    between atoms: C_4  and  N_5 
REMARK    2  A    between atoms: N_5  and  C_6 
REMARK    3  A    between atoms: C_8  and  C_9 
REMARK    4  A    between atoms: C_23  and  O_24 
ROOT
HETATM    1  C   UNL     1      43.175 -13.946   6.392  1.00  0.00     0.722 A 
HETATM    2  N   UNL     1      43.531 -14.966   5.667  1.00  0.00    -0.063 NA
HETATM    3  C   UNL     1      42.555 -15.834   5.227  1.00  0.00     0.091 A 
HETATM    4  C   UNL     1      41.248 -15.671   5.478  1.00  0.00     0.108 A 
HETATM    5  C   UNL     1      40.843 -14.525   6.297  1.00  0.00     0.261 A 
HETATM    6  O   UNL     1      39.666 -14.323   6.573  1.00  0.00    -0.268 OA
HETATM    7  N   UNL     1      41.862 -13.730   6.711  1.00  0.00    -0.154 N 
HETATM    8  H   UNL     1      41.634 -12.923   7.281  1.00  0.00     0.187 HD
ENDROOT
BRANCH   1   9
HETATM    9  N   UNL     1      44.123 -13.080   6.836  1.00  0.00    -0.017 N 
HETATM   10  H   UNL     1      45.085 -13.378   6.812  1.00  0.00     0.203 HD
BRANCH   9  11
HETATM   11  C   UNL     1      43.972 -11.804   7.352  1.00  0.00     0.742 A 
HETATM   12  N   UNL     1      44.718 -11.403   8.392  1.00  0.00    -0.066 NA
HETATM   13  C   UNL     1      44.539 -10.145   8.848  1.00  0.00     0.062 A 
HETATM   14  C   UNL     1      45.410  -9.758  10.009  1.00  0.00     0.072 C 
HETATM   15  C   UNL     1      43.612  -9.260   8.286  1.00  0.00     0.021 A 
HETATM   16  C   UNL     1      42.869  -9.771   7.212  1.00  0.00     0.121 A 
HETATM   17  C   UNL     1      43.400  -7.935   8.734  1.00  0.00     0.016 A 
HETATM   18  N   UNL     1      43.060 -11.028   6.762  1.00  0.00    -0.059 NA
HETATM   19  C   UNL     1      41.906  -8.934   6.617  1.00  0.00     0.098 A 
HETATM   20  C   UNL     1      41.711  -7.617   7.058  1.00  0.00     0.039 A 
HETATM   21  C   UNL     1      42.458  -7.119   8.118  1.00  0.00     0.004 A 
BRANCH  19  22
HETATM   22  O   UNL     1      41.202  -9.480   5.564  1.00  0.00    -0.354 OA
HETATM   23  C   UNL     1      41.359  -8.857   4.296  1.00  0.00     0.210 C 
ENDBRANCH  19  22
ENDBRANCH   9  11
ENDBRANCH   1   9
BRANCH   3  24
HETATM   24  C   UNL     1      42.994 -16.985   4.398  1.00  0.00    -0.006 A 
HETATM   25  C   UNL     1      42.534 -17.104   3.074  1.00  0.00     0.017 A 
HETATM   26  C   UNL     1      42.935 -18.174   2.269  1.00  0.00     0.043 A 
HETATM   27  C   UNL     1      43.805 -19.127   2.780  1.00  0.00     0.116 A 
HETATM   28  F   UNL     1      44.189 -20.154   2.010  1.00  0.00    -0.206 F 
HETATM   29  C   UNL     1      44.289 -19.027   4.079  1.00  0.00     0.043 A 
HETATM   30  C   UNL     1      43.890 -17.956   4.884  1.00  0.00     0.017 A 
ENDBRANCH   3  24
TORSDOF 4
ENDMDL
MODEL 2
REMARK VINA RESULT:      -9.1      4.639      7.138
REMARK  4 active torsions:
REMARK  status: ('A' for Active; 'I' for Inactive)
REMARK    1  A    between atoms: C_4  and  N_5 
REMARK    2  A    between atoms: N_5  and  C_6 
REMARK    3  A    between atoms: C_8  and  C_9 
REMARK    4  A    between atoms: C_23  and  O_24 
ROOT
HETATM    1  C   UNL     1      41.127 -14.760   2.820  1.00  0.00     0.722 A 
HETATM    2  N   UNL     1      41.556 -15.985   2.735  1.00  0.00    -0.063 NA
HETATM    3  C   UNL     1      42.606 -16.372   3.539  1.00  0.00     0.091 A 
HETATM    4  C   UNL     1      43.195 -15.564   4.433  1.00  0.00     0.108 A 
HETATM    5  C   UNL     1      42.716 -14.182   4.530  1.00  0.00     0.261 A 
HETATM    6  O   UNL     1      43.217 -13.388   5.318  1.00  0.00    -0.268 OA
HETATM    7  N   UNL     1      41.696 -13.871   3.691  1.00  0.00    -0.154 N 
HETATM    8  H   UNL     1      41.328 -12.926   3.719  1.00  0.00     0.187 HD
ENDROOT
BRANCH   1   9
HETATM    9  N   UNL     1      40.093 -14.359   2.034  1.00  0.00    -0.017 N 
HETATM   10  H   UNL     1      39.158 -14.453   2.398  1.00  0.00     0.203 HD
BRANCH   9  11
HETATM   11  C   UNL     1      40.118 -13.836   0.753  1.00  0.00     0.742 A 
HETATM   12  N   UNL     1      39.619 -14.539  -0.274  1.00  0.00    -0.066 NA
HETATM   13  C   UNL     1      39.656 -13.976  -1.501  1.00  0.00     0.062 A 
HETATM   14  C   UNL     1      39.076 -14.814  -2.605  1.00  0.00     0.072 C 
HETATM   15  C   UNL     1      40.195 -12.707  -1.735  1.00  0.00     0.021 A 
HETATM   16  C   UNL     1      40.705 -12.052  -0.604  1.00  0.00     0.121 A 
HETATM   17  C   UNL     1      40.249 -12.084  -3.005  1.00  0.00     0.016 A 
HETATM   18  N   UNL     1      40.657 -12.622   0.617  1.00  0.00    -0.059 NA
HETATM   19  C   UNL     1      41.279 -10.779  -0.780  1.00  0.00     0.098 A 
HETATM   20  C   UNL     1      41.315 -10.162  -2.040  1.00  0.00     0.039 A 
HETATM   21  C   UNL     1      40.801 -10.817  -3.152  1.00  0.00     0.004 A 
BRANCH  19  22
HETATM   22  O   UNL     1      41.763 -10.174   0.361  1.00  0.00    -0.354 OA
HETATM   23  C   UNL     1      41.008  -9.088   0.882  1.00  0.00     0.210 C 
ENDBRANCH  19  22
ENDBRANCH   9  11
ENDBRANCH   1   9
BRANCH   3  24
HETATM   24  C   UNL     1      43.069 -17.778   3.421  1.00  0.00    -0.006 A 
HETATM   25  C   UNL     1      43.751 -18.379   4.494  1.00  0.00     0.017 A 
HETATM   26  C   UNL     1      44.193 -19.702   4.413  1.00  0.00     0.043 A 
HETATM   27  C   UNL     1      43.949 -20.435   3.259  1.00  0.00     0.116 A 
HETATM   28  F   UNL     1      44.373 -21.704   3.179  1.00  0.00    -0.206 F 
HETATM   29  C   UNL     1      43.264 -19.875   2.189  1.00  0.00     0.043 A 
HETATM   30  C   UNL     1      42.819 -18.551   2.272  1.00  0.00     0.017 A 
ENDBRANCH   3  24
TORSDOF 4
ENDMDL
MODEL 3
REMARK VINA RESULT:      -8.6      4.116      8.878
REMARK  4 active torsions:
REMARK  status: ('A' for Active; 'I' for Inactive)
REMARK    1  A    between atoms: C_4  and  N_5 
REMARK    2  A    between atoms: N_5  and  C_6 
REMARK    3  A    between atoms: C_8  and  C_9 
REMARK    4  A    between atoms: C_23  and  O_24 
ROOT
HETATM    1  C   UNL     1      43.750 -11.385   7.304  1.00  0.00     0.722 A 
HETATM    2  N   UNL     1      43.340 -10.571   8.233  1.00  0.00    -0.063 NA
HETATM    3  C   UNL     1      44.272  -9.792   8.884  1.00  0.00     0.091 A 
HETATM    4  C   UNL     1      45.580  -9.799   8.593  1.00  0.00     0.108 A 
HETATM    5  C   UNL     1      46.047 -10.716   7.549  1.00  0.00     0.261 A 
HETATM    6  O   UNL     1      47.231 -10.782   7.241  1.00  0.00    -0.268 OA
HETATM    7  N   UNL     1      45.074 -11.466   6.970  1.00  0.00    -0.154 N 
HETATM    8  H   UNL     1      45.346 -12.117   6.242  1.00  0.00     0.187 HD
ENDROOT
BRANCH   1   9
HETATM    9  N   UNL     1      42.846 -12.162   6.651  1.00  0.00    -0.017 N 
HETATM   10  H   UNL     1      41.899 -11.827   6.579  1.00  0.00     0.203 HD
BRANCH   9  11
HETATM   11  C   UNL     1      43.021 -13.400   6.059  1.00  0.00     0.742 A 
HETATM   12  N   UNL     1      43.342 -14.467   6.805  1.00  0.00    -0.066 NA
HETATM   13  C   UNL     1      43.489 -15.654   6.178  1.00  0.00     0.062 A 
HETATM   14  C   UNL     1      43.843 -16.808   7.072  1.00  0.00     0.072 C 
HETATM   15  C   UNL     1      43.326 -15.806   4.797  1.00  0.00     0.021 A 
HETATM   16  C   UNL     1      43.004 -14.634   4.097  1.00  0.00     0.121 A 
HETATM   17  C   UNL     1      43.468 -17.033   4.106  1.00  0.00     0.016 A 
HETATM   18  N   UNL     1      42.856 -13.455   4.735  1.00  0.00    -0.059 NA
HETATM   19  C   UNL     1      42.847 -14.719   2.701  1.00  0.00     0.098 A 
HETATM   20  C   UNL     1      42.976 -15.942   2.025  1.00  0.00     0.039 A 
HETATM   21  C   UNL     1      43.288 -17.098   2.730  1.00  0.00     0.004 A 
BRANCH  19  22
HETATM   22  O   UNL     1      42.529 -13.542   2.058  1.00  0.00    -0.354 OA
HETATM   23  C   UNL     1      41.255 -13.479   1.428  1.00  0.00     0.210 C 
ENDBRANCH  19  22
ENDBRANCH   9  11
ENDBRANCH   1   9
BRANCH   3  24
HETATM   24  C   UNL     1      43.770  -8.870   9.935  1.00  0.00    -0.006 A 
HETATM   25  C   UNL     1      43.138  -7.669   9.564  1.00  0.00     0.017 A 
HETATM   26  C   UNL     1      42.652  -6.786  10.531  1.00  0.00     0.043 A 
HETATM   27  C   UNL     1      42.788  -7.102  11.877  1.00  0.00     0.116 A 
HETATM   28  F   UNL     1      42.323  -6.255  12.806  1.00  0.00    -0.206 F 
HETATM   29  C   UNL     1      43.393  -8.288  12.273  1.00  0.00     0.043 A 
HETATM   30  C   UNL     1      43.877  -9.173  11.305  1.00  0.00     0.017 A 
ENDBRANCH   3  24
TORSDOF 4
ENDMDL
MODEL 4
REMARK VINA RESULT:      -8.6      4.750      8.369
REMARK  4 active torsions:
REMARK  status: ('A' for Active; 'I' for Inactive)
REMARK    1  A    between atoms: C_4  and  N_5 
REMARK    2  A    between atoms: N_5  and  C_6 
REMARK    3  A    between atoms: C_8  and  C_9 
REMARK    4  A    between atoms: C_23  and  O_24 
ROOT
HETATM    1  C   UNL     1      42.364 -14.180   1.562  1.00  0.00     0.722 A 
HETATM    2  N   UNL     1      41.445 -14.178   0.640  1.00  0.00    -0.063 NA
HETATM    3  C   UNL     1      40.517 -13.159   0.638  1.00  0.00     0.091 A 
HETATM    4  C   UNL     1      40.525 -12.145   1.515  1.00  0.00     0.108 A 
HETATM    5  C   UNL     1      41.556 -12.145   2.557  1.00  0.00     0.261 A 
HETATM    6  O   UNL     1      41.613 -11.255   3.397  1.00  0.00    -0.268 OA
HETATM    7  N   UNL     1      42.418 -13.192   2.507  1.00  0.00    -0.154 N 
HETATM    8  H   UNL     1      43.151 -13.239   3.207  1.00  0.00     0.187 HD
ENDROOT
BRANCH   1   9
HETATM    9  N   UNL     1      43.286 -15.178   1.582  1.00  0.00    -0.017 N 
HETATM   10  H   UNL     1      44.021 -15.156   0.892  1.00  0.00     0.203 HD
BRANCH   9  11
HETATM   11  C   UNL     1      43.374 -16.274   2.422  1.00  0.00     0.742 A 
HETATM   12  N   UNL     1      43.506 -17.507   1.913  1.00  0.00    -0.066 NA
HETATM   13  C   UNL     1      43.599 -18.540   2.778  1.00  0.00     0.062 A 
HETATM   14  C   UNL     1      43.751 -19.893   2.142  1.00  0.00     0.072 C 
HETATM   15  C   UNL     1      43.559 -18.371   4.166  1.00  0.00     0.021 A 
HETATM   16  C   UNL     1      43.407 -17.048   4.606  1.00  0.00     0.121 A 
HETATM   17  C   UNL     1      43.658 -19.427   5.102  1.00  0.00     0.016 A 
HETATM   18  N   UNL     1      43.319 -16.024   3.733  1.00  0.00    -0.059 NA
HETATM   19  C   UNL     1      43.339 -16.816   5.993  1.00  0.00     0.098 A 
HETATM   20  C   UNL     1      43.452 -17.867   6.915  1.00  0.00     0.039 A 
HETATM   21  C   UNL     1      43.610 -19.173   6.468  1.00  0.00     0.004 A 
BRANCH  19  22
HETATM   22  O   UNL     1      43.191 -15.500   6.377  1.00  0.00    -0.354 OA
HETATM   23  C   UNL     1      42.966 -15.256   7.759  1.00  0.00     0.210 C 
ENDBRANCH  19  22
ENDBRANCH   9  11
ENDBRANCH   1   9
BRANCH   3  24
HETATM   24  C   UNL     1      39.486 -13.183  -0.431  1.00  0.00    -0.006 A 
HETATM   25  C   UNL     1      39.435 -14.269  -1.324  1.00  0.00     0.017 A 
HETATM   26  C   UNL     1      38.472 -14.321  -2.335  1.00  0.00     0.043 A 
HETATM   27  C   UNL     1      37.550 -13.290  -2.455  1.00  0.00     0.116 A 
HETATM   28  F   UNL     1      36.627 -13.338  -3.426  1.00  0.00    -0.206 F 
HETATM   29  C   UNL     1      37.565 -12.213  -1.579  1.00  0.00     0.043 A 
HETATM   30  C   UNL     1      38.527 -12.163  -0.564  1.00  0.00     0.017 A 
ENDBRANCH   3  24
TORSDOF 4
ENDMDL
MODEL 5
REMARK VINA RESULT:      -8.6      1.297      2.643
REMARK  4 active torsions:
REMARK  status: ('A' for Active; 'I' for Inactive)
REMARK    1  A    between atoms: C_4  and  N_5 
REMARK    2  A    between atoms: N_5  and  C_6 
REMARK    3  A    between atoms: C_8  and  C_9 
REMARK    4  A    between atoms: C_23  and  O_24 
ROOT
HETATM    1  C   UNL     1      42.659 -13.640   5.750  1.00  0.00     0.722 A 
HETATM    2  N   UNL     1      43.114 -14.664   5.088  1.00  0.00    -0.063 NA
HETATM    3  C   UNL     1      42.346 -15.807   5.032  1.00  0.00     0.091 A 
HETATM    4  C   UNL     1      41.135 -15.916   5.596  1.00  0.00     0.108 A 
HETATM    5  C   UNL     1      40.619 -14.767   6.345  1.00  0.00     0.261 A 
HETATM    6  O   UNL     1      39.524 -14.803   6.894  1.00  0.00    -0.268 OA
HETATM    7  N   UNL     1      41.442 -13.688   6.374  1.00  0.00    -0.154 N 
HETATM    8  H   UNL     1      41.130 -12.866   6.880  1.00  0.00     0.187 HD
ENDROOT
BRANCH   1   9
HETATM    9  N   UNL     1      43.402 -12.505   5.817  1.00  0.00    -0.017 N 
HETATM   10  H   UNL     1      44.374 -12.560   5.558  1.00  0.00     0.203 HD
BRANCH   9  11
HETATM   11  C   UNL     1      43.027 -11.235   6.218  1.00  0.00     0.742 A 
HETATM   12  N   UNL     1      41.963 -10.637   5.662  1.00  0.00    -0.066 NA
HETATM   13  C   UNL     1      41.634  -9.403   6.099  1.00  0.00     0.062 A 
HETATM   14  C   UNL     1      40.429  -8.794   5.440  1.00  0.00     0.072 C 
HETATM   15  C   UNL     1      42.356  -8.733   7.093  1.00  0.00     0.021 A 
HETATM   16  C   UNL     1      43.459  -9.430   7.606  1.00  0.00     0.121 A 
HETATM   17  C   UNL     1      42.038  -7.443   7.578  1.00  0.00     0.016 A 
HETATM   18  N   UNL     1      43.776 -10.665   7.165  1.00  0.00    -0.059 NA
HETATM   19  C   UNL     1      44.238  -8.799   8.595  1.00  0.00     0.098 A 
HETATM   20  C   UNL     1      43.908  -7.525   9.081  1.00  0.00     0.039 A 
HETATM   21  C   UNL     1      42.809  -6.847   8.570  1.00  0.00     0.004 A 
BRANCH  19  22
HETATM   22  O   UNL     1      45.310  -9.524   9.070  1.00  0.00    -0.354 OA
HETATM   23  C   UNL     1      45.247  -9.949  10.425  1.00  0.00     0.210 C 
ENDBRANCH  19  22
ENDBRANCH   9  11
ENDBRANCH   1   9
BRANCH   3  24
HETATM   24  C   UNL     1      42.893 -16.955   4.265  1.00  0.00    -0.006 A 
HETATM   25  C   UNL     1      42.444 -17.192   2.953  1.00  0.00     0.017 A 
HETATM   26  C   UNL     1      42.944 -18.261   2.205  1.00  0.00     0.043 A 
HETATM   27  C   UNL     1      43.903 -19.097   2.763  1.00  0.00     0.116 A 
HETATM   28  F   UNL     1      44.383 -20.123   2.049  1.00  0.00    -0.206 F 
HETATM   29  C   UNL     1      44.377 -18.878   4.050  1.00  0.00     0.043 A 
HETATM   30  C   UNL     1      43.879 -17.806   4.797  1.00  0.00     0.017 A 
ENDBRANCH   3  24
TORSDOF 4
ENDMDL
MODEL 6
REMARK VINA RESULT:      -8.6      4.108      6.072
REMARK  4 active torsions:
REMARK  status: ('A' for Active; 'I' for Inactive)
REMARK    1  A    between atoms: C_4  and  N_5 
REMARK    2  A    between atoms: N_5  and  C_6 
REMARK    3  A    between atoms: C_8  and  C_9 
REMARK    4  A    between atoms: C_23  and  O_24 
ROOT
HETATM    1  C   UNL     1      42.820 -14.125   3.455  1.00  0.00     0.722 A 
HETATM    2  N   UNL     1      43.008 -15.389   3.211  1.00  0.00    -0.063 NA
HETATM    3  C   UNL     1      43.353 -16.217   4.258  1.00  0.00     0.091 A 
HETATM    4  C   UNL     1      43.475 -15.800   5.526  1.00  0.00     0.108 A 
HETATM    5  C   UNL     1      43.266 -14.376   5.804  1.00  0.00     0.261 A 
HETATM    6  O   UNL     1      43.373 -13.926   6.939  1.00  0.00    -0.268 OA
HETATM    7  N   UNL     1      42.952 -13.622   4.720  1.00  0.00    -0.154 N 
HETATM    8  H   UNL     1      42.798 -12.629   4.860  1.00  0.00     0.187 HD
ENDROOT
BRANCH   1   9
HETATM    9  N   UNL     1      42.480 -13.293   2.435  1.00  0.00    -0.017 N 
HETATM   10  H   UNL     1      43.192 -13.050   1.766  1.00  0.00     0.203 HD
BRANCH   9  11
HETATM   11  C   UNL     1      41.265 -12.686   2.167  1.00  0.00     0.742 A 
HETATM   12  N   UNL     1      40.661 -11.941   3.104  1.00  0.00    -0.066 NA
HETATM   13  C   UNL     1      39.484 -11.361   2.785  1.00  0.00     0.062 A 
HETATM   14  C   UNL     1      38.864 -10.535   3.877  1.00  0.00     0.072 C 
HETATM   15  C   UNL     1      38.879 -11.513   1.533  1.00  0.00     0.021 A 
HETATM   16  C   UNL     1      39.577 -12.320   0.623  1.00  0.00     0.121 A 
HETATM   17  C   UNL     1      37.650 -10.919   1.163  1.00  0.00     0.016 A 
HETATM   18  N   UNL     1      40.755 -12.890   0.951  1.00  0.00    -0.059 NA
HETATM   19  C   UNL     1      39.008 -12.527  -0.648  1.00  0.00     0.098 A 
HETATM   20  C   UNL     1      37.796 -11.923  -1.013  1.00  0.00     0.039 A 
HETATM   21  C   UNL     1      37.117 -11.120  -0.105  1.00  0.00     0.004 A 
BRANCH  19  22
HETATM   22  O   UNL     1      39.733 -13.325  -1.508  1.00  0.00    -0.354 OA
HETATM   23  C   UNL     1      39.069 -14.465  -2.039  1.00  0.00     0.210 C 
ENDBRANCH  19  22
ENDBRANCH   9  11
ENDBRANCH   1   9
BRANCH   3  24
HETATM   24  C   UNL     1      43.556 -17.655   3.947  1.00  0.00    -0.006 A 
HETATM   25  C   UNL     1      44.011 -18.527   4.952  1.00  0.00     0.017 A 
HETATM   26  C   UNL     1      44.206 -19.885   4.690  1.00  0.00     0.043 A 
HETATM   27  C   UNL     1      43.940 -20.382   3.420  1.00  0.00     0.116 A 
HETATM   28  F   UNL     1      44.128 -21.684   3.166  1.00  0.00    -0.206 F 
HETATM   29  C   UNL     1      43.475 -19.548   2.412  1.00  0.00     0.043 A 
HETATM   30  C   UNL     1      43.277 -18.189   2.675  1.00  0.00     0.017 A 
ENDBRANCH   3  24
TORSDOF 4
ENDMDL
MODEL 7
REMARK VINA RESULT:      -8.6      4.885      6.917
REMARK  4 active torsions:
REMARK  status: ('A' for Active; 'I' for Inactive)
REMARK    1  A    between atoms: C_4  and  N_5 
REMARK    2  A    between atoms: N_5  and  C_6 
REMARK    3  A    between atoms: C_8  and  C_9 
REMARK    4  A    between atoms: C_23  and  O_24 
ROOT
HETATM    1  C   UNL     1      41.438 -14.623   2.737  1.00  0.00     0.722 A 
HETATM    2  N   UNL     1      41.826 -15.864   2.681  1.00  0.00    -0.063 NA
HETATM    3  C   UNL     1      42.740 -16.311   3.610  1.00  0.00     0.091 A 
HETATM    4  C   UNL     1      43.232 -15.546   4.595  1.00  0.00     0.108 A 
HETATM    5  C   UNL     1      42.800 -14.147   4.661  1.00  0.00     0.261 A 
HETATM    6  O   UNL     1      43.219 -13.390   5.529  1.00  0.00    -0.268 OA
HETATM    7  N   UNL     1      41.917 -13.776   3.699  1.00  0.00    -0.154 N 
HETATM    8  H   UNL     1      41.587 -12.817   3.701  1.00  0.00     0.187 HD
ENDROOT
BRANCH   1   9
HETATM    9  N   UNL     1      40.538 -14.164   1.828  1.00  0.00    -0.017 N 
HETATM   10  H   UNL     1      39.660 -14.651   1.744  1.00  0.00     0.203 HD
BRANCH   9  11
HETATM   11  C   UNL     1      40.645 -13.099   0.950  1.00  0.00     0.742 A 
HETATM   12  N   UNL     1      40.885 -11.864   1.413  1.00  0.00    -0.066 NA
HETATM   13  C   UNL     1      40.992 -10.863   0.512  1.00  0.00     0.062 A 
HETATM   14  C   UNL     1      41.267  -9.506   1.096  1.00  0.00     0.072 C 
HETATM   15  C   UNL     1      40.858 -11.067  -0.865  1.00  0.00     0.021 A 
HETATM   16  C   UNL     1      40.596 -12.388  -1.255  1.00  0.00     0.121 A 
HETATM   17  C   UNL     1      40.968 -10.045  -1.838  1.00  0.00     0.016 A 
HETATM   18  N   UNL     1      40.495 -13.380  -0.346  1.00  0.00    -0.059 NA
HETATM   19  C   UNL     1      40.431 -12.653  -2.627  1.00  0.00     0.098 A 
HETATM   20  C   UNL     1      40.556 -11.637  -3.586  1.00  0.00     0.039 A 
HETATM   21  C   UNL     1      40.822 -10.333  -3.190  1.00  0.00     0.004 A 
BRANCH  19  22
HETATM   22  O   UNL     1      40.177 -13.967  -2.961  1.00  0.00    -0.354 OA
HETATM   23  C   UNL     1      38.832 -14.300  -3.277  1.00  0.00     0.210 C 
ENDBRANCH  19  22
ENDBRANCH   9  11
ENDBRANCH   1   9
BRANCH   3  24
HETATM   24  C   UNL     1      43.158 -17.733   3.521  1.00  0.00    -0.006 A 
HETATM   25  C   UNL     1      42.947 -18.447   2.328  1.00  0.00     0.017 A 
HETATM   26  C   UNL     1      43.334 -19.785   2.214  1.00  0.00     0.043 A 
HETATM   27  C   UNL     1      43.943 -20.415   3.291  1.00  0.00     0.116 A 
HETATM   28  F   UNL     1      44.314 -21.698   3.184  1.00  0.00    -0.206 F 
HETATM   29  C   UNL     1      44.179 -19.732   4.477  1.00  0.00     0.043 A 
HETATM   30  C   UNL     1      43.793 -18.392   4.590  1.00  0.00     0.017 A 
ENDBRANCH   3  24
TORSDOF 4
ENDMDL
MODEL 8
REMARK VINA RESULT:      -8.4      2.383      2.985
REMARK  4 active torsions:
REMARK  status: ('A' for Active; 'I' for Inactive)
REMARK    1  A    between atoms: C_4  and  N_5 
REMARK    2  A    between atoms: N_5  and  C_6 
REMARK    3  A    between atoms: C_8  and  C_9 
REMARK    4  A    between atoms: C_23  and  O_24 
ROOT
HETATM    1  C   UNL     1      42.790 -13.754   2.793  1.00  0.00     0.722 A 
HETATM    2  N   UNL     1      43.222 -14.927   3.156  1.00  0.00    -0.063 NA
HETATM    3  C   UNL     1      42.542 -16.043   2.720  1.00  0.00     0.091 A 
HETATM    4  C   UNL     1      41.473 -15.993   1.913  1.00  0.00     0.108 A 
HETATM    5  C   UNL     1      40.981 -14.675   1.503  1.00  0.00     0.261 A 
HETATM    6  O   UNL     1      40.003 -14.557   0.775  1.00  0.00    -0.268 OA
HETATM    7  N   UNL     1      41.689 -13.624   1.991  1.00  0.00    -0.154 N 
HETATM    8  H   UNL     1      41.389 -12.690   1.736  1.00  0.00     0.187 HD
ENDROOT
BRANCH   1   9
HETATM    9  N   UNL     1      43.447 -12.642   3.214  1.00  0.00    -0.017 N 
HETATM   10  H   UNL     1      44.154 -12.253   2.611  1.00  0.00     0.203 HD
BRANCH   9  11
HETATM   11  C   UNL     1      43.307 -11.936   4.396  1.00  0.00     0.742 A 
HETATM   12  N   UNL     1      44.370 -11.719   5.185  1.00  0.00    -0.066 NA
HETATM   13  C   UNL     1      44.179 -11.014   6.320  1.00  0.00     0.062 A 
HETATM   14  C   UNL     1      45.411 -10.802   7.154  1.00  0.00     0.072 C 
HETATM   15  C   UNL     1      42.929 -10.513   6.700  1.00  0.00     0.021 A 
HETATM   16  C   UNL     1      41.875 -10.800   5.820  1.00  0.00     0.121 A 
HETATM   17  C   UNL     1      42.692  -9.768   7.878  1.00  0.00     0.016 A 
HETATM   18  N   UNL     1      42.078 -11.501   4.687  1.00  0.00    -0.059 NA
HETATM   19  C   UNL     1      40.588 -10.340   6.159  1.00  0.00     0.098 A 
HETATM   20  C   UNL     1      40.364  -9.588   7.322  1.00  0.00     0.039 A 
HETATM   21  C   UNL     1      41.417  -9.305   8.182  1.00  0.00     0.004 A 
BRANCH  19  22
HETATM   22  O   UNL     1      39.585 -10.644   5.262  1.00  0.00    -0.354 OA
HETATM   23  C   UNL     1      38.404  -9.855   5.329  1.00  0.00     0.210 C 
ENDBRANCH  19  22
ENDBRANCH   9  11
ENDBRANCH   1   9
BRANCH   3  24
HETATM   24  C   UNL     1      43.064 -17.366   3.149  1.00  0.00    -0.006 A 
HETATM   25  C   UNL     1      43.528 -17.537   4.465  1.00  0.00     0.017 A 
HETATM   26  C   UNL     1      44.020 -18.772   4.898  1.00  0.00     0.043 A 
HETATM   27  C   UNL     1      44.044 -19.845   4.017  1.00  0.00     0.116 A 
HETATM   28  F   UNL     1      44.516 -21.029   4.429  1.00  0.00    -0.206 F 
HETATM   29  C   UNL     1      43.577 -19.711   2.716  1.00  0.00     0.043 A 
HETATM   30  C   UNL     1      43.082 -18.476   2.284  1.00  0.00     0.017 A 
ENDBRANCH   3  24
TORSDOF 4
ENDMDL
MODEL 9
REMARK VINA RESULT:      -8.3      4.757      8.556
REMARK  4 active torsions:
REMARK  status: ('A' for Active; 'I' for Inactive)
REMARK    1  A    between atoms: C_4  and  N_5 
REMARK    2  A    between atoms: N_5  and  C_6 
REMARK    3  A    between atoms: C_8  and  C_9 
REMARK    4  A    between atoms: C_23  and  O_24 
ROOT
HETATM    1  C   UNL     1      42.594 -13.736   2.082  1.00  0.00     0.722 A 
HETATM    2  N   UNL     1      41.705 -13.572   1.147  1.00  0.00    -0.063 NA
HETATM    3  C   UNL     1      41.090 -12.343   1.031  1.00  0.00     0.091 A 
HETATM    4  C   UNL     1      41.380 -11.292   1.810  1.00  0.00     0.108 A 
HETATM    5  C   UNL     1      42.379 -11.473   2.867  1.00  0.00     0.261 A 
HETATM    6  O   UNL     1      42.684 -10.557   3.621  1.00  0.00    -0.268 OA
HETATM    7  N   UNL     1      42.923 -12.715   2.932  1.00  0.00    -0.154 N 
HETATM    8  H   UNL     1      43.620 -12.893   3.647  1.00  0.00     0.187 HD
ENDROOT
BRANCH   1   9
HETATM    9  N   UNL     1      43.210 -14.941   2.212  1.00  0.00    -0.017 N 
HETATM   10  H   UNL     1      43.721 -15.298   1.422  1.00  0.00     0.203 HD
BRANCH   9  11
HETATM   11  C   UNL     1      43.235 -15.799   3.298  1.00  0.00     0.742 A 
HETATM   12  N   UNL     1      42.905 -15.354   4.519  1.00  0.00    -0.066 NA
HETATM   13  C   UNL     1      42.934 -16.236   5.541  1.00  0.00     0.062 A 
HETATM   14  C   UNL     1      42.548 -15.675   6.880  1.00  0.00     0.072 C 
HETATM   15  C   UNL     1      43.297 -17.577   5.373  1.00  0.00     0.021 A 
HETATM   16  C   UNL     1      43.638 -17.948   4.065  1.00  0.00     0.121 A 
HETATM   17  C   UNL     1      43.335 -18.530   6.418  1.00  0.00     0.016 A 
HETATM   18  N   UNL     1      43.601 -17.059   3.051  1.00  0.00    -0.059 NA
HETATM   19  C   UNL     1      44.032 -19.280   3.837  1.00  0.00     0.098 A 
HETATM   20  C   UNL     1      44.053 -20.223   4.875  1.00  0.00     0.039 A 
HETATM   21  C   UNL     1      43.707 -19.846   6.166  1.00  0.00     0.004 A 
BRANCH  19  22
HETATM   22  O   UNL     1      44.355 -19.598   2.534  1.00  0.00    -0.354 OA
HETATM   23  C   UNL     1      43.459 -20.457   1.841  1.00  0.00     0.210 C 
ENDBRANCH  19  22
ENDBRANCH   9  11
ENDBRANCH   1   9
BRANCH   3  24
HETATM   24  C   UNL     1      40.084 -12.188  -0.049  1.00  0.00    -0.006 A 
HETATM   25  C   UNL     1      38.756 -11.860   0.279  1.00  0.00     0.017 A 
HETATM   26  C   UNL     1      37.788 -11.702  -0.717  1.00  0.00     0.043 A 
HETATM   27  C   UNL     1      38.145 -11.864  -2.049  1.00  0.00     0.116 A 
HETATM   28  F   UNL     1      37.219 -11.715  -3.006  1.00  0.00    -0.206 F 
HETATM   29  C   UNL     1      39.452 -12.172  -2.405  1.00  0.00     0.043 A 
HETATM   30  C   UNL     1      40.421 -12.327  -1.408  1.00  0.00     0.017 A 
ENDBRANCH   3  24
TORSDOF 4
ENDMDL
MODEL 10
REMARK VINA RESULT:      -8.3      2.539      3.847
REMARK  4 active torsions:
REMARK  status: ('A' for Active; 'I' for Inactive)
REMARK    1  A    between atoms: C_4  and  N_5 
REMARK    2  A    between atoms: N_5  and  C_6 
REMARK    3  A    between atoms: C_8  and  C_9 
REMARK    4  A    between atoms: C_23  and  O_24 
ROOT
HETATM    1  C   UNL     1      42.593 -13.832   2.795  1.00  0.00     0.722 A 
HETATM    2  N   UNL     1      43.045 -14.970   3.236  1.00  0.00    -0.063 NA
HETATM    3  C   UNL     1      42.590 -16.131   2.648  1.00  0.00     0.091 A 
HETATM    4  C   UNL     1      41.729 -16.156   1.621  1.00  0.00     0.108 A 
HETATM    5  C   UNL     1      41.216 -14.877   1.123  1.00  0.00     0.261 A 
HETATM    6  O   UNL     1      40.418 -14.828   0.194  1.00  0.00    -0.268 OA
HETATM    7  N   UNL     1      41.692 -13.780   1.766  1.00  0.00    -0.154 N 
HETATM    8  H   UNL     1      41.367 -12.870   1.459  1.00  0.00     0.187 HD
ENDROOT
BRANCH   1   9
HETATM    9  N   UNL     1      43.029 -12.677   3.362  1.00  0.00    -0.017 N 
HETATM   10  H   UNL     1      43.913 -12.304   3.057  1.00  0.00     0.203 HD
BRANCH   9  11
HETATM   11  C   UNL     1      42.435 -11.905   4.346  1.00  0.00     0.742 A 
HETATM   12  N   UNL     1      41.125 -11.624   4.285  1.00  0.00    -0.066 NA
HETATM   13  C   UNL     1      40.594 -10.878   5.278  1.00  0.00     0.062 A 
HETATM   14  C   UNL     1      39.122 -10.605   5.152  1.00  0.00     0.072 C 
HETATM   15  C   UNL     1      41.352 -10.392   6.348  1.00  0.00     0.021 A 
HETATM   16  C   UNL     1      42.714 -10.725   6.321  1.00  0.00     0.121 A 
HETATM   17  C   UNL     1      40.830  -9.612   7.407  1.00  0.00     0.016 A 
HETATM   18  N   UNL     1      43.232 -11.475   5.326  1.00  0.00    -0.059 NA
HETATM   19  C   UNL     1      43.533 -10.247   7.361  1.00  0.00     0.098 A 
HETATM   20  C   UNL     1      43.005  -9.486   8.415  1.00  0.00     0.039 A 
HETATM   21  C   UNL     1      41.653  -9.168   8.435  1.00  0.00     0.004 A 
BRANCH  19  22
HETATM   22  O   UNL     1      44.863 -10.603   7.292  1.00  0.00    -0.354 OA
HETATM   23  C   UNL     1      45.633 -10.443   8.476  1.00  0.00     0.210 C 
ENDBRANCH  19  22
ENDBRANCH   9  11
ENDBRANCH   1   9
BRANCH   3  24
HETATM   24  C   UNL     1      43.129 -17.412   3.172  1.00  0.00    -0.006 A 
HETATM   25  C   UNL     1      43.528 -17.501   4.518  1.00  0.00     0.017 A 
HETATM   26  C   UNL     1      44.034 -18.695   5.039  1.00  0.00     0.043 A 
HETATM   27  C   UNL     1      44.137 -19.810   4.218  1.00  0.00     0.116 A 
HETATM   28  F   UNL     1      44.624 -20.955   4.716  1.00  0.00    -0.206 F 
HETATM   29  C   UNL     1      43.737 -19.757   2.889  1.00  0.00     0.043 A 
HETATM   30  C   UNL     1      43.228 -18.563   2.369  1.00  0.00     0.017 A 
ENDBRANCH   3  24
TORSDOF 4
ENDMDL
