MODEL 1
REMARK VINA RESULT:      -9.6      0.000      0.000
REMARK  7 active torsions:
REMARK  status: ('A' for Active; 'I' for Inactive)
REMARK    1  A    between atoms: C_8  and  C_9 
REMARK    2  A    between atoms: C_9  and  N_10 
REMARK    3  A    between atoms: C_14  and  C_15 
REMARK    4  A    between atoms: C_15  and  C_16 
REMARK    5  A    between atoms: C_16  and  C_17 
REMARK    6  A    between atoms: N_27  and  C_28 
REMARK    7  A    between atoms: C_28  and  C_29 
ROOT
HETATM    1  C   UNL     1      42.033 -15.449   4.158  1.00  0.00     0.123 C 
HETATM    2  N   UNL     1      40.897 -16.248   3.716  1.00  0.00    -0.324 N 
HETATM    3  C   UNL     1      40.201 -15.617   2.703  1.00  0.00     0.326 C 
HETATM    4  O   UNL     1      39.350 -16.194   2.051  1.00  0.00    -0.247 OA
HETATM    5  N   UNL     1      40.633 -14.336   2.598  1.00  0.00    -0.268 N 
HETATM    6  C   UNL     1      41.665 -14.113   3.467  1.00  0.00     0.257 C 
HETATM    7  O   UNL     1      42.219 -13.043   3.668  1.00  0.00    -0.270 OA
HETATM    8  H   UNL     1      40.922 -17.258   3.612  1.00  0.00     0.165 HD
ENDROOT
BRANCH   1   9
HETATM    9  C   UNL     1      42.085 -15.291   5.713  1.00  0.00     0.027 C 
HETATM   10  C   UNL     1      40.996 -14.387   6.319  1.00  0.00     0.035 C 
HETATM   11  C   UNL     1      41.241 -12.892   6.146  1.00  0.00     0.235 C 
HETATM   12  N   UNL     1      42.607 -12.499   6.643  1.00  0.00    -0.067 N 
HETATM   13  H   UNL     1      42.607 -12.613   7.667  1.00  0.00     0.280 HD
HETATM   14  C   UNL     1      43.731 -13.341   6.098  1.00  0.00     0.235 C 
HETATM   15  C   UNL     1      43.442 -14.823   6.284  1.00  0.00     0.035 C 
BRANCH  12  16
HETATM   16  C   UNL     1      42.901 -11.025   6.395  1.00  0.00     0.278 C 
BRANCH  16  17
HETATM   17  C   UNL     1      43.434 -10.306   7.572  1.00  0.00     0.034 A 
HETATM   18  C   UNL     1      44.786 -10.204   8.011  1.00  0.00     0.062 A 
HETATM   19  C   UNL     1      46.012 -10.777   7.394  1.00  0.00     0.073 C 
HETATM   20  N   UNL     1      44.894  -9.462   9.117  1.00  0.00    -0.176 NA
HETATM   21  N   UNL     1      43.627  -9.136   9.440  1.00  0.00    -0.262 N 
HETATM   22  C   UNL     1      43.371  -8.397  10.655  1.00  0.00     0.181 C 
HETATM   23  C   UNL     1      42.736  -9.592   8.516  1.00  0.00     0.131 A 
HETATM   24 CL   UNL     1      41.074  -9.262   8.647  1.00  0.00    -0.062 Cl
ENDBRANCH  16  17
ENDBRANCH  12  16
ENDBRANCH   1   9
BRANCH   1  25
HETATM   25  C   UNL     1      43.315 -16.030   3.494  1.00  0.00     0.080 C 
BRANCH  25  26
HETATM   26  C   UNL     1      43.511 -17.525   3.543  1.00  0.00    -0.052 A 
HETATM   27  C   UNL     1      43.284 -18.328   2.421  1.00  0.00     0.049 A 
HETATM   28  C   UNL     1      43.488 -19.705   2.496  1.00  0.00     0.116 A 
HETATM   29  F   UNL     1      43.260 -20.457   1.412  1.00  0.00    -0.206 F 
HETATM   30  C   UNL     1      43.924 -20.306   3.669  1.00  0.00     0.042 A 
HETATM   31  C   UNL     1      44.162 -19.516   4.790  1.00  0.00     0.003 A 
HETATM   32  C   UNL     1      43.959 -18.136   4.727  1.00  0.00     0.007 A 
ENDBRANCH  25  26
ENDBRANCH   1  25
BRANCH   5  33
HETATM   33  C   UNL     1      40.130 -13.365   1.640  1.00  0.00     0.140 C 
BRANCH  33  34
HETATM   34  C   UNL     1      40.776 -13.425   0.243  1.00  0.00    -0.004 C 
HETATM   35  C   UNL     1      39.976 -14.278  -0.741  1.00  0.00     0.011 C 
HETATM   36  C   UNL     1      41.041 -12.040  -0.346  1.00  0.00     0.011 C 
ENDBRANCH  33  34
ENDBRANCH   5  33
TORSDOF 7
ENDMDL
MODEL 2
REMARK VINA RESULT:      -9.5      3.356      6.872
REMARK  7 active torsions:
REMARK  status: ('A' for Active; 'I' for Inactive)
REMARK    1  A    between atoms: C_8  and  C_9 
REMARK    2  A    between atoms: C_9  and  N_10 
REMARK    3  A    between atoms: C_14  and  C_15 
REMARK    4  A    between atoms: C_15  and  C_16 
REMARK    5  A    between atoms: C_16  and  C_17 
REMARK    6  A    between atoms: N_27  and  C_28 
REMARK    7  A    between atoms: C_28  and  C_29 
ROOT
HETATM    1  C   UNL     1      42.696 -15.850   3.893  1.00  0.00     0.123 C 
HETATM    2  N   UNL     1      43.138 -14.469   3.740  1.00  0.00    -0.324 N 
HETATM    3  C   UNL     1      42.515 -13.638   4.651  1.00  0.00     0.326 C 
HETATM    4  O   UNL     1      42.887 -12.493   4.837  1.00  0.00    -0.247 OA
HETATM    5  N   UNL     1      41.497 -14.310   5.243  1.00  0.00    -0.268 N 
HETATM    6  C   UNL     1      41.471 -15.606   4.807  1.00  0.00     0.257 C 
HETATM    7  O   UNL     1      40.631 -16.445   5.093  1.00  0.00    -0.270 OA
HETATM    8  H   UNL     1      44.099 -14.201   3.549  1.00  0.00     0.165 HD
ENDROOT
BRANCH   1   9
HETATM    9  C   UNL     1      42.273 -16.496   2.533  1.00  0.00     0.027 C 
HETATM   10  C   UNL     1      42.821 -15.800   1.274  1.00  0.00     0.035 C 
HETATM   11  C   UNL     1      42.104 -14.508   0.898  1.00  0.00     0.235 C 
HETATM   12  N   UNL     1      40.617 -14.717   0.794  1.00  0.00    -0.067 N 
HETATM   13  H   UNL     1      40.447 -15.319  -0.024  1.00  0.00     0.280 HD
HETATM   14  C   UNL     1      40.001 -15.399   1.989  1.00  0.00     0.235 C 
HETATM   15  C   UNL     1      40.751 -16.677   2.333  1.00  0.00     0.035 C 
BRANCH  12  16
HETATM   16  C   UNL     1      39.877 -13.417   0.507  1.00  0.00     0.278 C 
BRANCH  16  17
HETATM   17  C   UNL     1      40.008 -12.938  -0.886  1.00  0.00     0.034 A 
HETATM   18  C   UNL     1      39.617 -13.594  -2.088  1.00  0.00     0.062 A 
HETATM   19  C   UNL     1      38.960 -14.917  -2.258  1.00  0.00     0.073 C 
HETATM   20  N   UNL     1      39.885 -12.853  -3.168  1.00  0.00    -0.176 NA
HETATM   21  N   UNL     1      40.505 -11.756  -2.689  1.00  0.00    -0.262 N 
HETATM   22  C   UNL     1      41.018 -10.770  -3.612  1.00  0.00     0.181 C 
HETATM   23  C   UNL     1      40.559 -11.759  -1.329  1.00  0.00     0.131 A 
HETATM   24 CL   UNL     1      41.232 -10.459  -0.464  1.00  0.00    -0.062 Cl
ENDBRANCH  16  17
ENDBRANCH  12  16
ENDBRANCH   1   9
BRANCH   1  25
HETATM   25  C   UNL     1      43.787 -16.616   4.695  1.00  0.00     0.080 C 
BRANCH  25  26
HETATM   26  C   UNL     1      43.807 -18.120   4.588  1.00  0.00    -0.052 A 
HETATM   27  C   UNL     1      43.958 -18.762   3.354  1.00  0.00     0.049 A 
HETATM   28  C   UNL     1      43.986 -20.154   3.292  1.00  0.00     0.116 A 
HETATM   29  F   UNL     1      44.125 -20.750   2.101  1.00  0.00    -0.206 F 
HETATM   30  C   UNL     1      43.874 -20.930   4.438  1.00  0.00     0.042 A 
HETATM   31  C   UNL     1      43.733 -20.303   5.672  1.00  0.00     0.003 A 
HETATM   32  C   UNL     1      43.701 -18.908   5.747  1.00  0.00     0.007 A 
ENDBRANCH  25  26
ENDBRANCH   1  25
BRANCH   5  33
HETATM   33  C   UNL     1      40.614 -13.756   6.256  1.00  0.00     0.140 C 
BRANCH  33  34
HETATM   34  C   UNL     1      39.539 -12.786   5.732  1.00  0.00    -0.004 C 
HETATM   35  C   UNL     1      39.661 -11.387   6.336  1.00  0.00     0.011 C 
HETATM   36  C   UNL     1      39.507 -12.707   4.206  1.00  0.00     0.011 C 
ENDBRANCH  33  34
ENDBRANCH   5  33
TORSDOF 7
ENDMDL
MODEL 3
REMARK VINA RESULT:      -9.4      1.226      1.763
REMARK  7 active torsions:
REMARK  status: ('A' for Active; 'I' for Inactive)
REMARK    1  A    between atoms: C_8  and  C_9 
REMARK    2  A    between atoms: C_9  and  N_10 
REMARK    3  A    between atoms: C_14  and  C_15 
REMARK    4  A    between atoms: C_15  and  C_16 
REMARK    5  A    between atoms: C_16  and  C_17 
REMARK    6  A    between atoms: N_27  and  C_28 
REMARK    7  A    between atoms: C_28  and  C_29 
ROOT
HETATM    1  C   UNL     1      42.063 -15.550   3.819  1.00  0.00     0.123 C 
HETATM    2  N   UNL     1      40.977 -16.292   3.193  1.00  0.00    -0.324 N 
HETATM    3  C   UNL     1      40.479 -15.623   2.091  1.00  0.00     0.326 C 
HETATM    4  O   UNL     1      39.717 -16.156   1.305  1.00  0.00    -0.247 OA
HETATM    5  N   UNL     1      40.979 -14.363   2.074  1.00  0.00    -0.268 N 
HETATM    6  C   UNL     1      41.869 -14.194   3.098  1.00  0.00     0.257 C 
HETATM    7  O   UNL     1      42.432 -13.152   3.398  1.00  0.00    -0.270 OA
HETATM    8  H   UNL     1      40.974 -17.302   3.080  1.00  0.00     0.165 HD
ENDROOT
BRANCH   1   9
HETATM    9  C   UNL     1      41.876 -15.404   5.366  1.00  0.00     0.027 C 
HETATM   10  C   UNL     1      40.709 -14.502   5.804  1.00  0.00     0.035 C 
HETATM   11  C   UNL     1      40.980 -13.006   5.684  1.00  0.00     0.235 C 
HETATM   12  N   UNL     1      42.254 -12.622   6.388  1.00  0.00    -0.067 N 
HETATM   13  H   UNL     1      42.096 -12.745   7.399  1.00  0.00     0.280 HD
HETATM   14  C   UNL     1      43.447 -13.463   6.015  1.00  0.00     0.235 C 
HETATM   15  C   UNL     1      43.130 -14.945   6.142  1.00  0.00     0.035 C 
BRANCH  12  16
HETATM   16  C   UNL     1      42.586 -11.147   6.202  1.00  0.00     0.278 C 
BRANCH  16  17
HETATM   17  C   UNL     1      43.056 -10.470   7.428  1.00  0.00     0.034 A 
HETATM   18  C   UNL     1      42.314  -9.656   8.331  1.00  0.00     0.062 A 
HETATM   19  C   UNL     1      40.873  -9.290   8.288  1.00  0.00     0.073 C 
HETATM   20  N   UNL     1      43.071  -9.215   9.341  1.00  0.00    -0.176 NA
HETATM   21  N   UNL     1      44.309  -9.676   9.071  1.00  0.00    -0.262 N 
HETATM   22  C   UNL     1      45.409  -9.303   9.930  1.00  0.00     0.181 C 
HETATM   23  C   UNL     1      44.325 -10.460   7.958  1.00  0.00     0.131 A 
HETATM   24 CL   UNL     1      45.749 -11.224   7.430  1.00  0.00    -0.062 Cl
ENDBRANCH  16  17
ENDBRANCH  12  16
ENDBRANCH   1   9
BRANCH   1  25
HETATM   25  C   UNL     1      43.407 -16.185   3.358  1.00  0.00     0.080 C 
BRANCH  25  26
HETATM   26  C   UNL     1      43.538 -17.685   3.448  1.00  0.00    -0.052 A 
HETATM   27  C   UNL     1      43.286 -18.507   2.345  1.00  0.00     0.049 A 
HETATM   28  C   UNL     1      43.430 -19.889   2.458  1.00  0.00     0.116 A 
HETATM   29  F   UNL     1      43.179 -20.660   1.392  1.00  0.00    -0.206 F 
HETATM   30  C   UNL     1      43.830 -20.477   3.650  1.00  0.00     0.042 A 
HETATM   31  C   UNL     1      44.093 -19.668   4.753  1.00  0.00     0.003 A 
HETATM   32  C   UNL     1      43.950 -18.283   4.652  1.00  0.00     0.007 A 
ENDBRANCH  25  26
ENDBRANCH   1  25
BRANCH   5  33
HETATM   33  C   UNL     1      40.677 -13.363   1.062  1.00  0.00     0.140 C 
BRANCH  33  34
HETATM   34  C   UNL     1      39.283 -12.716   1.174  1.00  0.00    -0.004 C 
HETATM   35  C   UNL     1      38.991 -12.184   2.576  1.00  0.00     0.011 C 
HETATM   36  C   UNL     1      39.052 -11.625   0.130  1.00  0.00     0.011 C 
ENDBRANCH  33  34
ENDBRANCH   5  33
TORSDOF 7
ENDMDL
MODEL 4
REMARK VINA RESULT:      -9.3      1.866      2.908
REMARK  7 active torsions:
REMARK  status: ('A' for Active; 'I' for Inactive)
REMARK    1  A    between atoms: C_8  and  C_9 
REMARK    2  A    between atoms: C_9  and  N_10 
REMARK    3  A    between atoms: C_14  and  C_15 
REMARK    4  A    between atoms: C_15  and  C_16 
REMARK    5  A    between atoms: C_16  and  C_17 
REMARK    6  A    between atoms: N_27  and  C_28 
REMARK    7  A    between atoms: C_28  and  C_29 
ROOT
HETATM    1  C   UNL     1      41.148 -13.141   2.313  1.00  0.00     0.123 C 
HETATM    2  N   UNL     1      40.366 -14.364   2.440  1.00  0.00    -0.324 N 
HETATM    3  C   UNL     1      40.081 -14.911   1.203  1.00  0.00     0.326 C 
HETATM    4  O   UNL     1      39.623 -16.033   1.086  1.00  0.00    -0.247 OA
HETATM    5  N   UNL     1      40.398 -14.014   0.237  1.00  0.00    -0.268 N 
HETATM    6  C   UNL     1      40.966 -12.902   0.794  1.00  0.00     0.257 C 
HETATM    7  O   UNL     1      41.290 -11.885   0.200  1.00  0.00    -0.270 OA
HETATM    8  H   UNL     1      40.525 -15.066   3.157  1.00  0.00     0.165 HD
ENDROOT
BRANCH   1   9
HETATM    9  C   UNL     1      40.555 -11.961   3.151  1.00  0.00     0.027 C 
HETATM   10  C   UNL     1      41.481 -10.743   3.317  1.00  0.00     0.035 C 
HETATM   11  C   UNL     1      42.597 -10.926   4.340  1.00  0.00     0.235 C 
HETATM   12  N   UNL     1      42.052 -11.376   5.670  1.00  0.00    -0.067 N 
HETATM   13  H   UNL     1      41.510 -10.592   6.062  1.00  0.00     0.280 HD
HETATM   14  C   UNL     1      41.131 -12.566   5.593  1.00  0.00     0.235 C 
HETATM   15  C   UNL     1      40.040 -12.343   4.556  1.00  0.00     0.035 C 
BRANCH  12  16
HETATM   16  C   UNL     1      43.162 -11.649   6.677  1.00  0.00     0.278 C 
BRANCH  16  17
HETATM   17  C   UNL     1      43.674 -10.442   7.360  1.00  0.00     0.034 A 
HETATM   18  C   UNL     1      45.023 -10.108   7.675  1.00  0.00     0.062 A 
HETATM   19  C   UNL     1      46.265 -10.872   7.385  1.00  0.00     0.073 C 
HETATM   20  N   UNL     1      45.110  -8.925   8.292  1.00  0.00    -0.176 NA
HETATM   21  N   UNL     1      43.833  -8.519   8.442  1.00  0.00    -0.262 N 
HETATM   22  C   UNL     1      43.556  -7.297   9.162  1.00  0.00     0.181 C 
HETATM   23  C   UNL     1      42.956  -9.383   7.862  1.00  0.00     0.131 A 
HETATM   24 CL   UNL     1      41.284  -9.076   7.848  1.00  0.00    -0.062 Cl
ENDBRANCH  16  17
ENDBRANCH  12  16
ENDBRANCH   1   9
BRANCH   1  25
HETATM   25  C   UNL     1      42.637 -13.493   2.599  1.00  0.00     0.080 C 
BRANCH  25  26
HETATM   26  C   UNL     1      42.965 -14.927   2.932  1.00  0.00    -0.052 A 
HETATM   27  C   UNL     1      42.981 -15.384   4.254  1.00  0.00     0.049 A 
HETATM   28  C   UNL     1      43.274 -16.719   4.526  1.00  0.00     0.116 A 
HETATM   29  F   UNL     1      43.290 -17.136   5.798  1.00  0.00    -0.206 F 
HETATM   30  C   UNL     1      43.547 -17.620   3.506  1.00  0.00     0.042 A 
HETATM   31  C   UNL     1      43.525 -17.180   2.185  1.00  0.00     0.003 A 
HETATM   32  C   UNL     1      43.235 -15.843   1.900  1.00  0.00     0.007 A 
ENDBRANCH  25  26
ENDBRANCH   1  25
BRANCH   5  33
HETATM   33  C   UNL     1      40.233 -14.237  -1.190  1.00  0.00     0.140 C 
BRANCH  33  34
HETATM   34  C   UNL     1      38.785 -14.146  -1.707  1.00  0.00    -0.004 C 
HETATM   35  C   UNL     1      38.288 -12.705  -1.817  1.00  0.00     0.011 C 
HETATM   36  C   UNL     1      38.581 -14.883  -3.030  1.00  0.00     0.011 C 
ENDBRANCH  33  34
ENDBRANCH   5  33
TORSDOF 7
ENDMDL
MODEL 5
REMARK VINA RESULT:      -9.3      2.937      7.082
REMARK  7 active torsions:
REMARK  status: ('A' for Active; 'I' for Inactive)
REMARK    1  A    between atoms: C_8  and  C_9 
REMARK    2  A    between atoms: C_9  and  N_10 
REMARK    3  A    between atoms: C_14  and  C_15 
REMARK    4  A    between atoms: C_15  and  C_16 
REMARK    5  A    between atoms: C_16  and  C_17 
REMARK    6  A    between atoms: N_27  and  C_28 
REMARK    7  A    between atoms: C_28  and  C_29 
ROOT
HETATM    1  C   UNL     1      42.130 -15.177   2.909  1.00  0.00     0.123 C 
HETATM    2  N   UNL     1      42.354 -13.743   2.781  1.00  0.00    -0.324 N 
HETATM    3  C   UNL     1      42.453 -13.137   4.019  1.00  0.00     0.326 C 
HETATM    4  O   UNL     1      42.843 -11.990   4.145  1.00  0.00    -0.247 OA
HETATM    5  N   UNL     1      42.062 -14.014   4.976  1.00  0.00    -0.268 N 
HETATM    6  C   UNL     1      41.777 -15.228   4.415  1.00  0.00     0.257 C 
HETATM    7  O   UNL     1      41.328 -16.203   4.998  1.00  0.00    -0.270 OA
HETATM    8  H   UNL     1      42.963 -13.325   2.084  1.00  0.00     0.165 HD
ENDROOT
BRANCH   1   9
HETATM    9  C   UNL     1      40.939 -15.679   2.027  1.00  0.00     0.027 C 
HETATM   10  C   UNL     1      41.030 -15.318   0.533  1.00  0.00     0.035 C 
HETATM   11  C   UNL     1      40.680 -13.871   0.205  1.00  0.00     0.235 C 
HETATM   12  N   UNL     1      39.339 -13.489   0.772  1.00  0.00    -0.067 N 
HETATM   13  H   UNL     1      38.623 -14.019   0.255  1.00  0.00     0.280 HD
HETATM   14  C   UNL     1      39.168 -13.813   2.234  1.00  0.00     0.235 C 
HETATM   15  C   UNL     1      39.534 -15.262   2.517  1.00  0.00     0.035 C 
BRANCH  12  16
HETATM   16  C   UNL     1      39.015 -12.020   0.530  1.00  0.00     0.278 C 
BRANCH  16  17
HETATM   17  C   UNL     1      39.228 -11.573  -0.863  1.00  0.00     0.034 A 
HETATM   18  C   UNL     1      38.560 -12.006  -2.044  1.00  0.00     0.062 A 
HETATM   19  C   UNL     1      37.466 -13.004  -2.184  1.00  0.00     0.073 C 
HETATM   20  N   UNL     1      39.012 -11.373  -3.131  1.00  0.00    -0.176 NA
HETATM   21  N   UNL     1      40.008 -10.584  -2.682  1.00  0.00    -0.262 N 
HETATM   22  C   UNL     1      40.784  -9.813  -3.626  1.00  0.00     0.181 C 
HETATM   23  C   UNL     1      40.136 -10.651  -1.328  1.00  0.00     0.131 A 
HETATM   24 CL   UNL     1      41.275  -9.705  -0.495  1.00  0.00    -0.062 Cl
ENDBRANCH  16  17
ENDBRANCH  12  16
ENDBRANCH   1   9
BRANCH   1  25
HETATM   25  C   UNL     1      43.491 -15.897   2.679  1.00  0.00     0.080 C 
BRANCH  25  26
HETATM   26  C   UNL     1      43.564 -17.371   2.988  1.00  0.00    -0.052 A 
HETATM   27  C   UNL     1      43.115 -18.331   2.074  1.00  0.00     0.049 A 
HETATM   28  C   UNL     1      43.209 -19.686   2.385  1.00  0.00     0.116 A 
HETATM   29  F   UNL     1      42.768 -20.589   1.500  1.00  0.00    -0.206 F 
HETATM   30  C   UNL     1      43.750 -20.114   3.590  1.00  0.00     0.042 A 
HETATM   31  C   UNL     1      44.209 -19.169   4.503  1.00  0.00     0.003 A 
HETATM   32  C   UNL     1      44.118 -17.808   4.203  1.00  0.00     0.007 A 
ENDBRANCH  25  26
ENDBRANCH   1  25
BRANCH   5  33
HETATM   33  C   UNL     1      42.031 -13.729   6.401  1.00  0.00     0.140 C 
BRANCH  33  34
HETATM   34  C   UNL     1      43.383 -13.864   7.127  1.00  0.00    -0.004 C 
HETATM   35  C   UNL     1      44.215 -15.037   6.612  1.00  0.00     0.011 C 
HETATM   36  C   UNL     1      44.202 -12.575   7.097  1.00  0.00     0.011 C 
ENDBRANCH  33  34
ENDBRANCH   5  33
TORSDOF 7
ENDMDL
MODEL 6
REMARK VINA RESULT:      -9.3      1.774      4.636
REMARK  7 active torsions:
REMARK  status: ('A' for Active; 'I' for Inactive)
REMARK    1  A    between atoms: C_8  and  C_9 
REMARK    2  A    between atoms: C_9  and  N_10 
REMARK    3  A    between atoms: C_14  and  C_15 
REMARK    4  A    between atoms: C_15  and  C_16 
REMARK    5  A    between atoms: C_16  and  C_17 
REMARK    6  A    between atoms: N_27  and  C_28 
REMARK    7  A    between atoms: C_28  and  C_29 
ROOT
HETATM    1  C   UNL     1      40.679 -14.040   3.925  1.00  0.00     0.123 C 
HETATM    2  N   UNL     1      41.981 -13.564   3.476  1.00  0.00    -0.324 N 
HETATM    3  C   UNL     1      42.639 -14.525   2.730  1.00  0.00     0.326 C 
HETATM    4  O   UNL     1      43.641 -14.266   2.089  1.00  0.00    -0.247 OA
HETATM    5  N   UNL     1      41.985 -15.706   2.852  1.00  0.00    -0.268 N 
HETATM    6  C   UNL     1      40.853 -15.544   3.601  1.00  0.00     0.257 C 
HETATM    7  O   UNL     1      40.091 -16.430   3.955  1.00  0.00    -0.270 OA
HETATM    8  H   UNL     1      42.157 -12.619   3.149  1.00  0.00     0.165 HD
ENDROOT
BRANCH   1   9
HETATM    9  C   UNL     1      40.452 -13.808   5.455  1.00  0.00     0.027 C 
HETATM   10  C   UNL     1      39.891 -12.426   5.834  1.00  0.00     0.035 C 
HETATM   11  C   UNL     1      40.912 -11.294   5.802  1.00  0.00     0.235 C 
HETATM   12  N   UNL     1      42.127 -11.628   6.625  1.00  0.00    -0.067 N 
HETATM   13  H   UNL     1      41.835 -11.644   7.613  1.00  0.00     0.280 HD
HETATM   14  C   UNL     1      42.736 -12.971   6.316  1.00  0.00     0.235 C 
HETATM   15  C   UNL     1      41.682 -14.068   6.352  1.00  0.00     0.035 C 
BRANCH  12  16
HETATM   16  C   UNL     1      43.194 -10.545   6.531  1.00  0.00     0.278 C 
BRANCH  16  17
HETATM   17  C   UNL     1      43.779 -10.153   7.831  1.00  0.00     0.034 A 
HETATM   18  C   UNL     1      45.135 -10.246   8.256  1.00  0.00     0.062 A 
HETATM   19  C   UNL     1      46.317 -10.742   7.502  1.00  0.00     0.073 C 
HETATM   20  N   UNL     1      45.298  -9.788   9.501  1.00  0.00    -0.176 NA
HETATM   21  N   UNL     1      44.057  -9.460   9.914  1.00  0.00    -0.262 N 
HETATM   22  C   UNL     1      43.856  -9.006  11.270  1.00  0.00     0.181 C 
HETATM   23  C   UNL     1      43.134  -9.631   8.927  1.00  0.00     0.131 A 
HETATM   24 CL   UNL     1      41.499  -9.230   9.161  1.00  0.00    -0.062 Cl
ENDBRANCH  16  17
ENDBRANCH  12  16
ENDBRANCH   1   9
BRANCH   1  25
HETATM   25  C   UNL     1      39.598 -13.437   2.981  1.00  0.00     0.080 C 
BRANCH  25  26
HETATM   26  C   UNL     1      40.044 -12.961   1.621  1.00  0.00    -0.052 A 
HETATM   27  C   UNL     1      39.987 -13.796   0.500  1.00  0.00     0.049 A 
HETATM   28  C   UNL     1      40.394 -13.320  -0.745  1.00  0.00     0.116 A 
HETATM   29  F   UNL     1      40.338 -14.136  -1.804  1.00  0.00    -0.206 F 
HETATM   30  C   UNL     1      40.853 -12.019  -0.905  1.00  0.00     0.042 A 
HETATM   31  C   UNL     1      40.906 -11.175   0.201  1.00  0.00     0.003 A 
HETATM   32  C   UNL     1      40.503 -11.642   1.455  1.00  0.00     0.007 A 
ENDBRANCH  25  26
ENDBRANCH   1  25
BRANCH   5  33
HETATM   33  C   UNL     1      42.386 -16.947   2.209  1.00  0.00     0.140 C 
BRANCH  33  34
HETATM   34  C   UNL     1      43.516 -17.719   2.916  1.00  0.00    -0.004 C 
HETATM   35  C   UNL     1      43.462 -17.580   4.437  1.00  0.00     0.011 C 
HETATM   36  C   UNL     1      43.566 -19.192   2.517  1.00  0.00     0.011 C 
ENDBRANCH  33  34
ENDBRANCH   5  33
TORSDOF 7
ENDMDL
MODEL 7
REMARK VINA RESULT:      -9.1      3.251      7.798
REMARK  7 active torsions:
REMARK  status: ('A' for Active; 'I' for Inactive)
REMARK    1  A    between atoms: C_8  and  C_9 
REMARK    2  A    between atoms: C_9  and  N_10 
REMARK    3  A    between atoms: C_14  and  C_15 
REMARK    4  A    between atoms: C_15  and  C_16 
REMARK    5  A    between atoms: C_16  and  C_17 
REMARK    6  A    between atoms: N_27  and  C_28 
REMARK    7  A    between atoms: C_28  and  C_29 
ROOT
HETATM    1  C   UNL     1      42.071 -14.127   3.044  1.00  0.00     0.123 C 
HETATM    2  N   UNL     1      42.217 -12.773   2.526  1.00  0.00    -0.324 N 
HETATM    3  C   UNL     1      42.529 -11.879   3.533  1.00  0.00     0.326 C 
HETATM    4  O   UNL     1      42.897 -10.743   3.294  1.00  0.00    -0.247 OA
HETATM    5  N   UNL     1      42.357 -12.485   4.733  1.00  0.00    -0.268 N 
HETATM    6  C   UNL     1      42.013 -13.796   4.555  1.00  0.00     0.257 C 
HETATM    7  O   UNL     1      41.715 -14.589   5.436  1.00  0.00    -0.270 OA
HETATM    8  H   UNL     1      42.668 -12.550   1.643  1.00  0.00     0.165 HD
ENDROOT
BRANCH   1   9
HETATM    9  C   UNL     1      40.752 -14.814   2.560  1.00  0.00     0.027 C 
HETATM   10  C   UNL     1      40.787 -15.365   1.122  1.00  0.00     0.035 C 
HETATM   11  C   UNL     1      40.651 -14.307   0.032  1.00  0.00     0.235 C 
HETATM   12  N   UNL     1      39.435 -13.447   0.252  1.00  0.00    -0.067 N 
HETATM   13  H   UNL     1      38.607 -14.040   0.099  1.00  0.00     0.280 HD
HETATM   14  C   UNL     1      39.325 -12.870   1.639  1.00  0.00     0.235 C 
HETATM   15  C   UNL     1      39.473 -13.957   2.694  1.00  0.00     0.035 C 
BRANCH  12  16
HETATM   16  C   UNL     1      39.335 -12.329  -0.779  1.00  0.00     0.278 C 
BRANCH  16  17
HETATM   17  C   UNL     1      38.201 -12.468  -1.717  1.00  0.00     0.034 A 
HETATM   18  C   UNL     1      37.919 -13.539  -2.612  1.00  0.00     0.062 A 
HETATM   19  C   UNL     1      38.675 -14.802  -2.823  1.00  0.00     0.073 C 
HETATM   20  N   UNL     1      36.797 -13.324  -3.306  1.00  0.00    -0.176 NA
HETATM   21  N   UNL     1      36.383 -12.099  -2.924  1.00  0.00    -0.262 N 
HETATM   22  C   UNL     1      35.225 -11.510  -3.556  1.00  0.00     0.181 C 
HETATM   23  C   UNL     1      37.179 -11.579  -1.949  1.00  0.00     0.131 A 
HETATM   24 CL   UNL     1      36.843 -10.071  -1.240  1.00  0.00    -0.062 Cl
ENDBRANCH  16  17
ENDBRANCH  12  16
ENDBRANCH   1   9
BRANCH   1  25
HETATM   25  C   UNL     1      43.387 -14.900   2.741  1.00  0.00     0.080 C 
BRANCH  25  26
HETATM   26  C   UNL     1      43.456 -16.350   3.151  1.00  0.00    -0.052 A 
HETATM   27  C   UNL     1      43.223 -17.380   2.233  1.00  0.00     0.049 A 
HETATM   28  C   UNL     1      43.308 -18.710   2.642  1.00  0.00     0.116 A 
HETATM   29  F   UNL     1      43.076 -19.681   1.750  1.00  0.00    -0.206 F 
HETATM   30  C   UNL     1      43.630 -19.043   3.951  1.00  0.00     0.042 A 
HETATM   31  C   UNL     1      43.873 -18.027   4.871  1.00  0.00     0.003 A 
HETATM   32  C   UNL     1      43.788 -16.691   4.474  1.00  0.00     0.007 A 
ENDBRANCH  25  26
ENDBRANCH   1  25
BRANCH   5  33
HETATM   33  C   UNL     1      42.588 -11.854   6.023  1.00  0.00     0.140 C 
BRANCH  33  34
HETATM   34  C   UNL     1      43.991 -12.073   6.619  1.00  0.00    -0.004 C 
HETATM   35  C   UNL     1      45.100 -11.474   5.755  1.00  0.00     0.011 C 
HETATM   36  C   UNL     1      44.107 -11.572   8.058  1.00  0.00     0.011 C 
ENDBRANCH  33  34
ENDBRANCH   5  33
TORSDOF 7
ENDMDL
MODEL 8
REMARK VINA RESULT:      -8.9      3.032      6.443
REMARK  7 active torsions:
REMARK  status: ('A' for Active; 'I' for Inactive)
REMARK    1  A    between atoms: C_8  and  C_9 
REMARK    2  A    between atoms: C_9  and  N_10 
REMARK    3  A    between atoms: C_14  and  C_15 
REMARK    4  A    between atoms: C_15  and  C_16 
REMARK    5  A    between atoms: C_16  and  C_17 
REMARK    6  A    between atoms: N_27  and  C_28 
REMARK    7  A    between atoms: C_28  and  C_29 
ROOT
HETATM    1  C   UNL     1      41.898 -13.885   2.946  1.00  0.00     0.123 C 
HETATM    2  N   UNL     1      42.015 -12.510   2.477  1.00  0.00    -0.324 N 
HETATM    3  C   UNL     1      42.209 -11.634   3.529  1.00  0.00     0.326 C 
HETATM    4  O   UNL     1      42.538 -10.476   3.349  1.00  0.00    -0.247 OA
HETATM    5  N   UNL     1      41.982 -12.285   4.696  1.00  0.00    -0.268 N 
HETATM    6  C   UNL     1      41.715 -13.604   4.457  1.00  0.00     0.257 C 
HETATM    7  O   UNL     1      41.394 -14.437   5.292  1.00  0.00    -0.270 OA
HETATM    8  H   UNL     1      42.516 -12.239   1.637  1.00  0.00     0.165 HD
ENDROOT
BRANCH   1   9
HETATM    9  C   UNL     1      40.652 -14.617   2.348  1.00  0.00     0.027 C 
HETATM   10  C   UNL     1      40.652 -14.772   0.816  1.00  0.00     0.035 C 
HETATM   11  C   UNL     1      40.292 -13.504   0.048  1.00  0.00     0.235 C 
HETATM   12  N   UNL     1      38.990 -12.923   0.532  1.00  0.00    -0.067 N 
HETATM   13  H   UNL     1      38.241 -13.575   0.259  1.00  0.00     0.280 HD
HETATM   14  C   UNL     1      38.908 -12.742   2.026  1.00  0.00     0.235 C 
HETATM   15  C   UNL     1      39.282 -14.027   2.750  1.00  0.00     0.035 C 
BRANCH  12  16
HETATM   16  C   UNL     1      38.661 -11.608  -0.163  1.00  0.00     0.278 C 
BRANCH  16  17
HETATM   17  C   UNL     1      39.757 -10.617  -0.141  1.00  0.00     0.034 A 
HETATM   18  C   UNL     1      40.057  -9.649   0.861  1.00  0.00     0.062 A 
HETATM   19  C   UNL     1      39.359  -9.395   2.149  1.00  0.00     0.073 C 
HETATM   20  N   UNL     1      41.134  -8.924   0.545  1.00  0.00    -0.176 NA
HETATM   21  N   UNL     1      41.499  -9.361  -0.677  1.00  0.00    -0.262 N 
HETATM   22  C   UNL     1      42.595  -8.718  -1.365  1.00  0.00     0.181 C 
HETATM   23  C   UNL     1      40.721 -10.397  -1.097  1.00  0.00     0.131 A 
HETATM   24 CL   UNL     1      41.007 -11.180  -2.578  1.00  0.00    -0.062 Cl
ENDBRANCH  16  17
ENDBRANCH  12  16
ENDBRANCH   1   9
BRANCH   1  25
HETATM   25  C   UNL     1      43.268 -14.587   2.719  1.00  0.00     0.080 C 
BRANCH  25  26
HETATM   26  C   UNL     1      43.382 -16.040   3.106  1.00  0.00    -0.052 A 
HETATM   27  C   UNL     1      43.182 -17.062   2.173  1.00  0.00     0.049 A 
HETATM   28  C   UNL     1      43.308 -18.395   2.560  1.00  0.00     0.116 A 
HETATM   29  F   UNL     1      43.106 -19.359   1.653  1.00  0.00    -0.206 F 
HETATM   30  C   UNL     1      43.640 -18.738   3.864  1.00  0.00     0.042 A 
HETATM   31  C   UNL     1      43.851 -17.730   4.800  1.00  0.00     0.003 A 
HETATM   32  C   UNL     1      43.725 -16.391   4.424  1.00  0.00     0.007 A 
ENDBRANCH  25  26
ENDBRANCH   1  25
BRANCH   5  33
HETATM   33  C   UNL     1      42.088 -11.684   6.016  1.00  0.00     0.140 C 
BRANCH  33  34
HETATM   34  C   UNL     1      43.526 -11.417   6.502  1.00  0.00    -0.004 C 
HETATM   35  C   UNL     1      43.573 -10.519   7.737  1.00  0.00     0.011 C 
HETATM   36  C   UNL     1      44.316 -12.702   6.745  1.00  0.00     0.011 C 
ENDBRANCH  33  34
ENDBRANCH   5  33
TORSDOF 7
ENDMDL
MODEL 9
REMARK VINA RESULT:      -8.9      2.798      5.953
REMARK  7 active torsions:
REMARK  status: ('A' for Active; 'I' for Inactive)
REMARK    1  A    between atoms: C_8  and  C_9 
REMARK    2  A    between atoms: C_9  and  N_10 
REMARK    3  A    between atoms: C_14  and  C_15 
REMARK    4  A    between atoms: C_15  and  C_16 
REMARK    5  A    between atoms: C_16  and  C_17 
REMARK    6  A    between atoms: N_27  and  C_28 
REMARK    7  A    between atoms: C_28  and  C_29 
ROOT
HETATM    1  C   UNL     1      40.537 -14.252   1.211  1.00  0.00     0.123 C 
HETATM    2  N   UNL     1      41.978 -14.082   1.075  1.00  0.00    -0.324 N 
HETATM    3  C   UNL     1      42.663 -15.178   1.566  1.00  0.00     0.326 C 
HETATM    4  O   UNL     1      43.854 -15.335   1.364  1.00  0.00    -0.247 OA
HETATM    5  N   UNL     1      41.803 -15.968   2.253  1.00  0.00    -0.268 N 
HETATM    6  C   UNL     1      40.533 -15.469   2.168  1.00  0.00     0.257 C 
HETATM    7  O   UNL     1      39.547 -15.908   2.741  1.00  0.00    -0.270 OA
HETATM    8  H   UNL     1      42.424 -13.665   0.263  1.00  0.00     0.165 HD
ENDROOT
BRANCH   1   9
HETATM    9  C   UNL     1      39.846 -13.011   1.865  1.00  0.00     0.027 C 
HETATM   10  C   UNL     1      40.389 -11.643   1.412  1.00  0.00     0.035 C 
HETATM   11  C   UNL     1      41.722 -11.248   2.040  1.00  0.00     0.235 C 
HETATM   12  N   UNL     1      41.668 -11.338   3.541  1.00  0.00    -0.067 N 
HETATM   13  H   UNL     1      41.032 -10.598   3.872  1.00  0.00     0.280 HD
HETATM   14  C   UNL     1      41.143 -12.649   4.066  1.00  0.00     0.235 C 
HETATM   15  C   UNL     1      39.819 -13.007   3.409  1.00  0.00     0.035 C 
BRANCH  12  16
HETATM   16  C   UNL     1      43.018 -11.033   4.179  1.00  0.00     0.278 C 
BRANCH  16  17
HETATM   17  C   UNL     1      42.943 -10.636   5.600  1.00  0.00     0.034 A 
HETATM   18  C   UNL     1      42.082  -9.677   6.208  1.00  0.00     0.062 A 
HETATM   19  C   UNL     1      41.025  -8.842   5.579  1.00  0.00     0.073 C 
HETATM   20  N   UNL     1      42.291  -9.586   7.525  1.00  0.00    -0.176 NA
HETATM   21  N   UNL     1      43.320 -10.422   7.770  1.00  0.00    -0.262 N 
HETATM   22  C   UNL     1      43.870 -10.500   9.104  1.00  0.00     0.181 C 
HETATM   23  C   UNL     1      43.706 -11.091   6.649  1.00  0.00     0.131 A 
HETATM   24 CL   UNL     1      44.942 -12.258   6.692  1.00  0.00    -0.062 Cl
ENDBRANCH  16  17
ENDBRANCH  12  16
ENDBRANCH   1   9
BRANCH   1  25
HETATM   25  C   UNL     1      39.974 -14.690  -0.173  1.00  0.00     0.080 C 
BRANCH  25  26
HETATM   26  C   UNL     1      39.646 -13.606  -1.168  1.00  0.00    -0.052 A 
HETATM   27  C   UNL     1      40.632 -13.043  -1.986  1.00  0.00     0.049 A 
HETATM   28  C   UNL     1      40.293 -12.052  -2.906  1.00  0.00     0.116 A 
HETATM   29  F   UNL     1      41.253 -11.522  -3.675  1.00  0.00    -0.206 F 
HETATM   30  C   UNL     1      38.985 -11.609  -3.038  1.00  0.00     0.042 A 
HETATM   31  C   UNL     1      37.992 -12.168  -2.237  1.00  0.00     0.003 A 
HETATM   32  C   UNL     1      38.321 -13.160  -1.310  1.00  0.00     0.007 A 
ENDBRANCH  25  26
ENDBRANCH   1  25
BRANCH   5  33
HETATM   33  C   UNL     1      42.165 -17.212   2.914  1.00  0.00     0.140 C 
BRANCH  33  34
HETATM   34  C   UNL     1      42.977 -17.053   4.213  1.00  0.00    -0.004 C 
HETATM   35  C   UNL     1      42.113 -16.627   5.400  1.00  0.00     0.011 C 
HETATM   36  C   UNL     1      43.785 -18.302   4.563  1.00  0.00     0.011 C 
ENDBRANCH  33  34
ENDBRANCH   5  33
TORSDOF 7
ENDMDL
MODEL 10
REMARK VINA RESULT:      -8.5      3.359      7.573
REMARK  7 active torsions:
REMARK  status: ('A' for Active; 'I' for Inactive)
REMARK    1  A    between atoms: C_8  and  C_9 
REMARK    2  A    between atoms: C_9  and  N_10 
REMARK    3  A    between atoms: C_14  and  C_15 
REMARK    4  A    between atoms: C_15  and  C_16 
REMARK    5  A    between atoms: C_16  and  C_17 
REMARK    6  A    between atoms: N_27  and  C_28 
REMARK    7  A    between atoms: C_28  and  C_29 
ROOT
HETATM    1  C   UNL     1      40.831 -12.979   4.168  1.00  0.00     0.123 C 
HETATM    2  N   UNL     1      42.036 -12.899   3.352  1.00  0.00    -0.324 N 
HETATM    3  C   UNL     1      43.037 -12.198   3.999  1.00  0.00     0.326 C 
HETATM    4  O   UNL     1      44.184 -12.190   3.591  1.00  0.00    -0.247 OA
HETATM    5  N   UNL     1      42.515 -11.582   5.088  1.00  0.00    -0.268 N 
HETATM    6  C   UNL     1      41.198 -11.918   5.235  1.00  0.00     0.257 C 
HETATM    7  O   UNL     1      40.429 -11.470   6.071  1.00  0.00    -0.270 OA
HETATM    8  H   UNL     1      42.390 -13.666   2.788  1.00  0.00     0.165 HD
ENDROOT
BRANCH   1   9
HETATM    9  C   UNL     1      39.545 -12.572   3.377  1.00  0.00     0.027 C 
HETATM   10  C   UNL     1      39.111 -13.557   2.276  1.00  0.00     0.035 C 
HETATM   11  C   UNL     1      39.936 -13.484   0.996  1.00  0.00     0.235 C 
HETATM   12  N   UNL     1      40.003 -12.077   0.466  1.00  0.00    -0.067 N 
HETATM   13  H   UNL     1      39.058 -11.824   0.143  1.00  0.00     0.280 HD
HETATM   14  C   UNL     1      40.418 -11.048   1.486  1.00  0.00     0.235 C 
HETATM   15  C   UNL     1      39.575 -11.162   2.748  1.00  0.00     0.035 C 
BRANCH  12  16
HETATM   16  C   UNL     1      40.897 -11.972  -0.763  1.00  0.00     0.278 C 
BRANCH  16  17
HETATM   17  C   UNL     1      40.375 -11.081  -1.820  1.00  0.00     0.034 A 
HETATM   18  C   UNL     1      39.260 -11.288  -2.682  1.00  0.00     0.062 A 
HETATM   19  C   UNL     1      38.322 -12.440  -2.733  1.00  0.00     0.073 C 
HETATM   20  N   UNL     1      39.079 -10.258  -3.515  1.00  0.00    -0.176 NA
HETATM   21  N   UNL     1      40.098  -9.417  -3.252  1.00  0.00    -0.262 N 
HETATM   22  C   UNL     1      40.257  -8.222  -4.049  1.00  0.00     0.181 C 
HETATM   23  C   UNL     1      40.867  -9.861  -2.219  1.00  0.00     0.131 A 
HETATM   24 CL   UNL     1      42.183  -8.956  -1.639  1.00  0.00    -0.062 Cl
ENDBRANCH  16  17
ENDBRANCH  12  16
ENDBRANCH   1   9
BRANCH   1  25
HETATM   25  C   UNL     1      40.798 -14.384   4.837  1.00  0.00     0.080 C 
BRANCH  25  26
HETATM   26  C   UNL     1      41.695 -15.453   4.263  1.00  0.00    -0.052 A 
HETATM   27  C   UNL     1      42.889 -15.820   4.893  1.00  0.00     0.049 A 
HETATM   28  C   UNL     1      43.688 -16.821   4.343  1.00  0.00     0.116 A 
HETATM   29  F   UNL     1      44.830 -17.154   4.958  1.00  0.00    -0.206 F 
HETATM   30  C   UNL     1      43.320 -17.477   3.176  1.00  0.00     0.042 A 
HETATM   31  C   UNL     1      42.130 -17.128   2.545  1.00  0.00     0.003 A 
HETATM   32  C   UNL     1      41.322 -16.124   3.086  1.00  0.00     0.007 A 
ENDBRANCH  25  26
ENDBRANCH   1  25
BRANCH   5  33
HETATM   33  C   UNL     1      43.268 -10.751   6.013  1.00  0.00     0.140 C 
BRANCH  33  34
HETATM   34  C   UNL     1      44.141 -11.518   7.024  1.00  0.00    -0.004 C 
HETATM   35  C   UNL     1      43.793 -13.004   7.094  1.00  0.00     0.011 C 
HETATM   36  C   UNL     1      45.637 -11.331   6.776  1.00  0.00     0.011 C 
ENDBRANCH  33  34
ENDBRANCH   5  33
TORSDOF 7
ENDMDL
