MODEL 1
REMARK VINA RESULT:      -9.2      0.000      0.000
REMARK  6 active torsions:
REMARK  status: ('A' for Active; 'I' for Inactive)
REMARK    1  A    between atoms: C_3  and  N_4 
REMARK       I    between atoms: N_4  and  C_5 
REMARK    2  A    between atoms: C_5  and  C_6 
REMARK       I    between atoms: C_6  and  N_7 
REMARK    3  A    between atoms: N_7  and  C_8 
REMARK    4  A    between atoms: C_9  and  C_10 
REMARK    5  A    between atoms: C_23  and  C_24 
REMARK       I    between atoms: C_24  and  N_25 
REMARK    6  A    between atoms: N_25  and  C_26 
ROOT
HETATM    1  N   UNL     1      43.269 -11.303   6.991  1.00  0.00    -0.318 N 
HETATM    2  C   UNL     1      43.117 -12.626   6.627  1.00  0.00     0.314 C 
HETATM    3  O   UNL     1      43.433 -13.637   7.236  1.00  0.00    -0.262 OA
HETATM    4  H   UNL     1      42.892 -10.654   6.304  1.00  0.00     0.169 HD
ENDROOT
BRANCH   2   5
HETATM    5  C   UNL     1      42.439 -12.764   5.248  1.00  0.00     0.314 C 
HETATM    6  N   UNL     1      41.429 -13.692   5.250  1.00  0.00    -0.316 N 
HETATM    7  H   UNL     1      41.232 -14.182   6.129  1.00  0.00     0.169 HD
HETATM    8  O   UNL     1      42.843 -12.065   4.325  1.00  0.00    -0.262 OA
BRANCH   6   9
HETATM    9  C   UNL     1      40.632 -14.043   4.178  1.00  0.00     0.085 A 
HETATM   10  C   UNL     1      40.783 -15.205   3.352  1.00  0.00     0.133 A 
HETATM   11  N   UNL     1      39.827 -15.233   2.402  1.00  0.00    -0.171 NA
HETATM   12  N   UNL     1      39.106 -14.122   2.623  1.00  0.00    -0.286 N 
HETATM   13  H   UNL     1      38.318 -13.932   2.012  1.00  0.00     0.188 HD
HETATM   14  C   UNL     1      39.544 -13.378   3.674  1.00  0.00     0.141 A 
BRANCH  10  15
HETATM   15  C   UNL     1      41.812 -16.249   3.480  1.00  0.00     0.089 A 
HETATM   16  N   UNL     1      42.334 -16.426   4.727  1.00  0.00    -0.259 NA
HETATM   17  C   UNL     1      43.282 -17.378   4.872  1.00  0.00     0.117 A 
HETATM   18  C   UNL     1      43.739 -18.173   3.835  1.00  0.00     0.019 A 
HETATM   19  C   UNL     1      43.196 -17.983   2.570  1.00  0.00     0.004 A 
HETATM   20  C   UNL     1      42.218 -17.007   2.386  1.00  0.00     0.034 A 
ENDBRANCH  10  15
ENDBRANCH   6   9
ENDBRANCH   2   5
BRANCH   1  21
HETATM   21  C   UNL     1      43.867 -10.775   8.152  1.00  0.00     0.042 A 
HETATM   22  C   UNL     1      45.269 -10.599   8.171  1.00  0.00    -0.035 A 
HETATM   23  C   UNL     1      46.139 -10.942   6.989  1.00  0.00     0.050 C 
HETATM   24  C   UNL     1      45.887 -10.100   9.330  1.00  0.00     0.010 A 
HETATM   25  C   UNL     1      45.135  -9.768  10.457  1.00  0.00     0.017 A 
HETATM   26  C   UNL     1      43.747  -9.922  10.435  1.00  0.00     0.034 A 
HETATM   27  C   UNL     1      43.123 -10.434   9.287  1.00  0.00     0.047 A 
BRANCH  26  28
HETATM   28  C   UNL     1      42.900  -9.595  11.618  1.00  0.00     0.252 C 
HETATM   29  N   UNL     1      41.695 -10.267  11.713  1.00  0.00    -0.352 N 
HETATM   30  H   UNL     1      41.514 -11.049  11.098  1.00  0.00     0.163 HD
HETATM   31  O   UNL     1      43.295  -8.786  12.450  1.00  0.00    -0.268 OA
BRANCH  29  32
HETATM   32  C   UNL     1      40.814 -10.079  12.821  1.00  0.00     0.084 A 
HETATM   33  C   UNL     1      39.580  -9.232  12.690  1.00  0.00     0.027 A 
HETATM   34  C   UNL     1      39.454 -10.720  12.829  1.00  0.00     0.027 A 
ENDBRANCH  29  32
ENDBRANCH  26  28
ENDBRANCH   1  21
TORSDOF 6
ENDMDL
MODEL 2
REMARK VINA RESULT:      -8.5      2.835      9.066
REMARK  6 active torsions:
REMARK  status: ('A' for Active; 'I' for Inactive)
REMARK    1  A    between atoms: C_3  and  N_4 
REMARK       I    between atoms: N_4  and  C_5 
REMARK    2  A    between atoms: C_5  and  C_6 
REMARK       I    between atoms: C_6  and  N_7 
REMARK    3  A    between atoms: N_7  and  C_8 
REMARK    4  A    between atoms: C_9  and  C_10 
REMARK    5  A    between atoms: C_23  and  C_24 
REMARK       I    between atoms: C_24  and  N_25 
REMARK    6  A    between atoms: N_25  and  C_26 
ROOT
HETATM    1  N   UNL     1      41.146 -12.474   4.551  1.00  0.00    -0.318 N 
HETATM    2  C   UNL     1      40.537 -12.157   5.748  1.00  0.00     0.314 C 
HETATM    3  O   UNL     1      39.850 -12.856   6.476  1.00  0.00    -0.262 OA
HETATM    4  H   UNL     1      41.686 -11.706   4.160  1.00  0.00     0.169 HD
ENDROOT
BRANCH   2   5
HETATM    5  C   UNL     1      40.818 -10.696   6.160  1.00  0.00     0.314 C 
HETATM    6  N   UNL     1      40.969 -10.553   7.516  1.00  0.00    -0.316 N 
HETATM    7  H   UNL     1      40.886 -11.393   8.098  1.00  0.00     0.169 HD
HETATM    8  O   UNL     1      40.878  -9.842   5.283  1.00  0.00    -0.262 OA
BRANCH   6   9
HETATM    9  C   UNL     1      41.230  -9.379   8.195  1.00  0.00     0.085 A 
HETATM   10  C   UNL     1      42.525  -8.858   8.526  1.00  0.00     0.133 A 
HETATM   11  N   UNL     1      42.406  -7.690   9.187  1.00  0.00    -0.171 NA
HETATM   12  N   UNL     1      41.080  -7.489   9.272  1.00  0.00    -0.286 N 
HETATM   13  H   UNL     1      40.751  -6.652   9.742  1.00  0.00     0.188 HD
HETATM   14  C   UNL     1      40.335  -8.467   8.691  1.00  0.00     0.141 A 
BRANCH  10  15
HETATM   15  C   UNL     1      43.826  -9.469   8.212  1.00  0.00     0.089 A 
HETATM   16  N   UNL     1      43.793 -10.762   7.779  1.00  0.00    -0.259 NA
HETATM   17  C   UNL     1      44.975 -11.347   7.485  1.00  0.00     0.117 A 
HETATM   18  C   UNL     1      46.198 -10.708   7.596  1.00  0.00     0.019 A 
HETATM   19  C   UNL     1      46.216  -9.390   8.036  1.00  0.00     0.004 A 
HETATM   20  C   UNL     1      45.014  -8.758   8.351  1.00  0.00     0.034 A 
ENDBRANCH  10  15
ENDBRANCH   6   9
ENDBRANCH   2   5
BRANCH   1  21
HETATM   21  C   UNL     1      41.098 -13.688   3.836  1.00  0.00     0.042 A 
HETATM   22  C   UNL     1      40.037 -13.897   2.927  1.00  0.00    -0.035 A 
HETATM   23  C   UNL     1      38.969 -12.862   2.686  1.00  0.00     0.050 C 
HETATM   24  C   UNL     1      39.957 -15.113   2.226  1.00  0.00     0.010 A 
HETATM   25  C   UNL     1      40.914 -16.110   2.411  1.00  0.00     0.017 A 
HETATM   26  C   UNL     1      41.976 -15.899   3.294  1.00  0.00     0.034 A 
HETATM   27  C   UNL     1      42.055 -14.695   4.009  1.00  0.00     0.047 A 
BRANCH  26  28
HETATM   28  C   UNL     1      43.016 -16.939   3.536  1.00  0.00     0.252 C 
HETATM   29  N   UNL     1      43.045 -17.995   2.643  1.00  0.00    -0.352 N 
HETATM   30  H   UNL     1      42.499 -17.942   1.794  1.00  0.00     0.163 HD
HETATM   31  O   UNL     1      43.798 -16.819   4.473  1.00  0.00    -0.268 OA
BRANCH  29  32
HETATM   32  C   UNL     1      44.023 -19.033   2.738  1.00  0.00     0.084 A 
HETATM   33  C   UNL     1      43.775 -20.251   3.583  1.00  0.00     0.027 A 
HETATM   34  C   UNL     1      43.780 -20.368   2.088  1.00  0.00     0.027 A 
ENDBRANCH  29  32
ENDBRANCH  26  28
ENDBRANCH   1  21
TORSDOF 6
ENDMDL
MODEL 3
REMARK VINA RESULT:      -8.5      4.647      8.790
REMARK  6 active torsions:
REMARK  status: ('A' for Active; 'I' for Inactive)
REMARK    1  A    between atoms: C_3  and  N_4 
REMARK       I    between atoms: N_4  and  C_5 
REMARK    2  A    between atoms: C_5  and  C_6 
REMARK       I    between atoms: C_6  and  N_7 
REMARK    3  A    between atoms: N_7  and  C_8 
REMARK    4  A    between atoms: C_9  and  C_10 
REMARK    5  A    between atoms: C_23  and  C_24 
REMARK       I    between atoms: C_24  and  N_25 
REMARK    6  A    between atoms: N_25  and  C_26 
ROOT
HETATM    1  N   UNL     1      41.649 -13.858   2.359  1.00  0.00    -0.318 N 
HETATM    2  C   UNL     1      41.374 -13.182   3.530  1.00  0.00     0.314 C 
HETATM    3  O   UNL     1      40.540 -12.315   3.746  1.00  0.00    -0.262 OA
HETATM    4  H   UNL     1      42.383 -14.554   2.462  1.00  0.00     0.169 HD
ENDROOT
BRANCH   2   5
HETATM    5  C   UNL     1      42.285 -13.648   4.685  1.00  0.00     0.314 C 
HETATM    6  N   UNL     1      41.922 -14.876   5.177  1.00  0.00    -0.316 N 
HETATM    7  H   UNL     1      41.117 -15.343   4.749  1.00  0.00     0.169 HD
HETATM    8  O   UNL     1      43.204 -12.916   5.037  1.00  0.00    -0.262 OA
BRANCH   6   9
HETATM    9  C   UNL     1      42.537 -15.564   6.204  1.00  0.00     0.085 A 
HETATM   10  C   UNL     1      43.201 -16.831   6.101  1.00  0.00     0.133 A 
HETATM   11  N   UNL     1      43.690 -17.204   7.300  1.00  0.00    -0.171 NA
HETATM   12  N   UNL     1      43.339 -16.207   8.128  1.00  0.00    -0.286 N 
HETATM   13  H   UNL     1      43.607 -16.277   9.104  1.00  0.00     0.188 HD
HETATM   14  C   UNL     1      42.652 -15.201   7.522  1.00  0.00     0.141 A 
BRANCH  10  15
HETATM   15  C   UNL     1      43.357 -17.646   4.886  1.00  0.00     0.089 A 
HETATM   16  N   UNL     1      42.862 -17.108   3.735  1.00  0.00    -0.259 NA
HETATM   17  C   UNL     1      42.991 -17.837   2.605  1.00  0.00     0.117 A 
HETATM   18  C   UNL     1      43.594 -19.082   2.557  1.00  0.00     0.019 A 
HETATM   19  C   UNL     1      44.096 -19.617   3.738  1.00  0.00     0.004 A 
HETATM   20  C   UNL     1      43.976 -18.892   4.922  1.00  0.00     0.034 A 
ENDBRANCH  10  15
ENDBRANCH   6   9
ENDBRANCH   2   5
BRANCH   1  21
HETATM   21  C   UNL     1      41.059 -13.692   1.090  1.00  0.00     0.042 A 
HETATM   22  C   UNL     1      40.228 -14.720   0.590  1.00  0.00    -0.035 A 
HETATM   23  C   UNL     1      39.942 -15.975   1.374  1.00  0.00     0.050 C 
HETATM   24  C   UNL     1      39.653 -14.585  -0.685  1.00  0.00     0.010 A 
HETATM   25  C   UNL     1      39.884 -13.448  -1.459  1.00  0.00     0.017 A 
HETATM   26  C   UNL     1      40.689 -12.421  -0.960  1.00  0.00     0.034 A 
HETATM   27  C   UNL     1      41.280 -12.554   0.306  1.00  0.00     0.047 A 
BRANCH  26  28
HETATM   28  C   UNL     1      40.979 -11.192  -1.753  1.00  0.00     0.252 C 
HETATM   29  N   UNL     1      41.463 -10.106  -1.046  1.00  0.00    -0.352 N 
HETATM   30  H   UNL     1      41.756 -10.231  -0.086  1.00  0.00     0.163 HD
HETATM   31  O   UNL     1      40.805 -11.190  -2.967  1.00  0.00    -0.268 OA
BRANCH  29  32
HETATM   32  C   UNL     1      41.823  -8.886  -1.696  1.00  0.00     0.084 A 
HETATM   33  C   UNL     1      41.882  -7.593  -0.931  1.00  0.00     0.027 A 
HETATM   34  C   UNL     1      43.149  -8.236  -1.412  1.00  0.00     0.027 A 
ENDBRANCH  29  32
ENDBRANCH  26  28
ENDBRANCH   1  21
TORSDOF 6
ENDMDL
MODEL 4
REMARK VINA RESULT:      -8.5      1.934      2.260
REMARK  6 active torsions:
REMARK  status: ('A' for Active; 'I' for Inactive)
REMARK    1  A    between atoms: C_3  and  N_4 
REMARK       I    between atoms: N_4  and  C_5 
REMARK    2  A    between atoms: C_5  and  C_6 
REMARK       I    between atoms: C_6  and  N_7 
REMARK    3  A    between atoms: N_7  and  C_8 
REMARK    4  A    between atoms: C_9  and  C_10 
REMARK    5  A    between atoms: C_23  and  C_24 
REMARK       I    between atoms: C_24  and  N_25 
REMARK    6  A    between atoms: N_25  and  C_26 
ROOT
HETATM    1  N   UNL     1      42.438 -11.388   7.102  1.00  0.00    -0.318 N 
HETATM    2  C   UNL     1      41.597 -11.030   6.068  1.00  0.00     0.314 C 
HETATM    3  O   UNL     1      41.464  -9.947   5.518  1.00  0.00    -0.262 OA
HETATM    4  H   UNL     1      42.365 -12.371   7.355  1.00  0.00     0.169 HD
ENDROOT
BRANCH   2   5
HETATM    5  C   UNL     1      40.742 -12.222   5.590  1.00  0.00     0.314 C 
HETATM    6  N   UNL     1      41.168 -12.724   4.387  1.00  0.00    -0.316 N 
HETATM    7  H   UNL     1      41.977 -12.279   3.942  1.00  0.00     0.169 HD
HETATM    8  O   UNL     1      39.809 -12.592   6.294  1.00  0.00    -0.262 OA
BRANCH   6   9
HETATM    9  C   UNL     1      40.617 -13.787   3.698  1.00  0.00     0.085 A 
HETATM   10  C   UNL     1      41.079 -15.144   3.717  1.00  0.00     0.133 A 
HETATM   11  N   UNL     1      40.301 -15.916   2.932  1.00  0.00    -0.171 NA
HETATM   12  N   UNL     1      39.387 -15.068   2.432  1.00  0.00    -0.286 N 
HETATM   13  H   UNL     1      38.686 -15.438   1.799  1.00  0.00     0.188 HD
HETATM   14  C   UNL     1      39.530 -13.785   2.861  1.00  0.00     0.141 A 
BRANCH  10  15
HETATM   15  C   UNL     1      42.227 -15.673   4.471  1.00  0.00     0.089 A 
HETATM   16  N   UNL     1      42.592 -14.968   5.580  1.00  0.00    -0.259 NA
HETATM   17  C   UNL     1      43.645 -15.431   6.289  1.00  0.00     0.117 A 
HETATM   18  C   UNL     1      44.357 -16.570   5.954  1.00  0.00     0.019 A 
HETATM   19  C   UNL     1      43.971 -17.279   4.823  1.00  0.00     0.004 A 
HETATM   20  C   UNL     1      42.892 -16.826   4.067  1.00  0.00     0.034 A 
ENDBRANCH  10  15
ENDBRANCH   6   9
ENDBRANCH   2   5
BRANCH   1  21
HETATM   21  C   UNL     1      43.340 -10.578   7.821  1.00  0.00     0.042 A 
HETATM   22  C   UNL     1      44.726 -10.766   7.622  1.00  0.00    -0.035 A 
HETATM   23  C   UNL     1      45.268 -11.791   6.659  1.00  0.00     0.050 C 
HETATM   24  C   UNL     1      45.641  -9.988   8.351  1.00  0.00     0.010 A 
HETATM   25  C   UNL     1      45.199  -9.027   9.261  1.00  0.00     0.017 A 
HETATM   26  C   UNL     1      43.829  -8.824   9.445  1.00  0.00     0.034 A 
HETATM   27  C   UNL     1      42.908  -9.608   8.733  1.00  0.00     0.047 A 
BRANCH  26  28
HETATM   28  C   UNL     1      43.306  -7.820  10.415  1.00  0.00     0.252 C 
HETATM   29  N   UNL     1      43.023  -8.287  11.687  1.00  0.00    -0.352 N 
HETATM   30  H   UNL     1      43.330  -9.212  11.954  1.00  0.00     0.163 HD
HETATM   31  O   UNL     1      43.169  -6.650  10.074  1.00  0.00    -0.268 OA
BRANCH  29  32
HETATM   32  C   UNL     1      42.561  -7.417  12.721  1.00  0.00     0.084 A 
HETATM   33  C   UNL     1      42.048  -7.969  14.022  1.00  0.00     0.027 A 
HETATM   34  C   UNL     1      43.361  -7.244  13.983  1.00  0.00     0.027 A 
ENDBRANCH  29  32
ENDBRANCH  26  28
ENDBRANCH   1  21
TORSDOF 6
ENDMDL
MODEL 5
REMARK VINA RESULT:      -8.4      4.633      8.510
REMARK  6 active torsions:
REMARK  status: ('A' for Active; 'I' for Inactive)
REMARK    1  A    between atoms: C_3  and  N_4 
REMARK       I    between atoms: N_4  and  C_5 
REMARK    2  A    between atoms: C_5  and  C_6 
REMARK       I    between atoms: C_6  and  N_7 
REMARK    3  A    between atoms: N_7  and  C_8 
REMARK    4  A    between atoms: C_9  and  C_10 
REMARK    5  A    between atoms: C_23  and  C_24 
REMARK       I    between atoms: C_24  and  N_25 
REMARK    6  A    between atoms: N_25  and  C_26 
ROOT
HETATM    1  N   UNL     1      39.624 -12.613   4.224  1.00  0.00    -0.318 N 
HETATM    2  C   UNL     1      40.952 -12.840   4.524  1.00  0.00     0.314 C 
HETATM    3  O   UNL     1      41.952 -12.329   4.044  1.00  0.00    -0.262 OA
HETATM    4  H   UNL     1      38.985 -13.160   4.797  1.00  0.00     0.169 HD
ENDROOT
BRANCH   2   5
HETATM    5  C   UNL     1      41.112 -13.896   5.638  1.00  0.00     0.314 C 
HETATM    6  N   UNL     1      42.356 -14.475   5.637  1.00  0.00    -0.316 N 
HETATM    7  H   UNL     1      43.028 -14.164   4.929  1.00  0.00     0.169 HD
HETATM    8  O   UNL     1      40.163 -14.108   6.383  1.00  0.00    -0.262 OA
BRANCH   6   9
HETATM    9  C   UNL     1      42.810 -15.448   6.506  1.00  0.00     0.085 A 
HETATM   10  C   UNL     1      43.207 -16.781   6.157  1.00  0.00     0.133 A 
HETATM   11  N   UNL     1      43.600 -17.457   7.255  1.00  0.00    -0.171 NA
HETATM   12  N   UNL     1      43.447 -16.578   8.259  1.00  0.00    -0.286 N 
HETATM   13  H   UNL     1      43.685 -16.878   9.198  1.00  0.00     0.188 HD
HETATM   14  C   UNL     1      42.982 -15.363   7.864  1.00  0.00     0.141 A 
BRANCH  10  15
HETATM   15  C   UNL     1      43.208 -17.375   4.810  1.00  0.00     0.089 A 
HETATM   16  N   UNL     1      42.355 -16.814   3.907  1.00  0.00    -0.259 NA
HETATM   17  C   UNL     1      42.335 -17.342   2.663  1.00  0.00     0.117 A 
HETATM   18  C   UNL     1      43.130 -18.404   2.266  1.00  0.00     0.019 A 
HETATM   19  C   UNL     1      43.996 -18.963   3.197  1.00  0.00     0.004 A 
HETATM   20  C   UNL     1      44.038 -18.445   4.490  1.00  0.00     0.034 A 
ENDBRANCH  10  15
ENDBRANCH   6   9
ENDBRANCH   2   5
BRANCH   1  21
HETATM   21  C   UNL     1      39.079 -11.753   3.250  1.00  0.00     0.042 A 
HETATM   22  C   UNL     1      38.657 -10.464   3.645  1.00  0.00    -0.035 A 
HETATM   23  C   UNL     1      38.785  -9.976   5.065  1.00  0.00     0.050 C 
HETATM   24  C   UNL     1      38.084  -9.602   2.693  1.00  0.00     0.010 A 
HETATM   25  C   UNL     1      37.935 -10.000   1.365  1.00  0.00     0.017 A 
HETATM   26  C   UNL     1      38.370 -11.267   0.967  1.00  0.00     0.034 A 
HETATM   27  C   UNL     1      38.928 -12.139   1.913  1.00  0.00     0.047 A 
BRANCH  26  28
HETATM   28  C   UNL     1      38.220 -11.744  -0.438  1.00  0.00     0.252 C 
HETATM   29  N   UNL     1      38.593 -13.053  -0.683  1.00  0.00    -0.352 N 
HETATM   30  H   UNL     1      38.783 -13.669   0.096  1.00  0.00     0.163 HD
HETATM   31  O   UNL     1      37.767 -10.994  -1.296  1.00  0.00    -0.268 OA
BRANCH  29  32
HETATM   32  C   UNL     1      38.455 -13.645  -1.976  1.00  0.00     0.084 A 
HETATM   33  C   UNL     1      39.656 -13.879  -2.849  1.00  0.00     0.027 A 
HETATM   34  C   UNL     1      38.944 -15.045  -2.227  1.00  0.00     0.027 A 
ENDBRANCH  29  32
ENDBRANCH  26  28
ENDBRANCH   1  21
TORSDOF 6
ENDMDL
MODEL 6
REMARK VINA RESULT:      -8.4      2.037      3.053
REMARK  6 active torsions:
REMARK  status: ('A' for Active; 'I' for Inactive)
REMARK    1  A    between atoms: C_3  and  N_4 
REMARK       I    between atoms: N_4  and  C_5 
REMARK    2  A    between atoms: C_5  and  C_6 
REMARK       I    between atoms: C_6  and  N_7 
REMARK    3  A    between atoms: N_7  and  C_8 
REMARK    4  A    between atoms: C_9  and  C_10 
REMARK    5  A    between atoms: C_23  and  C_24 
REMARK       I    between atoms: C_24  and  N_25 
REMARK    6  A    between atoms: N_25  and  C_26 
ROOT
HETATM    1  N   UNL     1      43.704 -12.191   7.512  1.00  0.00    -0.318 N 
HETATM    2  C   UNL     1      42.747 -12.369   6.534  1.00  0.00     0.314 C 
HETATM    3  O   UNL     1      42.177 -11.535   5.848  1.00  0.00    -0.262 OA
HETATM    4  H   UNL     1      44.034 -13.066   7.913  1.00  0.00     0.169 HD
ENDROOT
BRANCH   2   5
HETATM    5  C   UNL     1      42.409 -13.861   6.332  1.00  0.00     0.314 C 
HETATM    6  N   UNL     1      43.523 -14.624   6.092  1.00  0.00    -0.316 N 
HETATM    7  H   UNL     1      44.432 -14.150   6.071  1.00  0.00     0.169 HD
HETATM    8  O   UNL     1      41.236 -14.210   6.403  1.00  0.00    -0.262 OA
BRANCH   6   9
HETATM    9  C   UNL     1      43.555 -15.988   5.874  1.00  0.00     0.085 A 
HETATM   10  C   UNL     1      43.109 -16.671   4.694  1.00  0.00     0.133 A 
HETATM   11  N   UNL     1      43.293 -18.000   4.824  1.00  0.00    -0.171 NA
HETATM   12  N   UNL     1      43.829 -18.145   6.047  1.00  0.00    -0.286 N 
HETATM   13  H   UNL     1      44.053 -19.082   6.364  1.00  0.00     0.188 HD
HETATM   14  C   UNL     1      44.010 -16.972   6.713  1.00  0.00     0.141 A 
BRANCH  10  15
HETATM   15  C   UNL     1      42.532 -16.058   3.488  1.00  0.00     0.089 A 
HETATM   16  N   UNL     1      43.244 -15.036   2.934  1.00  0.00    -0.259 NA
HETATM   17  C   UNL     1      42.735 -14.454   1.826  1.00  0.00     0.117 A 
HETATM   18  C   UNL     1      41.546 -14.841   1.232  1.00  0.00     0.019 A 
HETATM   19  C   UNL     1      40.831 -15.886   1.806  1.00  0.00     0.004 A 
HETATM   20  C   UNL     1      41.328 -16.505   2.952  1.00  0.00     0.034 A 
ENDBRANCH  10  15
ENDBRANCH   6   9
ENDBRANCH   2   5
BRANCH   1  21
HETATM   21  C   UNL     1      44.245 -10.986   8.001  1.00  0.00     0.042 A 
HETATM   22  C   UNL     1      45.484 -10.541   7.488  1.00  0.00    -0.035 A 
HETATM   23  C   UNL     1      46.235 -11.304   6.426  1.00  0.00     0.050 C 
HETATM   24  C   UNL     1      46.054  -9.356   7.984  1.00  0.00     0.010 A 
HETATM   25  C   UNL     1      45.408  -8.610   8.969  1.00  0.00     0.017 A 
HETATM   26  C   UNL     1      44.173  -9.035   9.465  1.00  0.00     0.034 A 
HETATM   27  C   UNL     1      43.605 -10.225   8.987  1.00  0.00     0.047 A 
BRANCH  26  28
HETATM   28  C   UNL     1      43.450  -8.280  10.529  1.00  0.00     0.252 C 
HETATM   29  N   UNL     1      43.420  -8.865  11.782  1.00  0.00    -0.352 N 
HETATM   30  H   UNL     1      44.009  -9.665  11.970  1.00  0.00     0.163 HD
HETATM   31  O   UNL     1      42.943  -7.194  10.273  1.00  0.00    -0.268 OA
BRANCH  29  32
HETATM   32  C   UNL     1      42.800  -8.222  12.897  1.00  0.00     0.084 A 
HETATM   33  C   UNL     1      41.318  -8.328  13.122  1.00  0.00     0.027 A 
HETATM   34  C   UNL     1      42.266  -9.037  14.043  1.00  0.00     0.027 A 
ENDBRANCH  29  32
ENDBRANCH  26  28
ENDBRANCH   1  21
TORSDOF 6
ENDMDL
MODEL 7
REMARK VINA RESULT:      -8.3      2.614      9.510
REMARK  6 active torsions:
REMARK  status: ('A' for Active; 'I' for Inactive)
REMARK    1  A    between atoms: C_3  and  N_4 
REMARK       I    between atoms: N_4  and  C_5 
REMARK    2  A    between atoms: C_5  and  C_6 
REMARK       I    between atoms: C_6  and  N_7 
REMARK    3  A    between atoms: N_7  and  C_8 
REMARK    4  A    between atoms: C_9  and  C_10 
REMARK    5  A    between atoms: C_23  and  C_24 
REMARK       I    between atoms: C_24  and  N_25 
REMARK    6  A    between atoms: N_25  and  C_26 
ROOT
HETATM    1  N   UNL     1      43.133 -13.164   6.969  1.00  0.00    -0.318 N 
HETATM    2  C   UNL     1      43.887 -12.053   6.652  1.00  0.00     0.314 C 
HETATM    3  O   UNL     1      44.240 -11.643   5.556  1.00  0.00    -0.262 OA
HETATM    4  H   UNL     1      42.962 -13.260   7.967  1.00  0.00     0.169 HD
ENDROOT
BRANCH   2   5
HETATM    5  C   UNL     1      44.298 -11.264   7.913  1.00  0.00     0.314 C 
HETATM    6  N   UNL     1      43.217 -10.773   8.600  1.00  0.00    -0.316 N 
HETATM    7  H   UNL     1      42.283 -10.969   8.226  1.00  0.00     0.169 HD
HETATM    8  O   UNL     1      45.491 -11.155   8.172  1.00  0.00    -0.262 OA
BRANCH   6   9
HETATM    9  C   UNL     1      43.251 -10.031   9.765  1.00  0.00     0.085 A 
HETATM   10  C   UNL     1      42.680  -8.730   9.961  1.00  0.00     0.133 A 
HETATM   11  N   UNL     1      42.898  -8.307  11.223  1.00  0.00    -0.171 NA
HETATM   12  N   UNL     1      43.588  -9.308  11.795  1.00  0.00    -0.286 N 
HETATM   13  H   UNL     1      43.868  -9.204  12.764  1.00  0.00     0.188 HD
HETATM   14  C   UNL     1      43.821 -10.362  10.967  1.00  0.00     0.141 A 
BRANCH  10  15
HETATM   15  C   UNL     1      41.950  -7.930   8.965  1.00  0.00     0.089 A 
HETATM   16  N   UNL     1      42.601  -7.693   7.791  1.00  0.00    -0.259 NA
HETATM   17  C   UNL     1      41.953  -6.959   6.861  1.00  0.00     0.117 A 
HETATM   18  C   UNL     1      40.678  -6.448   7.035  1.00  0.00     0.019 A 
HETATM   19  C   UNL     1      40.026  -6.700   8.236  1.00  0.00     0.004 A 
HETATM   20  C   UNL     1      40.668  -7.450   9.219  1.00  0.00     0.034 A 
ENDBRANCH  10  15
ENDBRANCH   6   9
ENDBRANCH   2   5
BRANCH   1  21
HETATM   21  C   UNL     1      42.605 -14.143   6.104  1.00  0.00     0.042 A 
HETATM   22  C   UNL     1      41.269 -14.007   5.663  1.00  0.00    -0.035 A 
HETATM   23  C   UNL     1      40.400 -12.847   6.075  1.00  0.00     0.050 C 
HETATM   24  C   UNL     1      40.716 -14.988   4.822  1.00  0.00     0.010 A 
HETATM   25  C   UNL     1      41.469 -16.087   4.411  1.00  0.00     0.017 A 
HETATM   26  C   UNL     1      42.797 -16.214   4.828  1.00  0.00     0.034 A 
HETATM   27  C   UNL     1      43.353 -15.248   5.680  1.00  0.00     0.047 A 
BRANCH  26  28
HETATM   28  C   UNL     1      43.639 -17.377   4.428  1.00  0.00     0.252 C 
HETATM   29  N   UNL     1      43.228 -18.073   3.305  1.00  0.00    -0.352 N 
HETATM   30  H   UNL     1      42.502 -17.684   2.719  1.00  0.00     0.163 HD
HETATM   31  O   UNL     1      44.645 -17.657   5.070  1.00  0.00    -0.268 OA
BRANCH  29  32
HETATM   32  C   UNL     1      43.973 -19.179   2.791  1.00  0.00     0.084 A 
HETATM   33  C   UNL     1      43.752 -20.569   3.316  1.00  0.00     0.027 A 
HETATM   34  C   UNL     1      43.301 -20.213   1.930  1.00  0.00     0.027 A 
ENDBRANCH  29  32
ENDBRANCH  26  28
ENDBRANCH   1  21
TORSDOF 6
ENDMDL
MODEL 8
REMARK VINA RESULT:      -8.3      2.852      8.761
REMARK  6 active torsions:
REMARK  status: ('A' for Active; 'I' for Inactive)
REMARK    1  A    between atoms: C_3  and  N_4 
REMARK       I    between atoms: N_4  and  C_5 
REMARK    2  A    between atoms: C_5  and  C_6 
REMARK       I    between atoms: C_6  and  N_7 
REMARK    3  A    between atoms: N_7  and  C_8 
REMARK    4  A    between atoms: C_9  and  C_10 
REMARK    5  A    between atoms: C_23  and  C_24 
REMARK       I    between atoms: C_24  and  N_25 
REMARK    6  A    between atoms: N_25  and  C_26 
ROOT
HETATM    1  N   UNL     1      42.088 -12.592   4.124  1.00  0.00    -0.318 N 
HETATM    2  C   UNL     1      42.886 -11.485   4.333  1.00  0.00     0.314 C 
HETATM    3  O   UNL     1      44.058 -11.308   4.035  1.00  0.00    -0.262 OA
HETATM    4  H   UNL     1      41.133 -12.465   4.450  1.00  0.00     0.169 HD
ENDROOT
BRANCH   2   5
HETATM    5  C   UNL     1      42.114 -10.352   5.039  1.00  0.00     0.314 C 
HETATM    6  N   UNL     1      41.743 -10.687   6.317  1.00  0.00    -0.316 N 
HETATM    7  H   UNL     1      42.003 -11.616   6.662  1.00  0.00     0.169 HD
HETATM    8  O   UNL     1      41.915  -9.309   4.426  1.00  0.00    -0.262 OA
BRANCH   6   9
HETATM    9  C   UNL     1      41.046  -9.892   7.205  1.00  0.00     0.085 A 
HETATM   10  C   UNL     1      41.573  -9.273   8.387  1.00  0.00     0.133 A 
HETATM   11  N   UNL     1      40.613  -8.565   9.015  1.00  0.00    -0.171 NA
HETATM   12  N   UNL     1      39.519  -8.740   8.255  1.00  0.00    -0.286 N 
HETATM   13  H   UNL     1      38.658  -8.290   8.545  1.00  0.00     0.188 HD
HETATM   14  C   UNL     1      39.726  -9.522   7.161  1.00  0.00     0.141 A 
BRANCH  10  15
HETATM   15  C   UNL     1      42.955  -9.362   8.885  1.00  0.00     0.089 A 
HETATM   16  N   UNL     1      43.928  -8.923   8.037  1.00  0.00    -0.259 NA
HETATM   17  C   UNL     1      45.206  -8.997   8.469  1.00  0.00     0.117 A 
HETATM   18  C   UNL     1      45.570  -9.482   9.713  1.00  0.00     0.019 A 
HETATM   19  C   UNL     1      44.567  -9.923  10.568  1.00  0.00     0.004 A 
HETATM   20  C   UNL     1      43.239  -9.865  10.151  1.00  0.00     0.034 A 
ENDBRANCH  10  15
ENDBRANCH   6   9
ENDBRANCH   2   5
BRANCH   1  21
HETATM   21  C   UNL     1      42.436 -13.828   3.543  1.00  0.00     0.042 A 
HETATM   22  C   UNL     1      42.165 -14.032   2.172  1.00  0.00    -0.035 A 
HETATM   23  C   UNL     1      41.533 -12.970   1.310  1.00  0.00     0.050 C 
HETATM   24  C   UNL     1      42.480 -15.269   1.581  1.00  0.00     0.010 A 
HETATM   25  C   UNL     1      43.062 -16.292   2.329  1.00  0.00     0.017 A 
HETATM   26  C   UNL     1      43.350 -16.086   3.681  1.00  0.00     0.034 A 
HETATM   27  C   UNL     1      43.026 -14.861   4.282  1.00  0.00     0.047 A 
BRANCH  26  28
HETATM   28  C   UNL     1      43.959 -17.153   4.526  1.00  0.00     0.252 C 
HETATM   29  N   UNL     1      43.831 -18.450   4.061  1.00  0.00    -0.352 N 
HETATM   30  H   UNL     1      43.495 -18.609   3.121  1.00  0.00     0.163 HD
HETATM   31  O   UNL     1      44.551 -16.856   5.557  1.00  0.00    -0.268 OA
BRANCH  29  32
HETATM   32  C   UNL     1      44.409 -19.558   4.754  1.00  0.00     0.084 A 
HETATM   33  C   UNL     1      43.639 -20.291   5.815  1.00  0.00     0.027 A 
HETATM   34  C   UNL     1      43.916 -20.955   4.499  1.00  0.00     0.027 A 
ENDBRANCH  29  32
ENDBRANCH  26  28
ENDBRANCH   1  21
TORSDOF 6
ENDMDL
MODEL 9
REMARK VINA RESULT:      -8.1      2.777      9.772
REMARK  6 active torsions:
REMARK  status: ('A' for Active; 'I' for Inactive)
REMARK    1  A    between atoms: C_3  and  N_4 
REMARK       I    between atoms: N_4  and  C_5 
REMARK    2  A    between atoms: C_5  and  C_6 
REMARK       I    between atoms: C_6  and  N_7 
REMARK    3  A    between atoms: N_7  and  C_8 
REMARK    4  A    between atoms: C_9  and  C_10 
REMARK    5  A    between atoms: C_23  and  C_24 
REMARK       I    between atoms: C_24  and  N_25 
REMARK    6  A    between atoms: N_25  and  C_26 
ROOT
HETATM    1  N   UNL     1      42.349 -14.013   4.809  1.00  0.00    -0.318 N 
HETATM    2  C   UNL     1      42.047 -13.081   5.781  1.00  0.00     0.314 C 
HETATM    3  O   UNL     1      40.982 -12.535   6.025  1.00  0.00    -0.262 OA
HETATM    4  H   UNL     1      43.316 -14.326   4.842  1.00  0.00     0.169 HD
ENDROOT
BRANCH   2   5
HETATM    5  C   UNL     1      43.278 -12.739   6.645  1.00  0.00     0.314 C 
HETATM    6  N   UNL     1      43.769 -11.485   6.387  1.00  0.00    -0.316 N 
HETATM    7  H   UNL     1      43.291 -10.921   5.676  1.00  0.00     0.169 HD
HETATM    8  O   UNL     1      43.683 -13.577   7.444  1.00  0.00    -0.262 OA
BRANCH   6   9
HETATM    9  C   UNL     1      44.856 -10.886   6.993  1.00  0.00     0.085 A 
HETATM   10  C   UNL     1      44.845 -10.150   8.224  1.00  0.00     0.133 A 
HETATM   11  N   UNL     1      46.084  -9.710   8.520  1.00  0.00    -0.171 NA
HETATM   12  N   UNL     1      46.845 -10.151   7.504  1.00  0.00    -0.286 N 
HETATM   13  H   UNL     1      47.835  -9.930   7.516  1.00  0.00     0.188 HD
HETATM   14  C   UNL     1      46.160 -10.862   6.568  1.00  0.00     0.141 A 
BRANCH  10  15
HETATM   15  C   UNL     1      43.678  -9.887   9.081  1.00  0.00     0.089 A 
HETATM   16  N   UNL     1      42.563  -9.419   8.450  1.00  0.00    -0.259 NA
HETATM   17  C   UNL     1      41.478  -9.167   9.214  1.00  0.00     0.117 A 
HETATM   18  C   UNL     1      41.441  -9.362  10.584  1.00  0.00     0.019 A 
HETATM   19  C   UNL     1      42.583  -9.841  11.213  1.00  0.00     0.004 A 
HETATM   20  C   UNL     1      43.721 -10.107  10.454  1.00  0.00     0.034 A 
ENDBRANCH  10  15
ENDBRANCH   6   9
ENDBRANCH   2   5
BRANCH   1  21
HETATM   21  C   UNL     1      41.507 -14.549   3.814  1.00  0.00     0.042 A 
HETATM   22  C   UNL     1      40.807 -15.745   4.091  1.00  0.00    -0.035 A 
HETATM   23  C   UNL     1      40.920 -16.454   5.416  1.00  0.00     0.050 C 
HETATM   24  C   UNL     1      39.985 -16.309   3.101  1.00  0.00     0.010 A 
HETATM   25  C   UNL     1      39.844 -15.701   1.854  1.00  0.00     0.017 A 
HETATM   26  C   UNL     1      40.519 -14.507   1.584  1.00  0.00     0.034 A 
HETATM   27  C   UNL     1      41.354 -13.945   2.560  1.00  0.00     0.047 A 
BRANCH  26  28
HETATM   28  C   UNL     1      40.412 -13.826   0.262  1.00  0.00     0.252 C 
HETATM   29  N   UNL     1      39.513 -14.371  -0.637  1.00  0.00    -0.352 N 
HETATM   30  H   UNL     1      38.861 -15.077  -0.320  1.00  0.00     0.163 HD
HETATM   31  O   UNL     1      41.085 -12.828   0.030  1.00  0.00    -0.268 OA
BRANCH  29  32
HETATM   32  C   UNL     1      39.283 -13.786  -1.920  1.00  0.00     0.084 A 
HETATM   33  C   UNL     1      38.627 -14.571  -3.020  1.00  0.00     0.027 A 
HETATM   34  C   UNL     1      37.887 -13.445  -2.361  1.00  0.00     0.027 A 
ENDBRANCH  29  32
ENDBRANCH  26  28
ENDBRANCH   1  21
TORSDOF 6
ENDMDL
MODEL 10
REMARK VINA RESULT:      -8.1      4.732      8.222
REMARK  6 active torsions:
REMARK  status: ('A' for Active; 'I' for Inactive)
REMARK    1  A    between atoms: C_3  and  N_4 
REMARK       I    between atoms: N_4  and  C_5 
REMARK    2  A    between atoms: C_5  and  C_6 
REMARK       I    between atoms: C_6  and  N_7 
REMARK    3  A    between atoms: N_7  and  C_8 
REMARK    4  A    between atoms: C_9  and  C_10 
REMARK    5  A    between atoms: C_23  and  C_24 
REMARK       I    between atoms: C_24  and  N_25 
REMARK    6  A    between atoms: N_25  and  C_26 
ROOT
HETATM    1  N   UNL     1      41.691 -13.391   3.432  1.00  0.00    -0.318 N 
HETATM    2  C   UNL     1      40.486 -13.618   2.799  1.00  0.00     0.314 C 
HETATM    3  O   UNL     1      39.739 -14.581   2.880  1.00  0.00    -0.262 OA
HETATM    4  H   UNL     1      42.098 -12.487   3.204  1.00  0.00     0.169 HD
ENDROOT
BRANCH   2   5
HETATM    5  C   UNL     1      40.093 -12.441   1.882  1.00  0.00     0.314 C 
HETATM    6  N   UNL     1      38.754 -12.433   1.582  1.00  0.00    -0.316 N 
HETATM    7  H   UNL     1      38.171 -13.177   1.979  1.00  0.00     0.169 HD
HETATM    8  O   UNL     1      40.968 -11.660   1.525  1.00  0.00    -0.262 OA
BRANCH   6   9
HETATM    9  C   UNL     1      38.094 -11.514   0.791  1.00  0.00     0.085 A 
HETATM   10  C   UNL     1      37.779 -11.659  -0.600  1.00  0.00     0.133 A 
HETATM   11  N   UNL     1      37.126 -10.570  -1.051  1.00  0.00    -0.171 NA
HETATM   12  N   UNL     1      37.041  -9.766   0.022  1.00  0.00    -0.286 N 
HETATM   13  H   UNL     1      36.580  -8.868  -0.087  1.00  0.00     0.188 HD
HETATM   14  C   UNL     1      37.601 -10.285   1.148  1.00  0.00     0.141 A 
BRANCH  10  15
HETATM   15  C   UNL     1      38.096 -12.812  -1.458  1.00  0.00     0.089 A 
HETATM   16  N   UNL     1      39.147 -13.585  -1.060  1.00  0.00    -0.259 NA
HETATM   17  C   UNL     1      39.461 -14.649  -1.832  1.00  0.00     0.117 A 
HETATM   18  C   UNL     1      38.776 -14.991  -2.985  1.00  0.00     0.019 A 
HETATM   19  C   UNL     1      37.706 -14.195  -3.377  1.00  0.00     0.004 A 
HETATM   20  C   UNL     1      37.359 -13.088  -2.605  1.00  0.00     0.034 A 
ENDBRANCH  10  15
ENDBRANCH   6   9
ENDBRANCH   2   5
BRANCH   1  21
HETATM   21  C   UNL     1      42.393 -14.236   4.314  1.00  0.00     0.042 A 
HETATM   22  C   UNL     1      42.644 -13.786   5.629  1.00  0.00    -0.035 A 
HETATM   23  C   UNL     1      42.174 -12.441   6.122  1.00  0.00     0.050 C 
HETATM   24  C   UNL     1      43.368 -14.604   6.514  1.00  0.00     0.010 A 
HETATM   25  C   UNL     1      43.832 -15.856   6.113  1.00  0.00     0.017 A 
HETATM   26  C   UNL     1      43.568 -16.314   4.820  1.00  0.00     0.034 A 
HETATM   27  C   UNL     1      42.860 -15.498   3.925  1.00  0.00     0.047 A 
BRANCH  26  28
HETATM   28  C   UNL     1      44.055 -17.639   4.340  1.00  0.00     0.252 C 
HETATM   29  N   UNL     1      43.544 -18.078   3.132  1.00  0.00    -0.352 N 
HETATM   30  H   UNL     1      43.015 -17.437   2.555  1.00  0.00     0.163 HD
HETATM   31  O   UNL     1      44.880 -18.265   4.997  1.00  0.00    -0.268 OA
BRANCH  29  32
HETATM   32  C   UNL     1      43.965 -19.308   2.540  1.00  0.00     0.084 A 
HETATM   33  C   UNL     1      43.561 -20.628   3.135  1.00  0.00     0.027 A 
HETATM   34  C   UNL     1      42.974 -20.187   1.827  1.00  0.00     0.027 A 
ENDBRANCH  29  32
ENDBRANCH  26  28
ENDBRANCH   1  21
TORSDOF 6
ENDMDL
