MODEL 1
REMARK VINA RESULT:     -10.1      0.000      0.000
REMARK  5 active torsions:
REMARK  status: ('A' for Active; 'I' for Inactive)
REMARK    1  A    between atoms: C_2  and  C_3 
REMARK       I    between atoms: C_3  and  N_4 
REMARK    2  A    between atoms: N_4  and  N_5 
REMARK    3  A    between atoms: N_5  and  C_6 
REMARK    4  A    between atoms: N_7  and  C_8 
REMARK    5  A    between atoms: C_8  and  C_9 
ROOT
HETATM    1  C   UNL     1      43.409 -13.643   6.408  1.00  0.00     0.200 A 
HETATM    2  N   UNL     1      43.022 -13.018   5.239  1.00  0.00    -0.283 N 
HETATM    3  C   UNL     1      42.820 -13.744   4.078  1.00  0.00     0.259 A 
HETATM    4  O   UNL     1      42.491 -13.206   3.022  1.00  0.00    -0.267 OA
HETATM    5  C   UNL     1      43.004 -15.219   4.152  1.00  0.00     0.049 A 
HETATM    6  C   UNL     1      43.315 -15.702   5.371  1.00  0.00     0.083 A 
HETATM    7  C   UNL     1      43.437 -17.173   5.557  1.00  0.00    -0.000 A 
HETATM    8  C   UNL     1      43.629 -18.007   4.445  1.00  0.00    -0.044 A 
HETATM    9  C   UNL     1      43.781 -19.390   4.614  1.00  0.00     0.008 A 
HETATM   10  C   UNL     1      43.716 -19.953   5.888  1.00  0.00     0.001 A 
HETATM   11  C   UNL     1      43.509 -19.138   6.996  1.00  0.00     0.001 A 
HETATM   12  C   UNL     1      43.374 -17.758   6.832  1.00  0.00     0.014 A 
HETATM   13  C   UNL     1      43.730 -17.381   3.082  1.00  0.00     0.054 C 
HETATM   14  C   UNL     1      42.814 -16.135   2.930  1.00  0.00    -0.002 C 
HETATM   15  C   UNL     1      41.332 -16.563   2.799  1.00  0.00     0.015 C 
HETATM   16  C   UNL     1      40.694 -15.502   1.918  1.00  0.00     0.001 C 
HETATM   17  C   UNL     1      41.768 -15.169   0.893  1.00  0.00     0.001 C 
HETATM   18  C   UNL     1      43.115 -15.515   1.538  1.00  0.00     0.015 C 
HETATM   19  N   UNL     1      43.534 -14.937   6.480  1.00  0.00    -0.218 NA
ENDROOT
BRANCH   1  20
HETATM   20  N   UNL     1      43.686 -12.898   7.547  1.00  0.00    -0.188 NA
HETATM   21  H   UNL     1      42.905 -12.364   7.928  1.00  0.00     0.150 HD
BRANCH  20  22
HETATM   22  N   UNL     1      44.829 -12.059   7.400  1.00  0.00    -0.189 NA
HETATM   23  C   UNL     1      44.886 -11.008   8.298  1.00  0.00     0.210 C 
HETATM   24  O   UNL     1      44.223 -10.985   9.334  1.00  0.00    -0.279 OA
HETATM   25  H   UNL     1      45.016 -11.855   6.415  1.00  0.00     0.150 HD
BRANCH  23  26
HETATM   26  C   UNL     1      45.815  -9.890   7.880  1.00  0.00     0.093 C 
HETATM   27  C   UNL     1      45.400  -8.584   8.533  1.00  0.00     0.014 C 
ENDBRANCH  23  26
ENDBRANCH  20  22
ENDBRANCH   1  20
BRANCH   2  28
HETATM   28  C   UNL     1      42.728 -11.584   5.183  1.00  0.00     0.173 C 
BRANCH  28  29
HETATM   29  C   UNL     1      41.417 -11.238   5.860  1.00  0.00    -0.040 A 
HETATM   30  C   UNL     1      40.238 -11.927   5.539  1.00  0.00     0.009 A 
HETATM   31  C   UNL     1      39.031 -11.597   6.160  1.00  0.00     0.001 A 
HETATM   32  C   UNL     1      38.988 -10.577   7.109  1.00  0.00     0.000 A 
HETATM   33  C   UNL     1      40.153  -9.888   7.440  1.00  0.00     0.001 A 
HETATM   34  C   UNL     1      41.360 -10.218   6.822  1.00  0.00     0.009 A 
ENDBRANCH  28  29
ENDBRANCH   2  28
TORSDOF 5
ENDMDL
MODEL 2
REMARK VINA RESULT:      -9.4      4.695      7.995
REMARK  5 active torsions:
REMARK  status: ('A' for Active; 'I' for Inactive)
REMARK    1  A    between atoms: C_2  and  C_3 
REMARK       I    between atoms: C_3  and  N_4 
REMARK    2  A    between atoms: N_4  and  N_5 
REMARK    3  A    between atoms: N_5  and  C_6 
REMARK    4  A    between atoms: N_7  and  C_8 
REMARK    5  A    between atoms: C_8  and  C_9 
ROOT
HETATM    1  C   UNL     1      41.528 -10.919   1.787  1.00  0.00     0.200 A 
HETATM    2  N   UNL     1      40.793 -12.060   1.530  1.00  0.00    -0.283 N 
HETATM    3  C   UNL     1      40.292 -12.313   0.265  1.00  0.00     0.259 A 
HETATM    4  O   UNL     1      39.623 -13.315   0.017  1.00  0.00    -0.267 OA
HETATM    5  C   UNL     1      40.605 -11.327  -0.806  1.00  0.00     0.049 A 
HETATM    6  C   UNL     1      41.388 -10.297  -0.431  1.00  0.00     0.083 A 
HETATM    7  C   UNL     1      41.820  -9.308  -1.454  1.00  0.00    -0.000 A 
HETATM    8  C   UNL     1      41.122  -9.203  -2.668  1.00  0.00    -0.044 A 
HETATM    9  C   UNL     1      41.500  -8.248  -3.622  1.00  0.00     0.008 A 
HETATM   10  C   UNL     1      42.590  -7.412  -3.385  1.00  0.00     0.001 A 
HETATM   11  C   UNL     1      43.299  -7.518  -2.194  1.00  0.00     0.001 A 
HETATM   12  C   UNL     1      42.915  -8.456  -1.234  1.00  0.00     0.014 A 
HETATM   13  C   UNL     1      39.930 -10.089  -2.893  1.00  0.00     0.054 C 
HETATM   14  C   UNL     1      40.102 -11.494  -2.251  1.00  0.00    -0.002 C 
HETATM   15  C   UNL     1      41.095 -12.350  -3.075  1.00  0.00     0.015 C 
HETATM   16  C   UNL     1      40.616 -13.782  -2.900  1.00  0.00     0.001 C 
HETATM   17  C   UNL     1      39.099 -13.673  -2.899  1.00  0.00     0.001 C 
HETATM   18  C   UNL     1      38.760 -12.250  -2.441  1.00  0.00     0.015 C 
HETATM   19  N   UNL     1      41.831 -10.076   0.841  1.00  0.00    -0.218 NA
ENDROOT
BRANCH   1  20
HETATM   20  N   UNL     1      41.959 -10.633   3.075  1.00  0.00    -0.188 NA
HETATM   21  H   UNL     1      41.740  -9.697   3.418  1.00  0.00     0.150 HD
BRANCH  20  22
HETATM   22  N   UNL     1      43.341 -10.919   3.277  1.00  0.00    -0.189 NA
HETATM   23  C   UNL     1      43.622 -11.582   4.458  1.00  0.00     0.210 C 
HETATM   24  O   UNL     1      42.760 -12.174   5.107  1.00  0.00    -0.279 OA
HETATM   25  H   UNL     1      43.926 -10.117   3.029  1.00  0.00     0.150 HD
BRANCH  23  26
HETATM   26  C   UNL     1      45.069 -11.491   4.887  1.00  0.00     0.093 C 
HETATM   27  C   UNL     1      45.177 -11.516   6.400  1.00  0.00     0.014 C 
ENDBRANCH  23  26
ENDBRANCH  20  22
ENDBRANCH   1  20
BRANCH   2  28
HETATM   28  C   UNL     1      40.576 -13.091   2.547  1.00  0.00     0.173 C 
BRANCH  28  29
HETATM   29  C   UNL     1      41.435 -14.319   2.315  1.00  0.00    -0.040 A 
HETATM   30  C   UNL     1      40.910 -15.608   2.490  1.00  0.00     0.009 A 
HETATM   31  C   UNL     1      41.710 -16.734   2.284  1.00  0.00     0.001 A 
HETATM   32  C   UNL     1      43.041 -16.586   1.900  1.00  0.00     0.000 A 
HETATM   33  C   UNL     1      43.574 -15.312   1.719  1.00  0.00     0.001 A 
HETATM   34  C   UNL     1      42.775 -14.185   1.922  1.00  0.00     0.009 A 
ENDBRANCH  28  29
ENDBRANCH   2  28
TORSDOF 5
ENDMDL
MODEL 3
REMARK VINA RESULT:      -9.1      4.069      7.062
REMARK  5 active torsions:
REMARK  status: ('A' for Active; 'I' for Inactive)
REMARK    1  A    between atoms: C_2  and  C_3 
REMARK       I    between atoms: C_3  and  N_4 
REMARK    2  A    between atoms: N_4  and  N_5 
REMARK    3  A    between atoms: N_5  and  C_6 
REMARK    4  A    between atoms: N_7  and  C_8 
REMARK    5  A    between atoms: C_8  and  C_9 
ROOT
HETATM    1  C   UNL     1      41.323 -13.068   0.575  1.00  0.00     0.200 A 
HETATM    2  N   UNL     1      41.108 -11.945   1.349  1.00  0.00    -0.283 N 
HETATM    3  C   UNL     1      41.277 -11.984   2.722  1.00  0.00     0.259 A 
HETATM    4  O   UNL     1      41.076 -11.000   3.432  1.00  0.00    -0.267 OA
HETATM    5  C   UNL     1      41.729 -13.271   3.320  1.00  0.00     0.049 A 
HETATM    6  C   UNL     1      41.966 -14.264   2.441  1.00  0.00     0.083 A 
HETATM    7  C   UNL     1      42.500 -15.559   2.941  1.00  0.00    -0.000 A 
HETATM    8  C   UNL     1      42.379 -15.890   4.299  1.00  0.00    -0.044 A 
HETATM    9  C   UNL     1      42.847 -17.125   4.772  1.00  0.00     0.008 A 
HETATM   10  C   UNL     1      43.461 -18.023   3.901  1.00  0.00     0.001 A 
HETATM   11  C   UNL     1      43.601 -17.699   2.555  1.00  0.00     0.001 A 
HETATM   12  C   UNL     1      43.121 -16.477   2.078  1.00  0.00     0.014 A 
HETATM   13  C   UNL     1      41.685 -14.925   5.218  1.00  0.00     0.054 C 
HETATM   14  C   UNL     1      41.948 -13.443   4.834  1.00  0.00    -0.002 C 
HETATM   15  C   UNL     1      43.387 -13.027   5.223  1.00  0.00     0.015 C 
HETATM   16  C   UNL     1      43.291 -11.547   5.555  1.00  0.00     0.001 C 
HETATM   17  C   UNL     1      41.949 -11.406   6.257  1.00  0.00     0.001 C 
HETATM   18  C   UNL     1      41.074 -12.566   5.771  1.00  0.00     0.015 C 
HETATM   19  N   UNL     1      41.753 -14.182   1.095  1.00  0.00    -0.218 NA
ENDROOT
BRANCH   1  20
HETATM   20  N   UNL     1      41.075 -13.041  -0.791  1.00  0.00    -0.188 NA
HETATM   21  H   UNL     1      40.991 -12.114  -1.208  1.00  0.00     0.150 HD
BRANCH  20  22
HETATM   22  N   UNL     1      39.965 -13.852  -1.172  1.00  0.00    -0.189 NA
HETATM   23  C   UNL     1      39.803 -13.993  -2.539  1.00  0.00     0.210 C 
HETATM   24  O   UNL     1      40.701 -13.745  -3.342  1.00  0.00    -0.279 OA
HETATM   25  H   UNL     1      39.137 -13.635  -0.613  1.00  0.00     0.150 HD
BRANCH  23  26
HETATM   26  C   UNL     1      38.423 -14.454  -2.950  1.00  0.00     0.093 C 
HETATM   27  C   UNL     1      37.389 -13.393  -2.620  1.00  0.00     0.014 C 
ENDBRANCH  23  26
ENDBRANCH  20  22
ENDBRANCH   1  20
BRANCH   2  28
HETATM   28  C   UNL     1      40.774 -10.646   0.759  1.00  0.00     0.173 C 
BRANCH  28  29
HETATM   29  C   UNL     1      39.316 -10.554   0.356  1.00  0.00    -0.040 A 
HETATM   30  C   UNL     1      38.947 -10.048  -0.899  1.00  0.00     0.009 A 
HETATM   31  C   UNL     1      37.601  -9.957  -1.261  1.00  0.00     0.001 A 
HETATM   32  C   UNL     1      36.609 -10.372  -0.375  1.00  0.00     0.000 A 
HETATM   33  C   UNL     1      36.961 -10.881   0.873  1.00  0.00     0.001 A 
HETATM   34  C   UNL     1      38.306 -10.975   1.235  1.00  0.00     0.009 A 
ENDBRANCH  28  29
ENDBRANCH   2  28
TORSDOF 5
ENDMDL
MODEL 4
REMARK VINA RESULT:      -9.1      4.119      7.257
REMARK  5 active torsions:
REMARK  status: ('A' for Active; 'I' for Inactive)
REMARK    1  A    between atoms: C_2  and  C_3 
REMARK       I    between atoms: C_3  and  N_4 
REMARK    2  A    between atoms: N_4  and  N_5 
REMARK    3  A    between atoms: N_5  and  C_6 
REMARK    4  A    between atoms: N_7  and  C_8 
REMARK    5  A    between atoms: C_8  and  C_9 
ROOT
HETATM    1  C   UNL     1      40.454 -14.323   0.478  1.00  0.00     0.200 A 
HETATM    2  N   UNL     1      39.907 -13.254   1.159  1.00  0.00    -0.283 N 
HETATM    3  C   UNL     1      40.035 -13.145   2.533  1.00  0.00     0.259 A 
HETATM    4  O   UNL     1      39.543 -12.208   3.161  1.00  0.00    -0.267 OA
HETATM    5  C   UNL     1      40.810 -14.204   3.235  1.00  0.00     0.049 A 
HETATM    6  C   UNL     1      41.346 -15.151   2.440  1.00  0.00     0.083 A 
HETATM    7  C   UNL     1      42.205 -16.203   3.045  1.00  0.00    -0.000 A 
HETATM    8  C   UNL     1      42.138 -16.456   4.424  1.00  0.00    -0.044 A 
HETATM    9  C   UNL     1      42.917 -17.471   4.997  1.00  0.00     0.008 A 
HETATM   10  C   UNL     1      43.787 -18.219   4.206  1.00  0.00     0.001 A 
HETATM   11  C   UNL     1      43.875 -17.966   2.841  1.00  0.00     0.001 A 
HETATM   12  C   UNL     1      43.087 -16.968   2.264  1.00  0.00     0.014 A 
HETATM   13  C   UNL     1      41.171 -15.662   5.257  1.00  0.00     0.054 C 
HETATM   14  C   UNL     1      41.019 -14.198   4.760  1.00  0.00    -0.002 C 
HETATM   15  C   UNL     1      42.271 -13.365   5.131  1.00  0.00     0.015 C 
HETATM   16  C   UNL     1      41.752 -11.953   5.345  1.00  0.00     0.001 C 
HETATM   17  C   UNL     1      40.402 -12.146   6.019  1.00  0.00     0.001 C 
HETATM   18  C   UNL     1      39.904 -13.538   5.616  1.00  0.00     0.015 C 
HETATM   19  N   UNL     1      41.162 -15.230   1.089  1.00  0.00    -0.218 NA
ENDROOT
BRANCH   1  20
HETATM   20  N   UNL     1      40.253 -14.467  -0.888  1.00  0.00    -0.188 NA
HETATM   21  H   UNL     1      40.793 -13.837  -1.484  1.00  0.00     0.150 HD
BRANCH  20  22
HETATM   22  N   UNL     1      38.876 -14.429  -1.256  1.00  0.00    -0.189 NA
HETATM   23  C   UNL     1      38.639 -13.956  -2.534  1.00  0.00     0.210 C 
HETATM   24  O   UNL     1      39.518 -13.898  -3.394  1.00  0.00    -0.279 OA
HETATM   25  H   UNL     1      38.298 -14.062  -0.497  1.00  0.00     0.150 HD
BRANCH  23  26
HETATM   26  C   UNL     1      37.217 -13.498  -2.767  1.00  0.00     0.093 C 
HETATM   27  C   UNL     1      37.107 -11.995  -2.590  1.00  0.00     0.014 C 
ENDBRANCH  23  26
ENDBRANCH  20  22
ENDBRANCH   1  20
BRANCH   2  28
HETATM   28  C   UNL     1      39.241 -12.148   0.466  1.00  0.00     0.173 C 
BRANCH  28  29
HETATM   29  C   UNL     1      40.224 -11.113  -0.044  1.00  0.00    -0.040 A 
HETATM   30  C   UNL     1      40.705 -10.101   0.800  1.00  0.00     0.009 A 
HETATM   31  C   UNL     1      41.604  -9.145   0.321  1.00  0.00     0.001 A 
HETATM   32  C   UNL     1      42.032  -9.189  -1.005  1.00  0.00     0.000 A 
HETATM   33  C   UNL     1      41.565 -10.191  -1.852  1.00  0.00     0.001 A 
HETATM   34  C   UNL     1      40.669 -11.149  -1.374  1.00  0.00     0.009 A 
ENDBRANCH  28  29
ENDBRANCH   2  28
TORSDOF 5
ENDMDL
MODEL 5
REMARK VINA RESULT:      -8.9      2.061      2.920
REMARK  5 active torsions:
REMARK  status: ('A' for Active; 'I' for Inactive)
REMARK    1  A    between atoms: C_2  and  C_3 
REMARK       I    between atoms: C_3  and  N_4 
REMARK    2  A    between atoms: N_4  and  N_5 
REMARK    3  A    between atoms: N_5  and  C_6 
REMARK    4  A    between atoms: N_7  and  C_8 
REMARK    5  A    between atoms: C_8  and  C_9 
ROOT
HETATM    1  C   UNL     1      43.822 -11.789   7.406  1.00  0.00     0.200 A 
HETATM    2  N   UNL     1      43.191 -10.960   6.501  1.00  0.00    -0.283 N 
HETATM    3  C   UNL     1      42.639 -11.467   5.337  1.00  0.00     0.259 A 
HETATM    4  O   UNL     1      42.085 -10.744   4.509  1.00  0.00    -0.267 OA
HETATM    5  C   UNL     1      42.725 -12.938   5.121  1.00  0.00     0.049 A 
HETATM    6  C   UNL     1      43.307 -13.634   6.117  1.00  0.00     0.083 A 
HETATM    7  C   UNL     1      43.364 -15.117   6.026  1.00  0.00    -0.000 A 
HETATM    8  C   UNL     1      43.196 -15.750   4.785  1.00  0.00    -0.044 A 
HETATM    9  C   UNL     1      43.284 -17.146   4.683  1.00  0.00     0.008 A 
HETATM   10  C   UNL     1      43.512 -17.919   5.820  1.00  0.00     0.001 A 
HETATM   11  C   UNL     1      43.664 -17.304   7.058  1.00  0.00     0.001 A 
HETATM   12  C   UNL     1      43.594 -15.913   7.160  1.00  0.00     0.014 A 
HETATM   13  C   UNL     1      42.983 -14.900   3.564  1.00  0.00     0.054 C 
HETATM   14  C   UNL     1      42.154 -13.621   3.866  1.00  0.00    -0.002 C 
HETATM   15  C   UNL     1      40.662 -13.976   4.074  1.00  0.00     0.015 C 
HETATM   16  C   UNL     1      39.897 -12.760   3.580  1.00  0.00     0.001 C 
HETATM   17  C   UNL     1      40.687 -12.285   2.370  1.00  0.00     0.001 C 
HETATM   18  C   UNL     1      42.126 -12.777   2.563  1.00  0.00     0.015 C 
HETATM   19  N   UNL     1      43.865 -13.080   7.233  1.00  0.00    -0.218 NA
ENDROOT
BRANCH   1  20
HETATM   20  N   UNL     1      44.442 -11.263   8.531  1.00  0.00    -0.188 NA
HETATM   21  H   UNL     1      45.392 -11.593   8.709  1.00  0.00     0.150 HD
BRANCH  20  22
HETATM   22  N   UNL     1      43.652 -11.385   9.712  1.00  0.00    -0.189 NA
HETATM   23  C   UNL     1      43.987 -10.496  10.718  1.00  0.00     0.210 C 
HETATM   24  O   UNL     1      44.650  -9.481  10.512  1.00  0.00    -0.279 OA
HETATM   25  H   UNL     1      43.515 -12.366   9.968  1.00  0.00     0.150 HD
BRANCH  23  26
HETATM   26  C   UNL     1      43.485 -10.898  12.086  1.00  0.00     0.093 C 
HETATM   27  C   UNL     1      42.543  -9.844  12.637  1.00  0.00     0.014 C 
ENDBRANCH  23  26
ENDBRANCH  20  22
ENDBRANCH   1  20
BRANCH   2  28
HETATM   28  C   UNL     1      43.000  -9.530   6.756  1.00  0.00     0.173 C 
BRANCH  28  29
HETATM   29  C   UNL     1      41.811  -9.260   7.656  1.00  0.00    -0.040 A 
HETATM   30  C   UNL     1      41.910  -8.361   8.729  1.00  0.00     0.009 A 
HETATM   31  C   UNL     1      40.813  -8.124   9.560  1.00  0.00     0.001 A 
HETATM   32  C   UNL     1      39.605  -8.779   9.328  1.00  0.00     0.000 A 
HETATM   33  C   UNL     1      39.491  -9.671   8.264  1.00  0.00     0.001 A 
HETATM   34  C   UNL     1      40.586  -9.907   7.431  1.00  0.00     0.009 A 
ENDBRANCH  28  29
ENDBRANCH   2  28
TORSDOF 5
ENDMDL
MODEL 6
REMARK VINA RESULT:      -8.9     16.014     18.681
REMARK  5 active torsions:
REMARK  status: ('A' for Active; 'I' for Inactive)
REMARK    1  A    between atoms: C_2  and  C_3 
REMARK       I    between atoms: C_3  and  N_4 
REMARK    2  A    between atoms: N_4  and  N_5 
REMARK    3  A    between atoms: N_5  and  C_6 
REMARK    4  A    between atoms: N_7  and  C_8 
REMARK    5  A    between atoms: C_8  and  C_9 
ROOT
HETATM    1  C   UNL     1      47.765 -29.024  -1.208  1.00  0.00     0.200 A 
HETATM    2  N   UNL     1      47.311 -28.997   0.096  1.00  0.00    -0.283 N 
HETATM    3  C   UNL     1      47.974 -29.688   1.095  1.00  0.00     0.259 A 
HETATM    4  O   UNL     1      47.578 -29.690   2.260  1.00  0.00    -0.267 OA
HETATM    5  C   UNL     1      49.208 -30.429   0.713  1.00  0.00     0.049 A 
HETATM    6  C   UNL     1      49.574 -30.313  -0.579  1.00  0.00     0.083 A 
HETATM    7  C   UNL     1      50.839 -30.951  -1.032  1.00  0.00    -0.000 A 
HETATM    8  C   UNL     1      51.423 -31.971  -0.266  1.00  0.00    -0.044 A 
HETATM    9  C   UNL     1      52.595 -32.604  -0.704  1.00  0.00     0.008 A 
HETATM   10  C   UNL     1      53.206 -32.205  -1.892  1.00  0.00     0.001 A 
HETATM   11  C   UNL     1      52.645 -31.183  -2.651  1.00  0.00     0.001 A 
HETATM   12  C   UNL     1      51.468 -30.563  -2.226  1.00  0.00     0.014 A 
HETATM   13  C   UNL     1      50.734 -32.412   0.995  1.00  0.00     0.054 C 
HETATM   14  C   UNL     1      50.031 -31.238   1.731  1.00  0.00    -0.002 C 
HETATM   15  C   UNL     1      51.074 -30.330   2.428  1.00  0.00     0.015 C 
HETATM   16  C   UNL     1      50.363 -29.789   3.657  1.00  0.00     0.001 C 
HETATM   17  C   UNL     1      49.516 -30.954   4.145  1.00  0.00     0.001 C 
HETATM   18  C   UNL     1      49.256 -31.849   2.929  1.00  0.00     0.015 C 
HETATM   19  N   UNL     1      48.865 -29.643  -1.533  1.00  0.00    -0.218 NA
ENDROOT
BRANCH   1  20
HETATM   20  N   UNL     1      47.050 -28.395  -2.217  1.00  0.00    -0.188 NA
HETATM   21  H   UNL     1      46.554 -27.545  -1.945  1.00  0.00     0.150 HD
BRANCH  20  22
HETATM   22  N   UNL     1      46.168 -29.277  -2.910  1.00  0.00    -0.189 NA
HETATM   23  C   UNL     1      45.095 -28.651  -3.518  1.00  0.00     0.210 C 
HETATM   24  O   UNL     1      45.074 -27.441  -3.743  1.00  0.00    -0.279 OA
HETATM   25  H   UNL     1      45.982 -30.120  -2.362  1.00  0.00     0.150 HD
BRANCH  23  26
HETATM   26  C   UNL     1      43.951 -29.580  -3.856  1.00  0.00     0.093 C 
HETATM   27  C   UNL     1      44.175 -30.226  -5.210  1.00  0.00     0.014 C 
ENDBRANCH  23  26
ENDBRANCH  20  22
ENDBRANCH   1  20
BRANCH   2  28
HETATM   28  C   UNL     1      46.165 -28.181   0.504  1.00  0.00     0.173 C 
BRANCH  28  29
HETATM   29  C   UNL     1      44.965 -29.024   0.888  1.00  0.00    -0.040 A 
HETATM   30  C   UNL     1      44.333 -29.848  -0.055  1.00  0.00     0.009 A 
HETATM   31  C   UNL     1      43.222 -30.615   0.303  1.00  0.00     0.001 A 
HETATM   32  C   UNL     1      42.731 -30.568   1.607  1.00  0.00     0.000 A 
HETATM   33  C   UNL     1      43.351 -29.757   2.554  1.00  0.00     0.001 A 
HETATM   34  C   UNL     1      44.463 -28.992   2.198  1.00  0.00     0.009 A 
ENDBRANCH  28  29
ENDBRANCH   2  28
TORSDOF 5
ENDMDL
MODEL 7
REMARK VINA RESULT:      -8.8      1.775      6.901
REMARK  5 active torsions:
REMARK  status: ('A' for Active; 'I' for Inactive)
REMARK    1  A    between atoms: C_2  and  C_3 
REMARK       I    between atoms: C_3  and  N_4 
REMARK    2  A    between atoms: N_4  and  N_5 
REMARK    3  A    between atoms: N_5  and  C_6 
REMARK    4  A    between atoms: N_7  and  C_8 
REMARK    5  A    between atoms: C_8  and  C_9 
ROOT
HETATM    1  C   UNL     1      43.148 -14.530   6.452  1.00  0.00     0.200 A 
HETATM    2  N   UNL     1      41.906 -14.378   5.868  1.00  0.00    -0.283 N 
HETATM    3  C   UNL     1      41.308 -13.132   5.783  1.00  0.00     0.259 A 
HETATM    4  O   UNL     1      40.196 -12.976   5.280  1.00  0.00    -0.267 OA
HETATM    5  C   UNL     1      42.069 -11.969   6.316  1.00  0.00     0.049 A 
HETATM    6  C   UNL     1      43.295 -12.253   6.796  1.00  0.00     0.083 A 
HETATM    7  C   UNL     1      44.160 -11.140   7.273  1.00  0.00    -0.000 A 
HETATM    8  C   UNL     1      43.591  -9.900   7.599  1.00  0.00    -0.044 A 
HETATM    9  C   UNL     1      44.393  -8.857   8.084  1.00  0.00     0.008 A 
HETATM   10  C   UNL     1      45.769  -9.036   8.222  1.00  0.00     0.001 A 
HETATM   11  C   UNL     1      46.347 -10.256   7.886  1.00  0.00     0.001 A 
HETATM   12  C   UNL     1      45.548 -11.302   7.419  1.00  0.00     0.014 A 
HETATM   13  C   UNL     1      42.102  -9.734   7.477  1.00  0.00     0.054 C 
HETATM   14  C   UNL     1      41.510 -10.535   6.285  1.00  0.00    -0.002 C 
HETATM   15  C   UNL     1      41.858  -9.848   4.941  1.00  0.00     0.015 C 
HETATM   16  C   UNL     1      40.688 -10.166   4.025  1.00  0.00     0.001 C 
HETATM   17  C   UNL     1      39.470 -10.102   4.933  1.00  0.00     0.001 C 
HETATM   18  C   UNL     1      39.966 -10.385   6.355  1.00  0.00     0.015 C 
HETATM   19  N   UNL     1      43.827 -13.506   6.885  1.00  0.00    -0.218 NA
ENDROOT
BRANCH   1  20
HETATM   20  N   UNL     1      43.705 -15.792   6.604  1.00  0.00    -0.188 NA
HETATM   21  H   UNL     1      44.483 -15.857   7.262  1.00  0.00     0.150 HD
BRANCH  20  22
HETATM   22  N   UNL     1      44.062 -16.398   5.363  1.00  0.00    -0.189 NA
HETATM   23  C   UNL     1      43.877 -17.768   5.322  1.00  0.00     0.210 C 
HETATM   24  O   UNL     1      43.163 -18.365   6.127  1.00  0.00    -0.279 OA
HETATM   25  H   UNL     1      44.945 -16.024   5.008  1.00  0.00     0.150 HD
BRANCH  23  26
HETATM   26  C   UNL     1      44.646 -18.460   4.219  1.00  0.00     0.093 C 
HETATM   27  C   UNL     1      43.846 -18.455   2.930  1.00  0.00     0.014 C 
ENDBRANCH  23  26
ENDBRANCH  20  22
ENDBRANCH   1  20
BRANCH   2  28
HETATM   28  C   UNL     1      41.199 -15.496   5.239  1.00  0.00     0.173 C 
BRANCH  28  29
HETATM   29  C   UNL     1      41.208 -15.405   3.726  1.00  0.00    -0.040 A 
HETATM   30  C   UNL     1      42.346 -14.959   3.038  1.00  0.00     0.009 A 
HETATM   31  C   UNL     1      42.344 -14.869   1.644  1.00  0.00     0.001 A 
HETATM   32  C   UNL     1      41.207 -15.224   0.922  1.00  0.00     0.000 A 
HETATM   33  C   UNL     1      40.071 -15.674   1.592  1.00  0.00     0.001 A 
HETATM   34  C   UNL     1      40.073 -15.767   2.985  1.00  0.00     0.009 A 
ENDBRANCH  28  29
ENDBRANCH   2  28
TORSDOF 5
ENDMDL
MODEL 8
REMARK VINA RESULT:      -8.7      3.493      7.348
REMARK  5 active torsions:
REMARK  status: ('A' for Active; 'I' for Inactive)
REMARK    1  A    between atoms: C_2  and  C_3 
REMARK       I    between atoms: C_3  and  N_4 
REMARK    2  A    between atoms: N_4  and  N_5 
REMARK    3  A    between atoms: N_5  and  C_6 
REMARK    4  A    between atoms: N_7  and  C_8 
REMARK    5  A    between atoms: C_8  and  C_9 
ROOT
HETATM    1  C   UNL     1      42.425 -14.319   1.748  1.00  0.00     0.200 A 
HETATM    2  N   UNL     1      42.378 -13.273   2.647  1.00  0.00    -0.283 N 
HETATM    3  C   UNL     1      41.523 -12.202   2.449  1.00  0.00     0.259 A 
HETATM    4  O   UNL     1      41.475 -11.252   3.229  1.00  0.00    -0.267 OA
HETATM    5  C   UNL     1      40.640 -12.243   1.250  1.00  0.00     0.049 A 
HETATM    6  C   UNL     1      40.742 -13.355   0.496  1.00  0.00     0.083 A 
HETATM    7  C   UNL     1      39.840 -13.520  -0.675  1.00  0.00    -0.000 A 
HETATM    8  C   UNL     1      39.194 -12.402  -1.225  1.00  0.00    -0.044 A 
HETATM    9  C   UNL     1      38.371 -12.543  -2.351  1.00  0.00     0.008 A 
HETATM   10  C   UNL     1      38.165 -13.800  -2.918  1.00  0.00     0.001 A 
HETATM   11  C   UNL     1      38.787 -14.917  -2.371  1.00  0.00     0.001 A 
HETATM   12  C   UNL     1      39.621 -14.778  -1.260  1.00  0.00     0.014 A 
HETATM   13  C   UNL     1      39.452 -11.050  -0.623  1.00  0.00     0.054 C 
HETATM   14  C   UNL     1      39.651 -11.112   0.917  1.00  0.00    -0.002 C 
HETATM   15  C   UNL     1      38.298 -11.349   1.631  1.00  0.00     0.015 C 
HETATM   16  C   UNL     1      38.430 -10.638   2.968  1.00  0.00     0.001 C 
HETATM   17  C   UNL     1      39.224  -9.381   2.648  1.00  0.00     0.001 C 
HETATM   18  C   UNL     1      40.039  -9.684   1.385  1.00  0.00     0.015 C 
HETATM   19  N   UNL     1      41.627 -14.370   0.719  1.00  0.00    -0.218 NA
ENDROOT
BRANCH   1  20
HETATM   20  N   UNL     1      43.341 -15.349   1.912  1.00  0.00    -0.188 NA
HETATM   21  H   UNL     1      44.213 -15.254   1.391  1.00  0.00     0.150 HD
BRANCH  20  22
HETATM   22  N   UNL     1      42.775 -16.639   1.689  1.00  0.00    -0.189 NA
HETATM   23  C   UNL     1      43.146 -17.595   2.618  1.00  0.00     0.210 C 
HETATM   24  O   UNL     1      43.626 -17.303   3.713  1.00  0.00    -0.279 OA
HETATM   25  H   UNL     1      42.813 -16.895   0.700  1.00  0.00     0.150 HD
BRANCH  23  26
HETATM   26  C   UNL     1      42.930 -19.018   2.157  1.00  0.00     0.093 C 
HETATM   27  C   UNL     1      43.956 -19.942   2.786  1.00  0.00     0.014 C 
ENDBRANCH  23  26
ENDBRANCH  20  22
ENDBRANCH   1  20
BRANCH   2  28
HETATM   28  C   UNL     1      43.158 -13.276   3.887  1.00  0.00     0.173 C 
BRANCH  28  29
HETATM   29  C   UNL     1      42.552 -14.175   4.946  1.00  0.00    -0.040 A 
HETATM   30  C   UNL     1      43.221 -14.412   6.157  1.00  0.00     0.009 A 
HETATM   31  C   UNL     1      42.662 -15.250   7.125  1.00  0.00     0.001 A 
HETATM   32  C   UNL     1      41.429 -15.858   6.895  1.00  0.00     0.000 A 
HETATM   33  C   UNL     1      40.753 -15.628   5.700  1.00  0.00     0.001 A 
HETATM   34  C   UNL     1      41.309 -14.789   4.733  1.00  0.00     0.009 A 
ENDBRANCH  28  29
ENDBRANCH   2  28
TORSDOF 5
ENDMDL
MODEL 9
REMARK VINA RESULT:      -8.4      3.454      7.093
REMARK  5 active torsions:
REMARK  status: ('A' for Active; 'I' for Inactive)
REMARK    1  A    between atoms: C_2  and  C_3 
REMARK       I    between atoms: C_3  and  N_4 
REMARK    2  A    between atoms: N_4  and  N_5 
REMARK    3  A    between atoms: N_5  and  C_6 
REMARK    4  A    between atoms: N_7  and  C_8 
REMARK    5  A    between atoms: C_8  and  C_9 
ROOT
HETATM    1  C   UNL     1      40.397 -14.296   3.156  1.00  0.00     0.200 A 
HETATM    2  N   UNL     1      40.240 -13.115   3.853  1.00  0.00    -0.283 N 
HETATM    3  C   UNL     1      39.981 -11.927   3.191  1.00  0.00     0.259 A 
HETATM    4  O   UNL     1      39.853 -10.861   3.791  1.00  0.00    -0.267 OA
HETATM    5  C   UNL     1      39.848 -11.984   1.709  1.00  0.00     0.049 A 
HETATM    6  C   UNL     1      39.957 -13.212   1.166  1.00  0.00     0.083 A 
HETATM    7  C   UNL     1      39.755 -13.376  -0.298  1.00  0.00    -0.000 A 
HETATM    8  C   UNL     1      39.855 -12.264  -1.149  1.00  0.00    -0.044 A 
HETATM    9  C   UNL     1      39.703 -12.415  -2.534  1.00  0.00     0.008 A 
HETATM   10  C   UNL     1      39.424 -13.668  -3.076  1.00  0.00     0.001 A 
HETATM   11  C   UNL     1      39.306 -14.775  -2.242  1.00  0.00     0.001 A 
HETATM   12  C   UNL     1      39.475 -14.631  -0.864  1.00  0.00     0.014 A 
HETATM   13  C   UNL     1      40.189 -10.926  -0.551  1.00  0.00     0.054 C 
HETATM   14  C   UNL     1      39.567 -10.732   0.860  1.00  0.00    -0.002 C 
HETATM   15  C   UNL     1      38.043 -10.482   0.752  1.00  0.00     0.015 C 
HETATM   16  C   UNL     1      37.709  -9.578   1.927  1.00  0.00     0.001 C 
HETATM   17  C   UNL     1      38.904  -8.644   2.033  1.00  0.00     0.001 C 
HETATM   18  C   UNL     1      40.096  -9.380   1.410  1.00  0.00     0.015 C 
HETATM   19  N   UNL     1      40.244 -14.350   1.863  1.00  0.00    -0.218 NA
ENDROOT
BRANCH   1  20
HETATM   20  N   UNL     1      40.734 -15.468   3.820  1.00  0.00    -0.188 NA
HETATM   21  H   UNL     1      41.359 -15.360   4.620  1.00  0.00     0.150 HD
BRANCH  20  22
HETATM   22  N   UNL     1      41.227 -16.482   2.947  1.00  0.00    -0.189 NA
HETATM   23  C   UNL     1      42.474 -16.974   3.289  1.00  0.00     0.210 C 
HETATM   24  O   UNL     1      42.964 -16.819   4.407  1.00  0.00    -0.279 OA
HETATM   25  H   UNL     1      41.062 -16.241   1.967  1.00  0.00     0.150 HD
BRANCH  23  26
HETATM   26  C   UNL     1      43.182 -17.693   2.163  1.00  0.00     0.093 C 
HETATM   27  C   UNL     1      43.530 -19.112   2.575  1.00  0.00     0.014 C 
ENDBRANCH  23  26
ENDBRANCH  20  22
ENDBRANCH   1  20
BRANCH   2  28
HETATM   28  C   UNL     1      40.255 -13.067   5.317  1.00  0.00     0.173 C 
BRANCH  28  29
HETATM   29  C   UNL     1      41.648 -12.839   5.871  1.00  0.00    -0.040 A 
HETATM   30  C   UNL     1      42.468 -13.922   6.224  1.00  0.00     0.009 A 
HETATM   31  C   UNL     1      43.746 -13.704   6.743  1.00  0.00     0.001 A 
HETATM   32  C   UNL     1      44.220 -12.405   6.914  1.00  0.00     0.000 A 
HETATM   33  C   UNL     1      43.418 -11.322   6.563  1.00  0.00     0.001 A 
HETATM   34  C   UNL     1      42.141 -11.537   6.042  1.00  0.00     0.009 A 
ENDBRANCH  28  29
ENDBRANCH   2  28
TORSDOF 5
ENDMDL
MODEL 10
REMARK VINA RESULT:      -8.3     16.334     17.891
REMARK  5 active torsions:
REMARK  status: ('A' for Active; 'I' for Inactive)
REMARK    1  A    between atoms: C_2  and  C_3 
REMARK       I    between atoms: C_3  and  N_4 
REMARK    2  A    between atoms: N_4  and  N_5 
REMARK    3  A    between atoms: N_5  and  C_6 
REMARK    4  A    between atoms: N_7  and  C_8 
REMARK    5  A    between atoms: C_8  and  C_9 
ROOT
HETATM    1  C   UNL     1      45.211 -29.775   2.014  1.00  0.00     0.200 A 
HETATM    2  N   UNL     1      44.237 -29.427   1.100  1.00  0.00    -0.283 N 
HETATM    3  C   UNL     1      44.547 -29.249  -0.237  1.00  0.00     0.259 A 
HETATM    4  O   UNL     1      43.697 -28.924  -1.066  1.00  0.00    -0.267 OA
HETATM    5  C   UNL     1      45.959 -29.478  -0.649  1.00  0.00     0.049 A 
HETATM    6  C   UNL     1      46.789 -29.880   0.333  1.00  0.00     0.083 A 
HETATM    7  C   UNL     1      48.199 -30.212  -0.003  1.00  0.00    -0.000 A 
HETATM    8  C   UNL     1      48.765 -29.744  -1.199  1.00  0.00    -0.044 A 
HETATM    9  C   UNL     1      50.104 -30.022  -1.506  1.00  0.00     0.008 A 
HETATM   10  C   UNL     1      50.878 -30.790  -0.638  1.00  0.00     0.001 A 
HETATM   11  C   UNL     1      50.324 -31.274   0.542  1.00  0.00     0.001 A 
HETATM   12  C   UNL     1      48.996 -30.984   0.860  1.00  0.00     0.014 A 
HETATM   13  C   UNL     1      47.926 -28.889  -2.107  1.00  0.00     0.054 C 
HETATM   14  C   UNL     1      46.430 -29.308  -2.105  1.00  0.00    -0.002 C 
HETATM   15  C   UNL     1      46.232 -30.624  -2.895  1.00  0.00     0.015 C 
HETATM   16  C   UNL     1      44.837 -30.517  -3.490  1.00  0.00     0.001 C 
HETATM   17  C   UNL     1      44.703 -29.052  -3.873  1.00  0.00     0.001 C 
HETATM   18  C   UNL     1      45.664 -28.271  -2.970  1.00  0.00     0.015 C 
HETATM   19  N   UNL     1      46.438 -30.010   1.646  1.00  0.00    -0.218 NA
ENDROOT
BRANCH   1  20
HETATM   20  N   UNL     1      44.908 -29.874   3.365  1.00  0.00    -0.188 NA
HETATM   21  H   UNL     1      44.790 -28.988   3.859  1.00  0.00     0.150 HD
BRANCH  20  22
HETATM   22  N   UNL     1      45.810 -30.717   4.079  1.00  0.00    -0.189 NA
HETATM   23  C   UNL     1      45.262 -31.917   4.496  1.00  0.00     0.210 C 
HETATM   24  O   UNL     1      44.225 -32.374   4.016  1.00  0.00    -0.279 OA
HETATM   25  H   UNL     1      46.360 -30.183   4.756  1.00  0.00     0.150 HD
BRANCH  23  26
HETATM   26  C   UNL     1      46.037 -32.596   5.602  1.00  0.00     0.093 C 
HETATM   27  C   UNL     1      46.505 -31.578   6.625  1.00  0.00     0.014 C 
ENDBRANCH  23  26
ENDBRANCH  20  22
ENDBRANCH   1  20
BRANCH   2  28
HETATM   28  C   UNL     1      42.825 -29.310   1.474  1.00  0.00     0.173 C 
BRANCH  28  29
HETATM   29  C   UNL     1      42.179 -30.660   1.716  1.00  0.00    -0.040 A 
HETATM   30  C   UNL     1      42.466 -31.754   0.886  1.00  0.00     0.009 A 
HETATM   31  C   UNL     1      41.860 -32.992   1.109  1.00  0.00     0.001 A 
HETATM   32  C   UNL     1      40.964 -33.153   2.164  1.00  0.00     0.000 A 
HETATM   33  C   UNL     1      40.675 -32.076   2.999  1.00  0.00     0.001 A 
HETATM   34  C   UNL     1      41.281 -30.838   2.779  1.00  0.00     0.009 A 
ENDBRANCH  28  29
ENDBRANCH   2  28
TORSDOF 5
ENDMDL
