MODEL 1
REMARK VINA RESULT:      -7.9      0.000      0.000
REMARK  9 active torsions:
REMARK  status: ('A' for Active; 'I' for Inactive)
REMARK    1  A    between atoms: C_2  and  C_3 
REMARK    2  A    between atoms: C_7  and  C_8 
REMARK    3  A    between atoms: C_8  and  C_9 
REMARK       I    between atoms: C_9  and  N_10 
REMARK    4  A    between atoms: N_10  and  C_11 
REMARK    5  A    between atoms: C_11  and  C_12 
REMARK    6  A    between atoms: C_12  and  N_13 
REMARK    7  A    between atoms: C_21  and  C_22 
REMARK    8  A    between atoms: C_32  and  C_33 
REMARK    9  A    between atoms: C_33  and  O_34 
ROOT
HETATM    1  C   UNL     1      39.266 -12.126   5.063  1.00  0.00     0.051 C 
HETATM    2  N   UNL     1      39.099 -11.310   3.941  1.00  0.00    -0.228 NA
HETATM    3  C   UNL     1      40.032 -11.367   3.049  1.00  0.00     0.170 C 
HETATM    4  N   UNL     1      41.161 -12.437   3.082  1.00  0.00    -0.318 N 
HETATM    5  C   UNL     1      42.269 -11.921   2.657  1.00  0.00     0.011 C 
HETATM    6  C   UNL     1      40.612 -13.655   3.709  1.00  0.00     0.166 C 
HETATM    7  S   UNL     1      40.334 -10.183   1.836  1.00  0.00    -0.086 SA
HETATM    8  C   UNL     1      42.111 -10.613   1.891  1.00  0.00     0.135 C 
HETATM    9  C   UNL     1      40.037 -13.243   5.023  1.00  0.00     0.069 C 
ENDROOT
BRANCH   5  10
HETATM   10  C   UNL     1      43.604 -12.541   2.953  1.00  0.00     0.156 C 
BRANCH  10  11
HETATM   11  C   UNL     1      44.327 -11.849   4.093  1.00  0.00     0.223 C 
HETATM   12  N   UNL     1      43.705 -11.868   5.315  1.00  0.00    -0.359 N 
HETATM   13  H   UNL     1      42.827 -12.370   5.430  1.00  0.00     0.162 HD
HETATM   14  O   UNL     1      45.386 -11.251   3.918  1.00  0.00    -0.273 OA
BRANCH  12  15
HETATM   15  C   UNL     1      44.118 -11.031   6.450  1.00  0.00     0.150 C 
BRANCH  15  16
HETATM   16  C   UNL     1      42.976 -10.320   7.214  1.00  0.00     0.254 C 
BRANCH  16  17
HETATM   17  N   UNL     1      43.247 -10.229   8.705  1.00  0.00    -0.070 N 
HETATM   18  H   UNL     1      43.082 -11.177   9.096  1.00  0.00     0.279 HD
HETATM   19  C   UNL     1      44.682  -9.887   9.037  1.00  0.00     0.235 C 
HETATM   20  C   UNL     1      44.894 -10.006  10.540  1.00  0.00     0.028 C 
HETATM   21  C   UNL     1      43.919  -9.130  11.318  1.00  0.00     0.003 C 
HETATM   22  C   UNL     1      42.476  -9.405  10.907  1.00  0.00     0.028 C 
HETATM   23  C   UNL     1      42.285  -9.297   9.403  1.00  0.00     0.235 C 
ENDBRANCH  16  17
ENDBRANCH  15  16
ENDBRANCH  12  15
ENDBRANCH  10  11
ENDBRANCH   5  10
BRANCH   6  24
HETATM   24  C   UNL     1      41.382 -14.942   3.426  1.00  0.00    -0.024 A 
HETATM   25  C   UNL     1      41.074 -15.712   2.264  1.00  0.00    -0.053 A 
HETATM   26  C   UNL     1      39.970 -15.359   1.294  1.00  0.00     0.049 C 
HETATM   27  C   UNL     1      41.775 -16.904   2.006  1.00  0.00     0.008 A 
HETATM   28  C   UNL     1      42.778 -17.345   2.859  1.00  0.00     0.007 A 
HETATM   29  C   UNL     1      43.099 -16.610   3.997  1.00  0.00    -0.061 A 
HETATM   30  C   UNL     1      44.194 -17.088   4.910  1.00  0.00     0.048 C 
HETATM   31  C   UNL     1      42.416 -15.412   4.259  1.00  0.00     0.017 A 
ENDBRANCH   6  24
BRANCH   9  32
HETATM   32  C   UNL     1      40.546 -13.810   6.264  1.00  0.00     0.293 C 
HETATM   33  O   UNL     1      41.646 -13.478   6.681  1.00  0.00    -0.259 OA
BRANCH  32  34
HETATM   34  O   UNL     1      39.695 -14.724   6.753  1.00  0.00    -0.323 OA
HETATM   35  C   UNL     1      40.166 -16.078   6.740  1.00  0.00     0.213 C 
ENDBRANCH  32  34
ENDBRANCH   9  32
BRANCH   1  36
HETATM   36  C   UNL     1      38.618 -11.576   6.322  1.00  0.00     0.056 C 
HETATM   37  C   UNL     1      39.272 -10.279   6.779  1.00  0.00     0.011 C 
ENDBRANCH   1  36
TORSDOF 9
ENDMDL
MODEL 2
REMARK VINA RESULT:      -7.8      2.460      6.421
REMARK  9 active torsions:
REMARK  status: ('A' for Active; 'I' for Inactive)
REMARK    1  A    between atoms: C_2  and  C_3 
REMARK    2  A    between atoms: C_7  and  C_8 
REMARK    3  A    between atoms: C_8  and  C_9 
REMARK       I    between atoms: C_9  and  N_10 
REMARK    4  A    between atoms: N_10  and  C_11 
REMARK    5  A    between atoms: C_11  and  C_12 
REMARK    6  A    between atoms: C_12  and  N_13 
REMARK    7  A    between atoms: C_21  and  C_22 
REMARK    8  A    between atoms: C_32  and  C_33 
REMARK    9  A    between atoms: C_33  and  O_34 
ROOT
HETATM    1  C   UNL     1      42.608  -9.485   6.964  1.00  0.00     0.051 C 
HETATM    2  N   UNL     1      41.714  -8.991   6.009  1.00  0.00    -0.228 NA
HETATM    3  C   UNL     1      41.556  -9.710   4.948  1.00  0.00     0.170 C 
HETATM    4  N   UNL     1      42.127 -11.152   4.818  1.00  0.00    -0.318 N 
HETATM    5  C   UNL     1      42.512 -11.364   3.601  1.00  0.00     0.011 C 
HETATM    6  C   UNL     1      42.154 -11.752   6.166  1.00  0.00     0.166 C 
HETATM    7  S   UNL     1      40.913  -9.159   3.449  1.00  0.00    -0.086 SA
HETATM    8  C   UNL     1      41.964 -10.376   2.578  1.00  0.00     0.135 C 
HETATM    9  C   UNL     1      42.904 -10.807   7.045  1.00  0.00     0.069 C 
ENDROOT
BRANCH   5  10
HETATM   10  C   UNL     1      43.468 -12.466   3.246  1.00  0.00     0.156 C 
BRANCH  10  11
HETATM   11  C   UNL     1      42.765 -13.684   2.677  1.00  0.00     0.223 C 
HETATM   12  N   UNL     1      43.550 -14.776   2.408  1.00  0.00    -0.359 N 
HETATM   13  H   UNL     1      44.543 -14.755   2.633  1.00  0.00     0.162 HD
HETATM   14  O   UNL     1      41.565 -13.674   2.415  1.00  0.00    -0.273 OA
BRANCH  12  15
HETATM   15  C   UNL     1      43.097 -15.928   1.616  1.00  0.00     0.150 C 
BRANCH  15  16
HETATM   16  C   UNL     1      42.342 -17.029   2.398  1.00  0.00     0.254 C 
BRANCH  16  17
HETATM   17  N   UNL     1      43.221 -18.229   2.700  1.00  0.00    -0.070 N 
HETATM   18  H   UNL     1      44.142 -18.044   2.256  1.00  0.00     0.279 HD
HETATM   19  C   UNL     1      43.500 -18.414   4.175  1.00  0.00     0.235 C 
HETATM   20  C   UNL     1      44.533 -19.518   4.357  1.00  0.00     0.028 C 
HETATM   21  C   UNL     1      44.086 -20.822   3.707  1.00  0.00     0.003 C 
HETATM   22  C   UNL     1      43.707 -20.612   2.245  1.00  0.00     0.028 C 
HETATM   23  C   UNL     1      42.686 -19.497   2.079  1.00  0.00     0.235 C 
ENDBRANCH  16  17
ENDBRANCH  15  16
ENDBRANCH  12  15
ENDBRANCH  10  11
ENDBRANCH   5  10
BRANCH   6  24
HETATM   24  C   UNL     1      42.235 -13.275   6.203  1.00  0.00    -0.024 A 
HETATM   25  C   UNL     1      41.048 -14.053   6.049  1.00  0.00    -0.053 A 
HETATM   26  C   UNL     1      39.668 -13.455   5.899  1.00  0.00     0.049 C 
HETATM   27  C   UNL     1      41.118 -15.457   6.093  1.00  0.00     0.008 A 
HETATM   28  C   UNL     1      42.331 -16.109   6.274  1.00  0.00     0.007 A 
HETATM   29  C   UNL     1      43.503 -15.373   6.425  1.00  0.00    -0.061 A 
HETATM   30  C   UNL     1      44.813 -16.086   6.608  1.00  0.00     0.048 C 
HETATM   31  C   UNL     1      43.448 -13.972   6.369  1.00  0.00     0.017 A 
ENDBRANCH   6  24
BRANCH   9  32
HETATM   32  C   UNL     1      44.125 -11.231   7.715  1.00  0.00     0.293 C 
HETATM   33  O   UNL     1      44.095 -11.550   8.895  1.00  0.00    -0.259 OA
BRANCH  32  34
HETATM   34  O   UNL     1      45.179 -11.130   6.891  1.00  0.00    -0.323 OA
HETATM   35  C   UNL     1      46.360 -10.552   7.462  1.00  0.00     0.213 C 
ENDBRANCH  32  34
ENDBRANCH   9  32
BRANCH   1  36
HETATM   36  C   UNL     1      43.288  -8.402   7.785  1.00  0.00     0.056 C 
HETATM   37  C   UNL     1      42.525  -8.096   9.066  1.00  0.00     0.011 C 
ENDBRANCH   1  36
TORSDOF 9
ENDMDL
MODEL 3
REMARK VINA RESULT:      -7.7      1.986      4.216
REMARK  9 active torsions:
REMARK  status: ('A' for Active; 'I' for Inactive)
REMARK    1  A    between atoms: C_2  and  C_3 
REMARK    2  A    between atoms: C_7  and  C_8 
REMARK    3  A    between atoms: C_8  and  C_9 
REMARK       I    between atoms: C_9  and  N_10 
REMARK    4  A    between atoms: N_10  and  C_11 
REMARK    5  A    between atoms: C_11  and  C_12 
REMARK    6  A    between atoms: C_12  and  N_13 
REMARK    7  A    between atoms: C_21  and  C_22 
REMARK    8  A    between atoms: C_32  and  C_33 
REMARK    9  A    between atoms: C_33  and  O_34 
ROOT
HETATM    1  C   UNL     1      40.525 -14.016   1.250  1.00  0.00     0.051 C 
HETATM    2  N   UNL     1      40.159 -12.701   0.946  1.00  0.00    -0.228 NA
HETATM    3  C   UNL     1      39.978 -11.911   1.951  1.00  0.00     0.170 C 
HETATM    4  N   UNL     1      40.365 -12.303   3.407  1.00  0.00    -0.318 N 
HETATM    5  C   UNL     1      39.507 -11.807   4.239  1.00  0.00     0.011 C 
HETATM    6  C   UNL     1      41.520 -13.220   3.338  1.00  0.00     0.166 C 
HETATM    7  S   UNL     1      39.101 -10.430   1.920  1.00  0.00    -0.086 SA
HETATM    8  C   UNL     1      38.635 -10.695   3.668  1.00  0.00     0.135 C 
HETATM    9  C   UNL     1      41.133 -14.332   2.421  1.00  0.00     0.069 C 
ENDROOT
BRANCH   5  10
HETATM   10  C   UNL     1      39.354 -12.333   5.637  1.00  0.00     0.156 C 
BRANCH  10  11
HETATM   11  C   UNL     1      39.492 -11.245   6.685  1.00  0.00     0.223 C 
HETATM   12  N   UNL     1      40.686 -10.573   6.718  1.00  0.00    -0.359 N 
HETATM   13  H   UNL     1      41.406 -10.783   6.029  1.00  0.00     0.162 HD
HETATM   14  O   UNL     1      38.603 -11.019   7.503  1.00  0.00    -0.273 OA
BRANCH  12  15
HETATM   15  C   UNL     1      41.093  -9.690   7.820  1.00  0.00     0.150 C 
BRANCH  15  16
HETATM   16  C   UNL     1      42.284  -8.747   7.525  1.00  0.00     0.254 C 
BRANCH  16  17
HETATM   17  N   UNL     1      43.350  -8.807   8.603  1.00  0.00    -0.070 N 
HETATM   18  H   UNL     1      43.570  -7.824   8.859  1.00  0.00     0.279 HD
HETATM   19  C   UNL     1      42.881  -9.474   9.877  1.00  0.00     0.235 C 
HETATM   20  C   UNL     1      43.949  -9.315  10.950  1.00  0.00     0.028 C 
HETATM   21  C   UNL     1      45.294  -9.869  10.494  1.00  0.00     0.003 C 
HETATM   22  C   UNL     1      45.716  -9.270   9.158  1.00  0.00     0.028 C 
HETATM   23  C   UNL     1      44.634  -9.423   8.101  1.00  0.00     0.235 C 
ENDBRANCH  16  17
ENDBRANCH  15  16
ENDBRANCH  12  15
ENDBRANCH  10  11
ENDBRANCH   5  10
BRANCH   6  24
HETATM   24  C   UNL     1      42.331 -13.351   4.624  1.00  0.00    -0.024 A 
HETATM   25  C   UNL     1      43.339 -12.387   4.929  1.00  0.00    -0.053 A 
HETATM   26  C   UNL     1      43.706 -11.241   4.015  1.00  0.00     0.049 C 
HETATM   27  C   UNL     1      44.094 -12.511   6.108  1.00  0.00     0.008 A 
HETATM   28  C   UNL     1      43.870 -13.555   6.997  1.00  0.00     0.007 A 
HETATM   29  C   UNL     1      42.891 -14.506   6.723  1.00  0.00    -0.061 A 
HETATM   30  C   UNL     1      42.647 -15.627   7.695  1.00  0.00     0.048 C 
HETATM   31  C   UNL     1      42.121 -14.386   5.556  1.00  0.00     0.017 A 
ENDBRANCH   6  24
BRANCH   9  32
HETATM   32  C   UNL     1      41.101 -15.707   2.900  1.00  0.00     0.293 C 
HETATM   33  O   UNL     1      40.167 -16.092   3.589  1.00  0.00    -0.259 OA
BRANCH  32  34
HETATM   34  O   UNL     1      42.214 -16.362   2.541  1.00  0.00    -0.323 OA
HETATM   35  C   UNL     1      42.752 -17.258   3.523  1.00  0.00     0.213 C 
ENDBRANCH  32  34
ENDBRANCH   9  32
BRANCH   1  36
HETATM   36  C   UNL     1      40.066 -15.034   0.220  1.00  0.00     0.056 C 
HETATM   37  C   UNL     1      39.520 -14.367  -1.035  1.00  0.00     0.011 C 
ENDBRANCH   1  36
TORSDOF 9
ENDMDL
MODEL 4
REMARK VINA RESULT:      -7.1      2.523      4.989
REMARK  9 active torsions:
REMARK  status: ('A' for Active; 'I' for Inactive)
REMARK    1  A    between atoms: C_2  and  C_3 
REMARK    2  A    between atoms: C_7  and  C_8 
REMARK    3  A    between atoms: C_8  and  C_9 
REMARK       I    between atoms: C_9  and  N_10 
REMARK    4  A    between atoms: N_10  and  C_11 
REMARK    5  A    between atoms: C_11  and  C_12 
REMARK    6  A    between atoms: C_12  and  N_13 
REMARK    7  A    between atoms: C_21  and  C_22 
REMARK    8  A    between atoms: C_32  and  C_33 
REMARK    9  A    between atoms: C_33  and  O_34 
ROOT
HETATM    1  C   UNL     1      42.258 -16.504   3.627  1.00  0.00     0.051 C 
HETATM    2  N   UNL     1      42.193 -16.738   5.003  1.00  0.00    -0.228 NA
HETATM    3  C   UNL     1      42.333 -15.705   5.765  1.00  0.00     0.170 C 
HETATM    4  N   UNL     1      42.340 -14.249   5.215  1.00  0.00    -0.318 N 
HETATM    5  C   UNL     1      43.169 -13.526   5.896  1.00  0.00     0.011 C 
HETATM    6  C   UNL     1      41.484 -14.216   4.013  1.00  0.00     0.166 C 
HETATM    7  S   UNL     1      42.756 -15.739   7.434  1.00  0.00    -0.086 SA
HETATM    8  C   UNL     1      43.588 -14.123   7.233  1.00  0.00     0.135 C 
HETATM    9  C   UNL     1      41.983 -15.284   3.098  1.00  0.00     0.069 C 
ENDROOT
BRANCH   5  10
HETATM   10  C   UNL     1      43.712 -12.227   5.371  1.00  0.00     0.156 C 
BRANCH  10  11
HETATM   11  C   UNL     1      43.562 -11.091   6.366  1.00  0.00     0.223 C 
HETATM   12  N   UNL     1      42.323 -10.509   6.450  1.00  0.00    -0.359 N 
HETATM   13  H   UNL     1      41.552 -10.875   5.895  1.00  0.00     0.162 HD
HETATM   14  O   UNL     1      44.515 -10.674   7.019  1.00  0.00    -0.273 OA
BRANCH  12  15
HETATM   15  C   UNL     1      42.066  -9.242   7.148  1.00  0.00     0.150 C 
BRANCH  15  16
HETATM   16  C   UNL     1      41.184  -9.336   8.415  1.00  0.00     0.254 C 
BRANCH  16  17
HETATM   17  N   UNL     1      42.003  -9.549   9.675  1.00  0.00    -0.070 N 
HETATM   18  H   UNL     1      42.326 -10.536   9.657  1.00  0.00     0.279 HD
HETATM   19  C   UNL     1      43.255  -8.702   9.729  1.00  0.00     0.235 C 
HETATM   20  C   UNL     1      44.096  -9.123  10.927  1.00  0.00     0.028 C 
HETATM   21  C   UNL     1      43.308  -9.034  12.228  1.00  0.00     0.003 C 
HETATM   22  C   UNL     1      41.996  -9.806  12.136  1.00  0.00     0.028 C 
HETATM   23  C   UNL     1      41.175  -9.385  10.928  1.00  0.00     0.235 C 
ENDBRANCH  16  17
ENDBRANCH  15  16
ENDBRANCH  12  15
ENDBRANCH  10  11
ENDBRANCH   5  10
BRANCH   6  24
HETATM   24  C   UNL     1      40.988 -12.834   3.600  1.00  0.00    -0.024 A 
HETATM   25  C   UNL     1      39.989 -12.175   4.378  1.00  0.00    -0.053 A 
HETATM   26  C   UNL     1      39.329 -12.794   5.590  1.00  0.00     0.049 C 
HETATM   27  C   UNL     1      39.523 -10.906   3.994  1.00  0.00     0.008 A 
HETATM   28  C   UNL     1      40.028 -10.267   2.869  1.00  0.00     0.007 A 
HETATM   29  C   UNL     1      41.005 -10.886   2.094  1.00  0.00    -0.061 A 
HETATM   30  C   UNL     1      41.555 -10.183   0.885  1.00  0.00     0.048 C 
HETATM   31  C   UNL     1      41.488 -12.148   2.475  1.00  0.00     0.017 A 
ENDBRANCH   6  24
BRANCH   9  32
HETATM   32  C   UNL     1      42.474 -14.950   1.768  1.00  0.00     0.293 C 
HETATM   33  O   UNL     1      43.639 -14.616   1.614  1.00  0.00    -0.259 OA
BRANCH  32  34
HETATM   34  O   UNL     1      41.480 -14.997   0.869  1.00  0.00    -0.323 OA
HETATM   35  C   UNL     1      40.261 -15.600   1.324  1.00  0.00     0.213 C 
ENDBRANCH  32  34
ENDBRANCH   9  32
BRANCH   1  36
HETATM   36  C   UNL     1      42.779 -17.687   2.828  1.00  0.00     0.056 C 
HETATM   37  C   UNL     1      43.870 -18.442   3.574  1.00  0.00     0.011 C 
ENDBRANCH   1  36
TORSDOF 9
ENDMDL
MODEL 5
REMARK VINA RESULT:      -7.1      2.632      6.948
REMARK  9 active torsions:
REMARK  status: ('A' for Active; 'I' for Inactive)
REMARK    1  A    between atoms: C_2  and  C_3 
REMARK    2  A    between atoms: C_7  and  C_8 
REMARK    3  A    between atoms: C_8  and  C_9 
REMARK       I    between atoms: C_9  and  N_10 
REMARK    4  A    between atoms: N_10  and  C_11 
REMARK    5  A    between atoms: C_11  and  C_12 
REMARK    6  A    between atoms: C_12  and  N_13 
REMARK    7  A    between atoms: C_21  and  C_22 
REMARK    8  A    between atoms: C_32  and  C_33 
REMARK    9  A    between atoms: C_33  and  O_34 
ROOT
HETATM    1  C   UNL     1      42.707  -9.363   7.213  1.00  0.00     0.051 C 
HETATM    2  N   UNL     1      41.780  -8.762   6.356  1.00  0.00    -0.228 NA
HETATM    3  C   UNL     1      41.534  -9.386   5.253  1.00  0.00     0.170 C 
HETATM    4  N   UNL     1      42.040 -10.831   4.973  1.00  0.00    -0.318 N 
HETATM    5  C   UNL     1      42.346 -10.955   3.722  1.00  0.00     0.011 C 
HETATM    6  C   UNL     1      42.119 -11.540   6.265  1.00  0.00     0.166 C 
HETATM    7  S   UNL     1      40.829  -8.692   3.843  1.00  0.00    -0.086 SA
HETATM    8  C   UNL     1      41.780  -9.869   2.816  1.00  0.00     0.135 C 
HETATM    9  C   UNL     1      42.954 -10.698   7.170  1.00  0.00     0.069 C 
ENDROOT
BRANCH   5  10
HETATM   10  C   UNL     1      43.236 -12.057   3.224  1.00  0.00     0.156 C 
BRANCH  10  11
HETATM   11  C   UNL     1      42.454 -13.202   2.608  1.00  0.00     0.223 C 
HETATM   12  N   UNL     1      41.372 -12.862   1.838  1.00  0.00    -0.359 N 
HETATM   13  H   UNL     1      41.158 -11.881   1.668  1.00  0.00     0.162 HD
HETATM   14  O   UNL     1      42.739 -14.375   2.835  1.00  0.00    -0.273 OA
BRANCH  12  15
HETATM   15  C   UNL     1      40.356 -13.825   1.392  1.00  0.00     0.150 C 
BRANCH  15  16
HETATM   16  C   UNL     1      40.600 -14.471   0.007  1.00  0.00     0.254 C 
BRANCH  16  17
HETATM   17  N   UNL     1      39.755 -13.838  -1.083  1.00  0.00    -0.070 N 
HETATM   18  H   UNL     1      40.410 -13.335  -1.713  1.00  0.00     0.279 HD
HETATM   19  C   UNL     1      39.037 -14.847  -1.951  1.00  0.00     0.235 C 
HETATM   20  C   UNL     1      38.377 -14.128  -3.119  1.00  0.00     0.028 C 
HETATM   21  C   UNL     1      37.433 -13.030  -2.644  1.00  0.00     0.003 C 
HETATM   22  C   UNL     1      38.133 -12.070  -1.688  1.00  0.00     0.028 C 
HETATM   23  C   UNL     1      38.799 -12.805  -0.535  1.00  0.00     0.235 C 
ENDBRANCH  16  17
ENDBRANCH  15  16
ENDBRANCH  12  15
ENDBRANCH  10  11
ENDBRANCH   5  10
BRANCH   6  24
HETATM   24  C   UNL     1      42.141 -13.063   6.176  1.00  0.00    -0.024 A 
HETATM   25  C   UNL     1      40.936 -13.776   5.896  1.00  0.00    -0.053 A 
HETATM   26  C   UNL     1      39.589 -13.111   5.729  1.00  0.00     0.049 C 
HETATM   27  C   UNL     1      40.952 -15.180   5.823  1.00  0.00     0.008 A 
HETATM   28  C   UNL     1      42.129 -15.895   6.007  1.00  0.00     0.007 A 
HETATM   29  C   UNL     1      43.317 -15.223   6.279  1.00  0.00    -0.061 A 
HETATM   30  C   UNL     1      44.589 -16.002   6.466  1.00  0.00     0.048 C 
HETATM   31  C   UNL     1      43.318 -13.821   6.341  1.00  0.00     0.017 A 
ENDBRANCH   6  24
BRANCH   9  32
HETATM   32  C   UNL     1      44.194 -11.217   7.730  1.00  0.00     0.293 C 
HETATM   33  O   UNL     1      44.221 -11.618   8.885  1.00  0.00    -0.259 OA
BRANCH  32  34
HETATM   34  O   UNL     1      45.198 -11.101   6.850  1.00  0.00    -0.323 OA
HETATM   35  C   UNL     1      46.439 -10.621   7.384  1.00  0.00     0.213 C 
ENDBRANCH  32  34
ENDBRANCH   9  32
BRANCH   1  36
HETATM   36  C   UNL     1      43.474  -8.376   8.076  1.00  0.00     0.056 C 
HETATM   37  C   UNL     1      42.837  -8.205   9.448  1.00  0.00     0.011 C 
ENDBRANCH   1  36
TORSDOF 9
ENDMDL
MODEL 6
REMARK VINA RESULT:      -7.0      3.063      7.707
REMARK  9 active torsions:
REMARK  status: ('A' for Active; 'I' for Inactive)
REMARK    1  A    between atoms: C_2  and  C_3 
REMARK    2  A    between atoms: C_7  and  C_8 
REMARK    3  A    between atoms: C_8  and  C_9 
REMARK       I    between atoms: C_9  and  N_10 
REMARK    4  A    between atoms: N_10  and  C_11 
REMARK    5  A    between atoms: C_11  and  C_12 
REMARK    6  A    between atoms: C_12  and  N_13 
REMARK    7  A    between atoms: C_21  and  C_22 
REMARK    8  A    between atoms: C_32  and  C_33 
REMARK    9  A    between atoms: C_33  and  O_34 
ROOT
HETATM    1  C   UNL     1      39.629  -7.286   7.643  1.00  0.00     0.051 C 
HETATM    2  N   UNL     1      38.788  -8.388   7.462  1.00  0.00    -0.228 NA
HETATM    3  C   UNL     1      39.368  -9.518   7.229  1.00  0.00     0.170 C 
HETATM    4  N   UNL     1      40.905  -9.718   7.370  1.00  0.00    -0.318 N 
HETATM    5  C   UNL     1      41.326 -10.538   6.462  1.00  0.00     0.011 C 
HETATM    6  C   UNL     1      41.387  -8.800   8.421  1.00  0.00     0.166 C 
HETATM    7  S   UNL     1      38.624 -10.902   6.524  1.00  0.00    -0.086 SA
HETATM    8  C   UNL     1      40.236 -11.369   5.798  1.00  0.00     0.135 C 
HETATM    9  C   UNL     1      40.917  -7.433   8.048  1.00  0.00     0.069 C 
ENDROOT
BRANCH   5  10
HETATM   10  C   UNL     1      42.773 -10.614   6.064  1.00  0.00     0.156 C 
BRANCH  10  11
HETATM   11  C   UNL     1      43.204 -12.025   5.710  1.00  0.00     0.223 C 
HETATM   12  N   UNL     1      43.134 -12.958   6.712  1.00  0.00    -0.359 N 
HETATM   13  H   UNL     1      42.762 -12.697   7.623  1.00  0.00     0.162 HD
HETATM   14  O   UNL     1      43.649 -12.305   4.600  1.00  0.00    -0.273 OA
BRANCH  12  15
HETATM   15  C   UNL     1      43.754 -14.288   6.631  1.00  0.00     0.150 C 
BRANCH  15  16
HETATM   16  C   UNL     1      42.828 -15.437   6.169  1.00  0.00     0.254 C 
BRANCH  16  17
HETATM   17  N   UNL     1      43.256 -16.025   4.837  1.00  0.00    -0.070 N 
HETATM   18  H   UNL     1      44.235 -15.718   4.676  1.00  0.00     0.279 HD
HETATM   19  C   UNL     1      43.288 -17.537   4.828  1.00  0.00     0.235 C 
HETATM   20  C   UNL     1      43.905 -18.020   3.523  1.00  0.00     0.028 C 
HETATM   21  C   UNL     1      43.162 -17.473   2.311  1.00  0.00     0.003 C 
HETATM   22  C   UNL     1      43.042 -15.954   2.373  1.00  0.00     0.028 C 
HETATM   23  C   UNL     1      42.437 -15.487   3.687  1.00  0.00     0.235 C 
ENDBRANCH  16  17
ENDBRANCH  15  16
ENDBRANCH  12  15
ENDBRANCH  10  11
ENDBRANCH   5  10
BRANCH   6  24
HETATM   24  C   UNL     1      42.741  -9.154   9.029  1.00  0.00    -0.024 A 
HETATM   25  C   UNL     1      42.816  -9.607  10.380  1.00  0.00    -0.053 A 
HETATM   26  C   UNL     1      41.617  -9.714  11.295  1.00  0.00     0.049 C 
HETATM   27  C   UNL     1      44.063  -9.923  10.947  1.00  0.00     0.008 A 
HETATM   28  C   UNL     1      45.234  -9.815  10.207  1.00  0.00     0.007 A 
HETATM   29  C   UNL     1      45.188  -9.378   8.887  1.00  0.00    -0.061 A 
HETATM   30  C   UNL     1      46.458  -9.275   8.090  1.00  0.00     0.048 C 
HETATM   31  C   UNL     1      43.947  -9.072   8.305  1.00  0.00     0.017 A 
ENDBRANCH   6  24
BRANCH   9  32
HETATM   32  C   UNL     1      41.873  -6.362   7.807  1.00  0.00     0.293 C 
HETATM   33  O   UNL     1      42.357  -6.215   6.694  1.00  0.00    -0.259 OA
BRANCH  32  34
HETATM   34  O   UNL     1      42.144  -5.702   8.942  1.00  0.00    -0.323 OA
HETATM   35  C   UNL     1      41.682  -4.346   8.997  1.00  0.00     0.213 C 
ENDBRANCH  32  34
ENDBRANCH   9  32
BRANCH   1  36
HETATM   36  C   UNL     1      39.008  -5.965   7.226  1.00  0.00     0.056 C 
HETATM   37  C   UNL     1      38.180  -5.346   8.345  1.00  0.00     0.011 C 
ENDBRANCH   1  36
TORSDOF 9
ENDMDL
MODEL 7
REMARK VINA RESULT:      -6.7      2.619      7.458
REMARK  9 active torsions:
REMARK  status: ('A' for Active; 'I' for Inactive)
REMARK    1  A    between atoms: C_2  and  C_3 
REMARK    2  A    between atoms: C_7  and  C_8 
REMARK    3  A    between atoms: C_8  and  C_9 
REMARK       I    between atoms: C_9  and  N_10 
REMARK    4  A    between atoms: N_10  and  C_11 
REMARK    5  A    between atoms: C_11  and  C_12 
REMARK    6  A    between atoms: C_12  and  N_13 
REMARK    7  A    between atoms: C_21  and  C_22 
REMARK    8  A    between atoms: C_32  and  C_33 
REMARK    9  A    between atoms: C_33  and  O_34 
ROOT
HETATM    1  C   UNL     1      44.127 -10.775   7.964  1.00  0.00     0.051 C 
HETATM    2  N   UNL     1      44.428 -12.049   7.473  1.00  0.00    -0.228 NA
HETATM    3  C   UNL     1      43.517 -12.615   6.753  1.00  0.00     0.170 C 
HETATM    4  N   UNL     1      42.253 -11.858   6.251  1.00  0.00    -0.318 N 
HETATM    5  C   UNL     1      41.236 -12.657   6.246  1.00  0.00     0.011 C 
HETATM    6  C   UNL     1      42.618 -10.439   6.068  1.00  0.00     0.166 C 
HETATM    7  S   UNL     1      43.406 -14.299   6.416  1.00  0.00    -0.086 SA
HETATM    8  C   UNL     1      41.587 -14.137   6.323  1.00  0.00     0.135 C 
HETATM    9  C   UNL     1      43.212  -9.977   7.356  1.00  0.00     0.069 C 
ENDROOT
BRANCH   5  10
HETATM   10  C   UNL     1      39.822 -12.150   6.222  1.00  0.00     0.156 C 
BRANCH  10  11
HETATM   11  C   UNL     1      39.240 -12.117   4.821  1.00  0.00     0.223 C 
HETATM   12  N   UNL     1      39.576 -13.157   3.993  1.00  0.00    -0.359 N 
HETATM   13  H   UNL     1      40.151 -13.920   4.344  1.00  0.00     0.162 HD
HETATM   14  O   UNL     1      38.551 -11.179   4.430  1.00  0.00    -0.273 OA
BRANCH  12  15
HETATM   15  C   UNL     1      39.331 -13.154   2.544  1.00  0.00     0.150 C 
BRANCH  15  16
HETATM   16  C   UNL     1      39.653 -14.473   1.803  1.00  0.00     0.254 C 
BRANCH  16  17
HETATM   17  N   UNL     1      41.007 -15.039   2.189  1.00  0.00    -0.070 N 
HETATM   18  H   UNL     1      41.182 -14.749   3.171  1.00  0.00     0.279 HD
HETATM   19  C   UNL     1      41.050 -16.551   2.189  1.00  0.00     0.235 C 
HETATM   20  C   UNL     1      42.379 -17.017   2.768  1.00  0.00     0.028 C 
HETATM   21  C   UNL     1      43.562 -16.426   2.010  1.00  0.00     0.003 C 
HETATM   22  C   UNL     1      43.463 -14.907   1.924  1.00  0.00     0.028 C 
HETATM   23  C   UNL     1      42.125 -14.457   1.358  1.00  0.00     0.235 C 
ENDBRANCH  16  17
ENDBRANCH  15  16
ENDBRANCH  12  15
ENDBRANCH  10  11
ENDBRANCH   5  10
BRANCH   6  24
HETATM   24  C   UNL     1      41.688  -9.636   5.164  1.00  0.00    -0.024 A 
HETATM   25  C   UNL     1      41.674  -9.885   3.758  1.00  0.00    -0.053 A 
HETATM   26  C   UNL     1      42.582 -10.883   3.076  1.00  0.00     0.049 C 
HETATM   27  C   UNL     1      40.827  -9.138   2.921  1.00  0.00     0.008 A 
HETATM   28  C   UNL     1      39.984  -8.163   3.439  1.00  0.00     0.007 A 
HETATM   29  C   UNL     1      39.977  -7.903   4.807  1.00  0.00    -0.061 A 
HETATM   30  C   UNL     1      39.055  -6.853   5.362  1.00  0.00     0.048 C 
HETATM   31  C   UNL     1      40.809  -8.650   5.655  1.00  0.00     0.017 A 
ENDBRANCH   6  24
BRANCH   9  32
HETATM   32  C   UNL     1      42.603  -8.885   8.103  1.00  0.00     0.293 C 
HETATM   33  O   UNL     1      41.615  -9.094   8.792  1.00  0.00    -0.259 OA
BRANCH  32  34
HETATM   34  O   UNL     1      43.225  -7.726   7.842  1.00  0.00    -0.323 OA
HETATM   35  C   UNL     1      43.378  -6.839   8.958  1.00  0.00     0.213 C 
ENDBRANCH  32  34
ENDBRANCH   9  32
BRANCH   1  36
HETATM   36  C   UNL     1      44.813 -10.447   9.279  1.00  0.00     0.056 C 
HETATM   37  C   UNL     1      45.986  -9.495   9.087  1.00  0.00     0.011 C 
ENDBRANCH   1  36
TORSDOF 9
ENDMDL
MODEL 8
REMARK VINA RESULT:      -6.6      4.212      7.789
REMARK  9 active torsions:
REMARK  status: ('A' for Active; 'I' for Inactive)
REMARK    1  A    between atoms: C_2  and  C_3 
REMARK    2  A    between atoms: C_7  and  C_8 
REMARK    3  A    between atoms: C_8  and  C_9 
REMARK       I    between atoms: C_9  and  N_10 
REMARK    4  A    between atoms: N_10  and  C_11 
REMARK    5  A    between atoms: C_11  and  C_12 
REMARK    6  A    between atoms: C_12  and  N_13 
REMARK    7  A    between atoms: C_21  and  C_22 
REMARK    8  A    between atoms: C_32  and  C_33 
REMARK    9  A    between atoms: C_33  and  O_34 
ROOT
HETATM    1  C   UNL     1      40.349 -14.091   3.945  1.00  0.00     0.051 C 
HETATM    2  N   UNL     1      40.039 -13.017   4.784  1.00  0.00    -0.228 NA
HETATM    3  C   UNL     1      40.095 -11.842   4.252  1.00  0.00     0.170 C 
HETATM    4  N   UNL     1      40.261 -11.619   2.721  1.00  0.00    -0.318 N 
HETATM    5  C   UNL     1      40.994 -10.575   2.505  1.00  0.00     0.011 C 
HETATM    6  C   UNL     1      39.625 -12.756   2.027  1.00  0.00     0.166 C 
HETATM    7  S   UNL     1      40.224 -10.356   5.112  1.00  0.00    -0.086 SA
HETATM    8  C   UNL     1      41.151  -9.648   3.704  1.00  0.00     0.135 C 
HETATM    9  C   UNL     1      40.224 -13.999   2.596  1.00  0.00     0.069 C 
ENDROOT
BRANCH   5  10
HETATM   10  C   UNL     1      41.678 -10.337   1.189  1.00  0.00     0.156 C 
BRANCH  10  11
HETATM   11  C   UNL     1      41.128  -9.125   0.460  1.00  0.00     0.223 C 
HETATM   12  N   UNL     1      42.018  -8.118   0.187  1.00  0.00    -0.359 N 
HETATM   13  H   UNL     1      43.000  -8.228   0.432  1.00  0.00     0.162 HD
HETATM   14  O   UNL     1      39.936  -9.024   0.182  1.00  0.00    -0.273 OA
BRANCH  12  15
HETATM   15  C   UNL     1      41.617  -6.777  -0.261  1.00  0.00     0.150 C 
BRANCH  15  16
HETATM   16  C   UNL     1      41.498  -6.585  -1.791  1.00  0.00     0.254 C 
BRANCH  16  17
HETATM   17  N   UNL     1      40.685  -7.684  -2.451  1.00  0.00    -0.070 N 
HETATM   18  H   UNL     1      40.527  -8.413  -1.728  1.00  0.00     0.279 HD
HETATM   19  C   UNL     1      39.312  -7.234  -2.896  1.00  0.00     0.235 C 
HETATM   20  C   UNL     1      38.514  -8.442  -3.367  1.00  0.00     0.028 C 
HETATM   21  C   UNL     1      39.237  -9.198  -4.475  1.00  0.00     0.003 C 
HETATM   22  C   UNL     1      40.658  -9.563  -4.061  1.00  0.00     0.028 C 
HETATM   23  C   UNL     1      41.437  -8.349  -3.580  1.00  0.00     0.235 C 
ENDBRANCH  16  17
ENDBRANCH  15  16
ENDBRANCH  12  15
ENDBRANCH  10  11
ENDBRANCH   5  10
BRANCH   6  24
HETATM   24  C   UNL     1      39.272 -12.515   0.562  1.00  0.00    -0.024 A 
HETATM   25  C   UNL     1      38.080 -11.803   0.227  1.00  0.00    -0.053 A 
HETATM   26  C   UNL     1      37.088 -11.303   1.252  1.00  0.00     0.049 C 
HETATM   27  C   UNL     1      37.746 -11.588  -1.121  1.00  0.00     0.008 A 
HETATM   28  C   UNL     1      38.565 -12.047  -2.145  1.00  0.00     0.007 A 
HETATM   29  C   UNL     1      39.734 -12.741  -1.845  1.00  0.00    -0.061 A 
HETATM   30  C   UNL     1      40.621 -13.225  -2.958  1.00  0.00     0.048 C 
HETATM   31  C   UNL     1      40.085 -12.951  -0.502  1.00  0.00     0.017 A 
ENDBRANCH   6  24
BRANCH   9  32
HETATM   32  C   UNL     1      40.949 -14.930   1.742  1.00  0.00     0.293 C 
HETATM   33  O   UNL     1      40.393 -15.936   1.327  1.00  0.00    -0.259 OA
BRANCH  32  34
HETATM   34  O   UNL     1      42.224 -14.543   1.592  1.00  0.00    -0.323 OA
HETATM   35  C   UNL     1      43.204 -15.586   1.684  1.00  0.00     0.213 C 
ENDBRANCH  32  34
ENDBRANCH   9  32
BRANCH   1  36
HETATM   36  C   UNL     1      40.944 -15.285   4.671  1.00  0.00     0.056 C 
HETATM   37  C   UNL     1      40.536 -15.320   6.138  1.00  0.00     0.011 C 
ENDBRANCH   1  36
TORSDOF 9
ENDMDL
MODEL 9
REMARK VINA RESULT:      -6.6      2.731      7.310
REMARK  9 active torsions:
REMARK  status: ('A' for Active; 'I' for Inactive)
REMARK    1  A    between atoms: C_2  and  C_3 
REMARK    2  A    between atoms: C_7  and  C_8 
REMARK    3  A    between atoms: C_8  and  C_9 
REMARK       I    between atoms: C_9  and  N_10 
REMARK    4  A    between atoms: N_10  and  C_11 
REMARK    5  A    between atoms: C_11  and  C_12 
REMARK    6  A    between atoms: C_12  and  N_13 
REMARK    7  A    between atoms: C_21  and  C_22 
REMARK    8  A    between atoms: C_32  and  C_33 
REMARK    9  A    between atoms: C_33  and  O_34 
ROOT
HETATM    1  C   UNL     1      42.951  -7.839   9.792  1.00  0.00     0.051 C 
HETATM    2  N   UNL     1      44.289  -7.801   9.388  1.00  0.00    -0.228 NA
HETATM    3  C   UNL     1      44.638  -8.660   8.489  1.00  0.00     0.170 C 
HETATM    4  N   UNL     1      43.609  -9.535   7.716  1.00  0.00    -0.318 N 
HETATM    5  C   UNL     1      44.107 -10.707   7.493  1.00  0.00     0.011 C 
HETATM    6  C   UNL     1      42.353  -8.766   7.608  1.00  0.00     0.166 C 
HETATM    7  S   UNL     1      46.252  -9.154   8.147  1.00  0.00    -0.086 SA
HETATM    8  C   UNL     1      45.619 -10.798   7.655  1.00  0.00     0.135 C 
HETATM    9  C   UNL     1      41.980  -8.351   8.993  1.00  0.00     0.069 C 
ENDROOT
BRANCH   5  10
HETATM   10  C   UNL     1      43.246 -11.890   7.156  1.00  0.00     0.156 C 
BRANCH  10  11
HETATM   11  C   UNL     1      43.550 -12.458   5.782  1.00  0.00     0.223 C 
HETATM   12  N   UNL     1      43.631 -11.558   4.751  1.00  0.00    -0.359 N 
HETATM   13  H   UNL     1      43.535 -10.561   4.938  1.00  0.00     0.162 HD
HETATM   14  O   UNL     1      43.659 -13.666   5.592  1.00  0.00    -0.273 OA
BRANCH  12  15
HETATM   15  C   UNL     1      43.649 -11.944   3.333  1.00  0.00     0.150 C 
BRANCH  15  16
HETATM   16  C   UNL     1      42.310 -12.468   2.760  1.00  0.00     0.254 C 
BRANCH  16  17
HETATM   17  N   UNL     1      42.156 -13.968   2.930  1.00  0.00    -0.070 N 
HETATM   18  H   UNL     1      42.249 -14.164   3.946  1.00  0.00     0.279 HD
HETATM   19  C   UNL     1      40.790 -14.482   2.531  1.00  0.00     0.235 C 
HETATM   20  C   UNL     1      40.673 -15.951   2.914  1.00  0.00     0.028 C 
HETATM   21  C   UNL     1      41.786 -16.786   2.292  1.00  0.00     0.003 C 
HETATM   22  C   UNL     1      43.160 -16.207   2.611  1.00  0.00     0.028 C 
HETATM   23  C   UNL     1      43.256 -14.736   2.236  1.00  0.00     0.235 C 
ENDBRANCH  16  17
ENDBRANCH  15  16
ENDBRANCH  12  15
ENDBRANCH  10  11
ENDBRANCH   5  10
BRANCH   6  24
HETATM   24  C   UNL     1      41.393  -9.229   6.516  1.00  0.00    -0.024 A 
HETATM   25  C   UNL     1      41.111  -8.374   5.409  1.00  0.00    -0.053 A 
HETATM   26  C   UNL     1      41.673  -6.977   5.265  1.00  0.00     0.049 C 
HETATM   27  C   UNL     1      40.219  -8.793   4.407  1.00  0.00     0.008 A 
HETATM   28  C   UNL     1      39.610 -10.041   4.465  1.00  0.00     0.007 A 
HETATM   29  C   UNL     1      39.870 -10.894   5.533  1.00  0.00    -0.061 A 
HETATM   30  C   UNL     1      39.217 -12.247   5.584  1.00  0.00     0.048 C 
HETATM   31  C   UNL     1      40.769 -10.492   6.534  1.00  0.00     0.017 A 
ENDBRANCH   6  24
BRANCH   9  32
HETATM   32  C   UNL     1      40.718  -8.781   9.579  1.00  0.00     0.293 C 
HETATM   33  O   UNL     1      40.660  -9.836  10.195  1.00  0.00    -0.259 OA
BRANCH  32  34
HETATM   34  O   UNL     1      39.734  -7.924   9.271  1.00  0.00    -0.323 OA
HETATM   35  C   UNL     1      38.655  -7.854  10.212  1.00  0.00     0.213 C 
ENDBRANCH  32  34
ENDBRANCH   9  32
BRANCH   1  36
HETATM   36  C   UNL     1      42.729  -7.380  11.223  1.00  0.00     0.056 C 
HETATM   37  C   UNL     1      43.390  -8.314  12.228  1.00  0.00     0.011 C 
ENDBRANCH   1  36
TORSDOF 9
ENDMDL
MODEL 10
REMARK VINA RESULT:      -6.6      3.298      8.139
REMARK  9 active torsions:
REMARK  status: ('A' for Active; 'I' for Inactive)
REMARK    1  A    between atoms: C_2  and  C_3 
REMARK    2  A    between atoms: C_7  and  C_8 
REMARK    3  A    between atoms: C_8  and  C_9 
REMARK       I    between atoms: C_9  and  N_10 
REMARK    4  A    between atoms: N_10  and  C_11 
REMARK    5  A    between atoms: C_11  and  C_12 
REMARK    6  A    between atoms: C_12  and  N_13 
REMARK    7  A    between atoms: C_21  and  C_22 
REMARK    8  A    between atoms: C_32  and  C_33 
REMARK    9  A    between atoms: C_33  and  O_34 
ROOT
HETATM    1  C   UNL     1      40.591  -9.503  10.917  1.00  0.00     0.051 C 
HETATM    2  N   UNL     1      41.886  -9.718  11.397  1.00  0.00    -0.228 NA
HETATM    3  C   UNL     1      42.833  -9.697  10.519  1.00  0.00     0.170 C 
HETATM    4  N   UNL     1      42.607  -9.232   9.051  1.00  0.00    -0.318 N 
HETATM    5  C   UNL     1      43.339  -9.936   8.249  1.00  0.00     0.011 C 
HETATM    6  C   UNL     1      41.531  -8.221   9.057  1.00  0.00     0.166 C 
HETATM    7  S   UNL     1      44.405 -10.369  10.722  1.00  0.00    -0.086 SA
HETATM    8  C   UNL     1      44.469 -10.702   8.924  1.00  0.00     0.135 C 
HETATM    9  C   UNL     1      40.364  -8.836   9.756  1.00  0.00     0.069 C 
ENDROOT
BRANCH   5  10
HETATM   10  C   UNL     1      43.050 -10.028   6.778  1.00  0.00     0.156 C 
BRANCH  10  11
HETATM   11  C   UNL     1      43.370 -11.397   6.208  1.00  0.00     0.223 C 
HETATM   12  N   UNL     1      42.463 -12.393   6.459  1.00  0.00    -0.359 N 
HETATM   13  H   UNL     1      41.605 -12.183   6.965  1.00  0.00     0.162 HD
HETATM   14  O   UNL     1      44.417 -11.616   5.603  1.00  0.00    -0.273 OA
BRANCH  12  15
HETATM   15  C   UNL     1      42.733 -13.818   6.223  1.00  0.00     0.150 C 
BRANCH  15  16
HETATM   16  C   UNL     1      41.873 -14.496   5.130  1.00  0.00     0.254 C 
BRANCH  16  17
HETATM   17  N   UNL     1      42.675 -15.462   4.278  1.00  0.00    -0.070 N 
HETATM   18  H   UNL     1      43.646 -15.095   4.247  1.00  0.00     0.279 HD
HETATM   19  C   UNL     1      42.774 -16.850   4.871  1.00  0.00     0.235 C 
HETATM   20  C   UNL     1      43.746 -17.682   4.047  1.00  0.00     0.028 C 
HETATM   21  C   UNL     1      43.342 -17.732   2.579  1.00  0.00     0.003 C 
HETATM   22  C   UNL     1      43.144 -16.331   2.009  1.00  0.00     0.028 C 
HETATM   23  C   UNL     1      42.181 -15.508   2.851  1.00  0.00     0.235 C 
ENDBRANCH  16  17
ENDBRANCH  15  16
ENDBRANCH  12  15
ENDBRANCH  10  11
ENDBRANCH   5  10
BRANCH   6  24
HETATM   24  C   UNL     1      41.473  -7.320   7.828  1.00  0.00    -0.024 A 
HETATM   25  C   UNL     1      41.712  -5.919   7.962  1.00  0.00    -0.053 A 
HETATM   26  C   UNL     1      41.975  -5.238   9.286  1.00  0.00     0.049 C 
HETATM   27  C   UNL     1      41.649  -5.084   6.833  1.00  0.00     0.008 A 
HETATM   28  C   UNL     1      41.368  -5.600   5.574  1.00  0.00     0.007 A 
HETATM   29  C   UNL     1      41.133  -6.963   5.416  1.00  0.00    -0.061 A 
HETATM   30  C   UNL     1      40.841  -7.516   4.049  1.00  0.00     0.048 C 
HETATM   31  C   UNL     1      41.206  -7.809   6.534  1.00  0.00     0.017 A 
ENDBRANCH   6  24
BRANCH   9  32
HETATM   32  C   UNL     1      39.094  -9.007   9.066  1.00  0.00     0.293 C 
HETATM   33  O   UNL     1      38.320  -8.065   8.972  1.00  0.00    -0.259 OA
BRANCH  32  34
HETATM   34  O   UNL     1      38.932 -10.279   8.675  1.00  0.00    -0.323 OA
HETATM   35  C   UNL     1      39.189 -10.540   7.289  1.00  0.00     0.213 C 
ENDBRANCH  32  34
ENDBRANCH   9  32
BRANCH   1  36
HETATM   36  C   UNL     1      39.511 -10.187  11.738  1.00  0.00     0.056 C 
HETATM   37  C   UNL     1      39.980 -10.492  13.154  1.00  0.00     0.011 C 
ENDBRANCH   1  36
TORSDOF 9
ENDMDL
