MODEL 1
REMARK VINA RESULT:      -8.8      0.000      0.000
REMARK  4 active torsions:
REMARK  status: ('A' for Active; 'I' for Inactive)
REMARK    1  A    between atoms: N_4  and  C_5 
REMARK    2  A    between atoms: C_13  and  C_14 
REMARK    3  A    between atoms: N_15  and  C_17 
REMARK    4  A    between atoms: C_17  and  C_18 
ROOT
HETATM    1  C   UNL     1      43.887 -11.683   3.412  1.00  0.00     0.095 C 
HETATM    2  C   UNL     1      42.916 -12.794   3.503  1.00  0.00     0.144 A 
HETATM    3  N   UNL     1      41.680 -12.735   3.001  1.00  0.00    -0.156 NA
HETATM    4  N   UNL     1      41.194 -13.955   3.284  1.00  0.00    -0.247 N 
HETATM    5  C   UNL     1      42.101 -14.686   4.021  1.00  0.00     0.156 A 
HETATM    6  N   UNL     1      43.194 -13.960   4.156  1.00  0.00    -0.215 NA
ENDROOT
BRANCH   5   7
HETATM    7  C   UNL     1      41.864 -16.030   4.657  1.00  0.00     0.259 C 
HETATM    8  N   UNL     1      43.032 -16.653   5.422  1.00  0.00    -0.056 N 
HETATM    9  H   UNL     1      42.655 -17.520   5.823  1.00  0.00     0.281 HD
HETATM   10  C   UNL     1      43.463 -15.855   6.631  1.00  0.00     0.236 C 
HETATM   11  C   UNL     1      42.289 -15.744   7.596  1.00  0.00     0.028 C 
HETATM   12  C   UNL     1      41.033 -15.189   6.934  1.00  0.00     0.004 C 
HETATM   13  C   UNL     1      40.683 -15.943   5.648  1.00  0.00     0.041 C 
BRANCH   8  14
HETATM   14  C   UNL     1      44.179 -17.162   4.574  1.00  0.00     0.274 C 
BRANCH  14  15
HETATM   15  C   UNL     1      44.026 -18.502   3.915  1.00  0.00    -0.033 A 
HETATM   16  C   UNL     1      44.210 -19.684   4.650  1.00  0.00     0.009 A 
HETATM   17  C   UNL     1      44.048 -20.931   4.045  1.00  0.00     0.001 A 
HETATM   18  C   UNL     1      43.692 -21.014   2.703  1.00  0.00     0.000 A 
HETATM   19  C   UNL     1      43.486 -19.851   1.965  1.00  0.00     0.001 A 
HETATM   20  C   UNL     1      43.646 -18.602   2.567  1.00  0.00     0.009 A 
ENDBRANCH  14  15
ENDBRANCH   8  14
ENDBRANCH   5   7
BRANCH   4  21
HETATM   21  C   UNL     1      39.850 -14.286   2.823  1.00  0.00     0.115 C 
HETATM   22  C   UNL     1      39.829 -15.424   1.783  1.00  0.00     0.055 C 
HETATM   23  C   UNL     1      40.198 -14.989   0.366  1.00  0.00     0.236 C 
HETATM   24  N   UNL     1      39.358 -13.803  -0.040  1.00  0.00    -0.075 N 
HETATM   25  H   UNL     1      38.369 -14.089  -0.044  1.00  0.00     0.279 HD
HETATM   26  C   UNL     1      39.656 -13.393  -1.466  1.00  0.00     0.269 C 
HETATM   27  C   UNL     1      39.524 -12.638   0.899  1.00  0.00     0.236 C 
HETATM   28  C   UNL     1      39.102 -13.052   2.305  1.00  0.00     0.055 C 
ENDBRANCH   4  21
TORSDOF 4
ENDMDL
MODEL 2
REMARK VINA RESULT:      -8.3      2.280      5.001
REMARK  4 active torsions:
REMARK  status: ('A' for Active; 'I' for Inactive)
REMARK    1  A    between atoms: N_4  and  C_5 
REMARK    2  A    between atoms: C_13  and  C_14 
REMARK    3  A    between atoms: N_15  and  C_17 
REMARK    4  A    between atoms: C_17  and  C_18 
ROOT
HETATM    1  C   UNL     1      42.839 -15.813   7.896  1.00  0.00     0.095 C 
HETATM    2  C   UNL     1      42.967 -14.964   6.693  1.00  0.00     0.144 A 
HETATM    3  N   UNL     1      43.347 -13.683   6.733  1.00  0.00    -0.156 NA
HETATM    4  N   UNL     1      43.352 -13.343   5.433  1.00  0.00    -0.247 N 
HETATM    5  C   UNL     1      42.894 -14.382   4.652  1.00  0.00     0.156 A 
HETATM    6  N   UNL     1      42.656 -15.411   5.442  1.00  0.00    -0.215 NA
ENDROOT
BRANCH   5   7
HETATM    7  C   UNL     1      42.608 -14.334   3.174  1.00  0.00     0.259 C 
HETATM    8  N   UNL     1      42.426 -15.673   2.457  1.00  0.00    -0.056 N 
HETATM    9  H   UNL     1      42.183 -15.426   1.491  1.00  0.00     0.281 HD
HETATM   10  C   UNL     1      41.229 -16.462   2.938  1.00  0.00     0.236 C 
HETATM   11  C   UNL     1      39.967 -15.640   2.706  1.00  0.00     0.028 C 
HETATM   12  C   UNL     1      40.048 -14.249   3.323  1.00  0.00     0.004 C 
HETATM   13  C   UNL     1      41.327 -13.514   2.911  1.00  0.00     0.041 C 
BRANCH   8  14
HETATM   14  C   UNL     1      43.681 -16.499   2.274  1.00  0.00     0.274 C 
BRANCH  14  15
HETATM   15  C   UNL     1      43.692 -17.894   2.832  1.00  0.00    -0.033 A 
HETATM   16  C   UNL     1      43.317 -18.985   2.032  1.00  0.00     0.009 A 
HETATM   17  C   UNL     1      43.346 -20.284   2.542  1.00  0.00     0.001 A 
HETATM   18  C   UNL     1      43.757 -20.510   3.852  1.00  0.00     0.000 A 
HETATM   19  C   UNL     1      44.151 -19.440   4.652  1.00  0.00     0.001 A 
HETATM   20  C   UNL     1      44.125 -18.140   4.145  1.00  0.00     0.009 A 
ENDBRANCH  14  15
ENDBRANCH   8  14
ENDBRANCH   5   7
BRANCH   4  21
HETATM   21  C   UNL     1      43.784 -11.997   5.075  1.00  0.00     0.115 C 
HETATM   22  C   UNL     1      44.913 -11.462   5.979  1.00  0.00     0.055 C 
HETATM   23  C   UNL     1      44.440 -10.940   7.335  1.00  0.00     0.236 C 
HETATM   24  N   UNL     1      43.321  -9.948   7.139  1.00  0.00    -0.075 N 
HETATM   25  H   UNL     1      43.684  -9.148   6.601  1.00  0.00     0.279 HD
HETATM   26  C   UNL     1      42.879  -9.364   8.464  1.00  0.00     0.269 C 
HETATM   27  C   UNL     1      42.153 -10.544   6.399  1.00  0.00     0.236 C 
HETATM   28  C   UNL     1      42.608 -11.013   5.021  1.00  0.00     0.055 C 
ENDBRANCH   4  21
TORSDOF 4
ENDMDL
MODEL 3
REMARK VINA RESULT:      -8.2      1.386      1.790
REMARK  4 active torsions:
REMARK  status: ('A' for Active; 'I' for Inactive)
REMARK    1  A    between atoms: N_4  and  C_5 
REMARK    2  A    between atoms: C_13  and  C_14 
REMARK    3  A    between atoms: N_15  and  C_17 
REMARK    4  A    between atoms: C_17  and  C_18 
ROOT
HETATM    1  C   UNL     1      43.425 -10.874   5.844  1.00  0.00     0.095 C 
HETATM    2  C   UNL     1      42.953 -12.163   5.298  1.00  0.00     0.144 A 
HETATM    3  N   UNL     1      42.458 -12.305   4.065  1.00  0.00    -0.156 NA
HETATM    4  N   UNL     1      42.202 -13.622   4.005  1.00  0.00    -0.247 N 
HETATM    5  C   UNL     1      42.459 -14.228   5.216  1.00  0.00     0.156 A 
HETATM    6  N   UNL     1      42.941 -13.312   6.034  1.00  0.00    -0.215 NA
ENDROOT
BRANCH   5   7
HETATM    7  C   UNL     1      42.150 -15.653   5.589  1.00  0.00     0.259 C 
HETATM    8  N   UNL     1      43.256 -16.686   5.364  1.00  0.00    -0.056 N 
HETATM    9  H   UNL     1      42.876 -17.566   5.732  1.00  0.00     0.281 HD
HETATM   10  C   UNL     1      44.490 -16.449   6.206  1.00  0.00     0.236 C 
HETATM   11  C   UNL     1      44.103 -16.501   7.678  1.00  0.00     0.028 C 
HETATM   12  C   UNL     1      42.959 -15.555   8.022  1.00  0.00     0.004 C 
HETATM   13  C   UNL     1      41.764 -15.737   7.082  1.00  0.00     0.041 C 
BRANCH   8  14
HETATM   14  C   UNL     1      43.548 -17.036   3.921  1.00  0.00     0.274 C 
BRANCH  14  15
HETATM   15  C   UNL     1      43.678 -18.489   3.563  1.00  0.00    -0.033 A 
HETATM   16  C   UNL     1      44.023 -19.437   4.539  1.00  0.00     0.009 A 
HETATM   17  C   UNL     1      44.125 -20.790   4.213  1.00  0.00     0.001 A 
HETATM   18  C   UNL     1      43.875 -21.214   2.912  1.00  0.00     0.000 A 
HETATM   19  C   UNL     1      43.513 -20.290   1.936  1.00  0.00     0.001 A 
HETATM   20  C   UNL     1      43.408 -18.935   2.259  1.00  0.00     0.009 A 
ENDBRANCH  14  15
ENDBRANCH   8  14
ENDBRANCH   5   7
BRANCH   4  21
HETATM   21  C   UNL     1      41.691 -14.169   2.753  1.00  0.00     0.115 C 
HETATM   22  C   UNL     1      41.963 -13.258   1.539  1.00  0.00     0.055 C 
HETATM   23  C   UNL     1      40.998 -12.081   1.407  1.00  0.00     0.236 C 
HETATM   24  N   UNL     1      39.574 -12.576   1.467  1.00  0.00    -0.075 N 
HETATM   25  H   UNL     1      39.414 -13.206   0.670  1.00  0.00     0.279 HD
HETATM   26  C   UNL     1      38.597 -11.436   1.272  1.00  0.00     0.269 C 
HETATM   27  C   UNL     1      39.282 -13.320   2.743  1.00  0.00     0.236 C 
HETATM   28  C   UNL     1      40.204 -14.530   2.850  1.00  0.00     0.055 C 
ENDBRANCH   4  21
TORSDOF 4
ENDMDL
MODEL 4
REMARK VINA RESULT:      -7.6      2.654      4.103
REMARK  4 active torsions:
REMARK  status: ('A' for Active; 'I' for Inactive)
REMARK    1  A    between atoms: N_4  and  C_5 
REMARK    2  A    between atoms: C_13  and  C_14 
REMARK    3  A    between atoms: N_15  and  C_17 
REMARK    4  A    between atoms: C_17  and  C_18 
ROOT
HETATM    1  C   UNL     1      44.816 -11.279   6.281  1.00  0.00     0.095 C 
HETATM    2  C   UNL     1      43.614 -12.106   6.044  1.00  0.00     0.144 A 
HETATM    3  N   UNL     1      42.366 -11.638   6.142  1.00  0.00    -0.156 NA
HETATM    4  N   UNL     1      41.629 -12.711   5.813  1.00  0.00    -0.247 N 
HETATM    5  C   UNL     1      42.429 -13.815   5.615  1.00  0.00     0.156 A 
HETATM    6  N   UNL     1      43.685 -13.437   5.752  1.00  0.00    -0.215 NA
ENDROOT
BRANCH   5   7
HETATM    7  C   UNL     1      41.965 -15.230   5.388  1.00  0.00     0.259 C 
HETATM    8  N   UNL     1      42.974 -16.203   4.776  1.00  0.00    -0.056 N 
HETATM    9  H   UNL     1      42.493 -17.110   4.761  1.00  0.00     0.281 HD
HETATM   10  C   UNL     1      44.184 -16.453   5.648  1.00  0.00     0.236 C 
HETATM   11  C   UNL     1      43.725 -17.041   6.976  1.00  0.00     0.028 C 
HETATM   12  C   UNL     1      42.664 -16.189   7.663  1.00  0.00     0.004 C 
HETATM   13  C   UNL     1      41.503 -15.854   6.722  1.00  0.00     0.041 C 
BRANCH   8  14
HETATM   14  C   UNL     1      43.299 -15.983   3.313  1.00  0.00     0.274 C 
BRANCH  14  15
HETATM   15  C   UNL     1      42.194 -15.512   2.411  1.00  0.00    -0.033 A 
HETATM   16  C   UNL     1      41.030 -16.280   2.247  1.00  0.00     0.009 A 
HETATM   17  C   UNL     1      39.995 -15.834   1.425  1.00  0.00     0.001 A 
HETATM   18  C   UNL     1      40.103 -14.615   0.765  1.00  0.00     0.000 A 
HETATM   19  C   UNL     1      41.243 -13.832   0.933  1.00  0.00     0.001 A 
HETATM   20  C   UNL     1      42.281 -14.274   1.755  1.00  0.00     0.009 A 
ENDBRANCH  14  15
ENDBRANCH   8  14
ENDBRANCH   5   7
BRANCH   4  21
HETATM   21  C   UNL     1      40.179 -12.559   5.754  1.00  0.00     0.115 C 
HETATM   22  C   UNL     1      39.608 -12.745   4.333  1.00  0.00     0.055 C 
HETATM   23  C   UNL     1      39.764 -11.525   3.427  1.00  0.00     0.236 C 
HETATM   24  N   UNL     1      39.228 -10.299   4.123  1.00  0.00    -0.075 N 
HETATM   25  H   UNL     1      38.223 -10.436   4.297  1.00  0.00     0.279 HD
HETATM   26  C   UNL     1      39.309  -9.087   3.220  1.00  0.00     0.269 C 
HETATM   27  C   UNL     1      39.920 -10.038   5.434  1.00  0.00     0.236 C 
HETATM   28  C   UNL     1      39.716 -11.230   6.363  1.00  0.00     0.055 C 
ENDBRANCH   4  21
TORSDOF 4
ENDMDL
MODEL 5
REMARK VINA RESULT:      -7.6      2.309      5.146
REMARK  4 active torsions:
REMARK  status: ('A' for Active; 'I' for Inactive)
REMARK    1  A    between atoms: N_4  and  C_5 
REMARK    2  A    between atoms: C_13  and  C_14 
REMARK    3  A    between atoms: N_15  and  C_17 
REMARK    4  A    between atoms: C_17  and  C_18 
ROOT
HETATM    1  C   UNL     1      39.063 -11.321   5.376  1.00  0.00     0.095 C 
HETATM    2  C   UNL     1      40.286 -11.997   4.895  1.00  0.00     0.144 A 
HETATM    3  N   UNL     1      41.481 -11.862   5.477  1.00  0.00    -0.156 NA
HETATM    4  N   UNL     1      42.258 -12.667   4.733  1.00  0.00    -0.247 N 
HETATM    5  C   UNL     1      41.548 -13.195   3.677  1.00  0.00     0.156 A 
HETATM    6  N   UNL     1      40.300 -12.781   3.778  1.00  0.00    -0.215 NA
ENDROOT
BRANCH   5   7
HETATM    7  C   UNL     1      42.107 -14.012   2.541  1.00  0.00     0.259 C 
HETATM    8  N   UNL     1      42.075 -15.533   2.698  1.00  0.00    -0.056 N 
HETATM    9  H   UNL     1      42.436 -15.899   1.809  1.00  0.00     0.281 HD
HETATM   10  C   UNL     1      40.679 -16.107   2.782  1.00  0.00     0.236 C 
HETATM   11  C   UNL     1      39.922 -15.760   1.506  1.00  0.00     0.028 C 
HETATM   12  C   UNL     1      39.933 -14.267   1.202  1.00  0.00     0.004 C 
HETATM   13  C   UNL     1      41.350 -13.687   1.236  1.00  0.00     0.041 C 
BRANCH   8  14
HETATM   14  C   UNL     1      43.045 -16.113   3.705  1.00  0.00     0.274 C 
BRANCH  14  15
HETATM   15  C   UNL     1      43.346 -17.582   3.627  1.00  0.00    -0.033 A 
HETATM   16  C   UNL     1      43.194 -18.278   2.417  1.00  0.00     0.009 A 
HETATM   17  C   UNL     1      43.492 -19.639   2.337  1.00  0.00     0.001 A 
HETATM   18  C   UNL     1      43.953 -20.319   3.459  1.00  0.00     0.000 A 
HETATM   19  C   UNL     1      44.129 -19.639   4.662  1.00  0.00     0.001 A 
HETATM   20  C   UNL     1      43.833 -18.277   4.746  1.00  0.00     0.009 A 
ENDBRANCH  14  15
ENDBRANCH   8  14
ENDBRANCH   5   7
BRANCH   4  21
HETATM   21  C   UNL     1      43.657 -12.822   5.118  1.00  0.00     0.115 C 
HETATM   22  C   UNL     1      43.840 -13.598   6.438  1.00  0.00     0.055 C 
HETATM   23  C   UNL     1      43.596 -12.767   7.696  1.00  0.00     0.236 C 
HETATM   24  N   UNL     1      44.412 -11.499   7.638  1.00  0.00    -0.075 N 
HETATM   25  H   UNL     1      45.409 -11.754   7.616  1.00  0.00     0.279 HD
HETATM   26  C   UNL     1      44.240 -10.688   8.904  1.00  0.00     0.269 C 
HETATM   27  C   UNL     1      44.093 -10.670   6.422  1.00  0.00     0.236 C 
HETATM   28  C   UNL     1      44.391 -11.477   5.163  1.00  0.00     0.055 C 
ENDBRANCH   4  21
TORSDOF 4
ENDMDL
MODEL 6
REMARK VINA RESULT:      -7.4      3.040      6.177
REMARK  4 active torsions:
REMARK  status: ('A' for Active; 'I' for Inactive)
REMARK    1  A    between atoms: N_4  and  C_5 
REMARK    2  A    between atoms: C_13  and  C_14 
REMARK    3  A    between atoms: N_15  and  C_17 
REMARK    4  A    between atoms: C_17  and  C_18 
ROOT
HETATM    1  C   UNL     1      36.415 -10.344   0.746  1.00  0.00     0.095 C 
HETATM    2  C   UNL     1      37.632 -11.122   1.058  1.00  0.00     0.144 A 
HETATM    3  N   UNL     1      38.161 -11.202   2.282  1.00  0.00    -0.156 NA
HETATM    4  N   UNL     1      39.207 -12.024   2.092  1.00  0.00    -0.247 N 
HETATM    5  C   UNL     1      39.341 -12.347   0.759  1.00  0.00     0.156 A 
HETATM    6  N   UNL     1      38.344 -11.786   0.102  1.00  0.00    -0.215 NA
ENDROOT
BRANCH   5   7
HETATM    7  C   UNL     1      40.476 -13.112   0.132  1.00  0.00     0.259 C 
HETATM    8  N   UNL     1      40.175 -14.532  -0.351  1.00  0.00    -0.056 N 
HETATM    9  H   UNL     1      41.044 -14.852  -0.794  1.00  0.00     0.281 HD
HETATM   10  C   UNL     1      39.159 -14.592  -1.469  1.00  0.00     0.236 C 
HETATM   11  C   UNL     1      39.687 -13.803  -2.661  1.00  0.00     0.028 C 
HETATM   12  C   UNL     1      40.084 -12.378  -2.296  1.00  0.00     0.004 C 
HETATM   13  C   UNL     1      41.024 -12.339  -1.087  1.00  0.00     0.041 C 
BRANCH   8  14
HETATM   14  C   UNL     1      39.964 -15.566   0.735  1.00  0.00     0.274 C 
BRANCH  14  15
HETATM   15  C   UNL     1      41.018 -15.697   1.795  1.00  0.00    -0.033 A 
HETATM   16  C   UNL     1      40.660 -15.909   3.136  1.00  0.00     0.009 A 
HETATM   17  C   UNL     1      41.639 -16.052   4.120  1.00  0.00     0.001 A 
HETATM   18  C   UNL     1      42.986 -15.994   3.778  1.00  0.00     0.000 A 
HETATM   19  C   UNL     1      43.359 -15.804   2.449  1.00  0.00     0.001 A 
HETATM   20  C   UNL     1      42.382 -15.663   1.461  1.00  0.00     0.009 A 
ENDBRANCH  14  15
ENDBRANCH   8  14
ENDBRANCH   5   7
BRANCH   4  21
HETATM   21  C   UNL     1      40.010 -12.397   3.251  1.00  0.00     0.115 C 
HETATM   22  C   UNL     1      39.414 -11.905   4.585  1.00  0.00     0.055 C 
HETATM   23  C   UNL     1      39.679 -10.431   4.887  1.00  0.00     0.236 C 
HETATM   24  N   UNL     1      41.154 -10.139   4.756  1.00  0.00    -0.075 N 
HETATM   25  H   UNL     1      41.661 -10.701   5.453  1.00  0.00     0.279 HD
HETATM   26  C   UNL     1      41.453  -8.700   5.116  1.00  0.00     0.269 C 
HETATM   27  C   UNL     1      41.681 -10.470   3.385  1.00  0.00     0.236 C 
HETATM   28  C   UNL     1      41.471 -11.954   3.103  1.00  0.00     0.055 C 
ENDBRANCH   4  21
TORSDOF 4
ENDMDL
MODEL 7
REMARK VINA RESULT:      -7.4      2.507      5.739
REMARK  4 active torsions:
REMARK  status: ('A' for Active; 'I' for Inactive)
REMARK    1  A    between atoms: N_4  and  C_5 
REMARK    2  A    between atoms: C_13  and  C_14 
REMARK    3  A    between atoms: N_15  and  C_17 
REMARK    4  A    between atoms: C_17  and  C_18 
ROOT
HETATM    1  C   UNL     1      43.984 -13.270   6.688  1.00  0.00     0.095 C 
HETATM    2  C   UNL     1      42.818 -13.416   5.793  1.00  0.00     0.144 A 
HETATM    3  N   UNL     1      41.673 -12.747   5.959  1.00  0.00    -0.156 NA
HETATM    4  N   UNL     1      40.939 -13.166   4.914  1.00  0.00    -0.247 N 
HETATM    5  C   UNL     1      41.611 -14.134   4.199  1.00  0.00     0.156 A 
HETATM    6  N   UNL     1      42.801 -14.291   4.745  1.00  0.00    -0.215 NA
ENDROOT
BRANCH   5   7
HETATM    7  C   UNL     1      41.059 -14.952   3.062  1.00  0.00     0.259 C 
HETATM    8  N   UNL     1      41.720 -14.775   1.694  1.00  0.00    -0.056 N 
HETATM    9  H   UNL     1      41.249 -15.452   1.082  1.00  0.00     0.281 HD
HETATM   10  C   UNL     1      43.169 -15.205   1.657  1.00  0.00     0.236 C 
HETATM   11  C   UNL     1      43.257 -16.681   2.023  1.00  0.00     0.028 C 
HETATM   12  C   UNL     1      42.576 -17.003   3.348  1.00  0.00     0.004 C 
HETATM   13  C   UNL     1      41.146 -16.455   3.403  1.00  0.00     0.041 C 
BRANCH   8  14
HETATM   14  C   UNL     1      41.446 -13.461   0.994  1.00  0.00     0.274 C 
BRANCH  14  15
HETATM   15  C   UNL     1      40.683 -13.499  -0.299  1.00  0.00    -0.033 A 
HETATM   16  C   UNL     1      39.825 -14.571  -0.591  1.00  0.00     0.009 A 
HETATM   17  C   UNL     1      39.100 -14.598  -1.782  1.00  0.00     0.001 A 
HETATM   18  C   UNL     1      39.215 -13.552  -2.693  1.00  0.00     0.000 A 
HETATM   19  C   UNL     1      40.046 -12.472  -2.410  1.00  0.00     0.001 A 
HETATM   20  C   UNL     1      40.772 -12.440  -1.218  1.00  0.00     0.009 A 
ENDBRANCH  14  15
ENDBRANCH   8  14
ENDBRANCH   5   7
BRANCH   4  21
HETATM   21  C   UNL     1      39.612 -12.590   4.730  1.00  0.00     0.115 C 
HETATM   22  C   UNL     1      39.490 -11.751   3.441  1.00  0.00     0.055 C 
HETATM   23  C   UNL     1      40.075 -10.344   3.549  1.00  0.00     0.236 C 
HETATM   24  N   UNL     1      39.513  -9.647   4.763  1.00  0.00    -0.075 N 
HETATM   25  H   UNL     1      38.494  -9.557   4.646  1.00  0.00     0.279 HD
HETATM   26  C   UNL     1      40.026  -8.226   4.856  1.00  0.00     0.269 C 
HETATM   27  C   UNL     1      39.793 -10.402   6.035  1.00  0.00     0.236 C 
HETATM   28  C   UNL     1      39.160 -11.787   5.955  1.00  0.00     0.055 C 
ENDBRANCH   4  21
TORSDOF 4
ENDMDL
MODEL 8
REMARK VINA RESULT:      -7.3      2.209      3.888
REMARK  4 active torsions:
REMARK  status: ('A' for Active; 'I' for Inactive)
REMARK    1  A    between atoms: N_4  and  C_5 
REMARK    2  A    between atoms: C_13  and  C_14 
REMARK    3  A    between atoms: N_15  and  C_17 
REMARK    4  A    between atoms: C_17  and  C_18 
ROOT
HETATM    1  C   UNL     1      42.077  -8.785  -0.563  1.00  0.00     0.095 C 
HETATM    2  C   UNL     1      41.482  -9.923   0.169  1.00  0.00     0.144 A 
HETATM    3  N   UNL     1      40.298 -10.460  -0.140  1.00  0.00    -0.156 NA
HETATM    4  N   UNL     1      40.193 -11.461   0.750  1.00  0.00    -0.247 N 
HETATM    5  C   UNL     1      41.258 -11.452   1.626  1.00  0.00     0.156 A 
HETATM    6  N   UNL     1      42.079 -10.488   1.259  1.00  0.00    -0.215 NA
ENDROOT
BRANCH   5   7
HETATM    7  C   UNL     1      41.417 -12.313   2.851  1.00  0.00     0.259 C 
HETATM    8  N   UNL     1      42.821 -12.840   3.152  1.00  0.00    -0.056 N 
HETATM    9  H   UNL     1      42.730 -13.342   4.043  1.00  0.00     0.281 HD
HETATM   10  C   UNL     1      43.827 -11.753   3.455  1.00  0.00     0.236 C 
HETATM   11  C   UNL     1      43.358 -10.968   4.673  1.00  0.00     0.028 C 
HETATM   12  C   UNL     1      41.938 -10.437   4.522  1.00  0.00     0.004 C 
HETATM   13  C   UNL     1      40.958 -11.537   4.104  1.00  0.00     0.041 C 
BRANCH   8  14
HETATM   14  C   UNL     1      43.334 -13.919   2.223  1.00  0.00     0.274 C 
BRANCH  14  15
HETATM   15  C   UNL     1      43.283 -15.342   2.701  1.00  0.00    -0.033 A 
HETATM   16  C   UNL     1      43.218 -15.632   4.073  1.00  0.00     0.009 A 
HETATM   17  C   UNL     1      43.150 -16.952   4.519  1.00  0.00     0.001 A 
HETATM   18  C   UNL     1      43.137 -17.998   3.602  1.00  0.00     0.000 A 
HETATM   19  C   UNL     1      43.181 -17.727   2.237  1.00  0.00     0.001 A 
HETATM   20  C   UNL     1      43.247 -16.407   1.787  1.00  0.00     0.009 A 
ENDBRANCH  14  15
ENDBRANCH   8  14
ENDBRANCH   5   7
BRANCH   4  21
HETATM   21  C   UNL     1      39.023 -12.328   0.677  1.00  0.00     0.115 C 
HETATM   22  C   UNL     1      39.381 -13.812   0.456  1.00  0.00     0.055 C 
HETATM   23  C   UNL     1      39.724 -14.168  -0.989  1.00  0.00     0.236 C 
HETATM   24  N   UNL     1      38.632 -13.681  -1.909  1.00  0.00    -0.075 N 
HETATM   25  H   UNL     1      37.757 -14.166  -1.663  1.00  0.00     0.279 HD
HETATM   26  C   UNL     1      38.915 -14.081  -3.341  1.00  0.00     0.269 C 
HETATM   27  C   UNL     1      38.414 -12.196  -1.800  1.00  0.00     0.236 C 
HETATM   28  C   UNL     1      38.014 -11.843  -0.371  1.00  0.00     0.055 C 
ENDBRANCH   4  21
TORSDOF 4
ENDMDL
MODEL 9
REMARK VINA RESULT:      -7.3      1.810      2.297
REMARK  4 active torsions:
REMARK  status: ('A' for Active; 'I' for Inactive)
REMARK    1  A    between atoms: N_4  and  C_5 
REMARK    2  A    between atoms: C_13  and  C_14 
REMARK    3  A    between atoms: N_15  and  C_17 
REMARK    4  A    between atoms: C_17  and  C_18 
ROOT
HETATM    1  C   UNL     1      44.835 -11.327   5.515  1.00  0.00     0.095 C 
HETATM    2  C   UNL     1      43.611 -11.941   4.957  1.00  0.00     0.144 A 
HETATM    3  N   UNL     1      42.607 -11.234   4.432  1.00  0.00    -0.156 NA
HETATM    4  N   UNL     1      41.755 -12.195   4.034  1.00  0.00    -0.247 N 
HETATM    5  C   UNL     1      42.213 -13.441   4.404  1.00  0.00     0.156 A 
HETATM    6  N   UNL     1      43.389 -13.287   4.980  1.00  0.00    -0.215 NA
ENDROOT
BRANCH   5   7
HETATM    7  C   UNL     1      41.469 -14.743   4.276  1.00  0.00     0.259 C 
HETATM    8  N   UNL     1      42.210 -16.012   4.702  1.00  0.00    -0.056 N 
HETATM    9  H   UNL     1      41.523 -16.768   4.599  1.00  0.00     0.281 HD
HETATM   10  C   UNL     1      42.563 -16.046   6.171  1.00  0.00     0.236 C 
HETATM   11  C   UNL     1      41.282 -15.965   6.991  1.00  0.00     0.028 C 
HETATM   12  C   UNL     1      40.417 -14.767   6.617  1.00  0.00     0.004 C 
HETATM   13  C   UNL     1      40.169 -14.691   5.107  1.00  0.00     0.041 C 
BRANCH   8  14
HETATM   14  C   UNL     1      43.327 -16.462   3.785  1.00  0.00     0.274 C 
BRANCH  14  15
HETATM   15  C   UNL     1      43.485 -17.935   3.540  1.00  0.00    -0.033 A 
HETATM   16  C   UNL     1      43.114 -18.498   2.308  1.00  0.00     0.009 A 
HETATM   17  C   UNL     1      43.279 -19.863   2.071  1.00  0.00     0.001 A 
HETATM   18  C   UNL     1      43.823 -20.681   3.055  1.00  0.00     0.000 A 
HETATM   19  C   UNL     1      44.216 -20.136   4.275  1.00  0.00     0.001 A 
HETATM   20  C   UNL     1      44.053 -18.770   4.515  1.00  0.00     0.009 A 
ENDBRANCH  14  15
ENDBRANCH   8  14
ENDBRANCH   5   7
BRANCH   4  21
HETATM   21  C   UNL     1      40.535 -11.791   3.344  1.00  0.00     0.115 C 
HETATM   22  C   UNL     1      40.331 -12.518   2.000  1.00  0.00     0.055 C 
HETATM   23  C   UNL     1      41.158 -11.954   0.847  1.00  0.00     0.236 C 
HETATM   24  N   UNL     1      40.950 -10.462   0.749  1.00  0.00    -0.075 N 
HETATM   25  H   UNL     1      39.957 -10.284   0.543  1.00  0.00     0.279 HD
HETATM   26  C   UNL     1      41.707  -9.887  -0.428  1.00  0.00     0.269 C 
HETATM   27  C   UNL     1      41.318  -9.750   2.023  1.00  0.00     0.236 C 
HETATM   28  C   UNL     1      40.453 -10.270   3.166  1.00  0.00     0.055 C 
ENDBRANCH   4  21
TORSDOF 4
ENDMDL
MODEL 10
REMARK VINA RESULT:      -7.3      2.487      3.698
REMARK  4 active torsions:
REMARK  status: ('A' for Active; 'I' for Inactive)
REMARK    1  A    between atoms: N_4  and  C_5 
REMARK    2  A    between atoms: C_13  and  C_14 
REMARK    3  A    between atoms: N_15  and  C_17 
REMARK    4  A    between atoms: C_17  and  C_18 
ROOT
HETATM    1  C   UNL     1      45.058 -11.864   6.831  1.00  0.00     0.095 C 
HETATM    2  C   UNL     1      43.929 -12.195   5.936  1.00  0.00     0.144 A 
HETATM    3  N   UNL     1      43.174 -11.274   5.331  1.00  0.00    -0.156 NA
HETATM    4  N   UNL     1      42.322 -12.025   4.613  1.00  0.00    -0.247 N 
HETATM    5  C   UNL     1      42.517 -13.366   4.865  1.00  0.00     0.156 A 
HETATM    6  N   UNL     1      43.536 -13.479   5.694  1.00  0.00    -0.215 NA
ENDROOT
BRANCH   5   7
HETATM    7  C   UNL     1      41.661 -14.504   4.375  1.00  0.00     0.259 C 
HETATM    8  N   UNL     1      42.151 -15.921   4.676  1.00  0.00    -0.056 N 
HETATM    9  H   UNL     1      41.411 -16.539   4.321  1.00  0.00     0.281 HD
HETATM   10  C   UNL     1      42.209 -16.244   6.152  1.00  0.00     0.236 C 
HETATM   11  C   UNL     1      40.813 -16.104   6.746  1.00  0.00     0.028 C 
HETATM   12  C   UNL     1      40.185 -14.745   6.460  1.00  0.00     0.004 C 
HETATM   13  C   UNL     1      40.242 -14.391   4.971  1.00  0.00     0.041 C 
BRANCH   8  14
HETATM   14  C   UNL     1      43.362 -16.381   3.893  1.00  0.00     0.274 C 
BRANCH  14  15
HETATM   15  C   UNL     1      43.492 -17.848   3.598  1.00  0.00    -0.033 A 
HETATM   16  C   UNL     1      43.126 -18.359   2.342  1.00  0.00     0.009 A 
HETATM   17  C   UNL     1      43.266 -19.718   2.059  1.00  0.00     0.001 A 
HETATM   18  C   UNL     1      43.781 -20.582   3.021  1.00  0.00     0.000 A 
HETATM   19  C   UNL     1      44.168 -20.088   4.264  1.00  0.00     0.001 A 
HETATM   20  C   UNL     1      44.030 -18.728   4.550  1.00  0.00     0.009 A 
ENDBRANCH  14  15
ENDBRANCH   8  14
ENDBRANCH   5   7
BRANCH   4  21
HETATM   21  C   UNL     1      41.358 -11.344   3.755  1.00  0.00     0.115 C 
HETATM   22  C   UNL     1      41.776  -9.904   3.399  1.00  0.00     0.055 C 
HETATM   23  C   UNL     1      41.506  -8.879   4.499  1.00  0.00     0.236 C 
HETATM   24  N   UNL     1      40.071  -8.982   4.954  1.00  0.00    -0.075 N 
HETATM   25  H   UNL     1      39.459  -8.758   4.157  1.00  0.00     0.279 HD
HETATM   26  C   UNL     1      39.758  -7.932   5.998  1.00  0.00     0.269 C 
HETATM   27  C   UNL     1      39.730 -10.359   5.459  1.00  0.00     0.236 C 
HETATM   28  C   UNL     1      39.942 -11.378   4.345  1.00  0.00     0.055 C 
ENDBRANCH   4  21
TORSDOF 4
ENDMDL
