MODEL 1
REMARK VINA RESULT:     -10.2      0.000      0.000
REMARK  6 active torsions:
REMARK  status: ('A' for Active; 'I' for Inactive)
REMARK    1  A    between atoms: C_6  and  O_7 
REMARK    2  A    between atoms: C_6  and  C_8 
REMARK    3  A    between atoms: C_8  and  N_9 
REMARK       I    between atoms: N_9  and  C_10 
REMARK    4  A    between atoms: C_10  and  C_11 
REMARK       I    between atoms: C_11  and  N_12 
REMARK    5  A    between atoms: N_12  and  C_13 
REMARK       I    between atoms: N_17  and  C_18 
REMARK    6  A    between atoms: C_18  and  C_19 
ROOT
HETATM    1  C   UNL     1      42.300 -11.019   3.942  1.00  0.00     0.313 C 
HETATM    2  N   UNL     1      42.767 -11.622   5.091  1.00  0.00    -0.319 N 
HETATM    3  O   UNL     1      42.007  -9.846   3.751  1.00  0.00    -0.262 OA
HETATM    4  H   UNL     1      43.008 -12.605   4.990  1.00  0.00     0.169 HD
ENDROOT
BRANCH   1   5
HETATM    5  C   UNL     1      42.137 -12.015   2.772  1.00  0.00     0.309 C 
HETATM    6  N   UNL     1      42.443 -13.305   3.121  1.00  0.00    -0.350 N 
HETATM    7  H   UNL     1      42.626 -13.485   4.109  1.00  0.00     0.163 HD
HETATM    8  O   UNL     1      41.788 -11.623   1.668  1.00  0.00    -0.262 OA
BRANCH   6   9
HETATM    9  C   UNL     1      42.421 -14.430   2.210  1.00  0.00     0.161 C 
BRANCH   9  10
HETATM   10  C   UNL     1      42.468 -15.769   2.983  1.00  0.00     0.078 C 
HETATM   11  C   UNL     1      42.876 -16.914   2.032  1.00  0.00     0.078 C 
HETATM   12  C   UNL     1      43.262 -18.197   2.735  1.00  0.00    -0.049 A 
HETATM   13  C   UNL     1      43.566 -18.224   4.107  1.00  0.00    -0.052 A 
HETATM   14  C   UNL     1      43.366 -19.379   1.986  1.00  0.00     0.007 A 
HETATM   15  C   UNL     1      43.928 -19.438   4.710  1.00  0.00     0.007 A 
HETATM   16  C   UNL     1      43.448 -16.992   4.967  1.00  0.00     0.042 C 
HETATM   17  C   UNL     1      44.016 -20.608   3.958  1.00  0.00     0.001 A 
HETATM   18  C   UNL     1      43.739 -20.577   2.594  1.00  0.00     0.001 A 
HETATM   19  C   UNL     1      43.453 -15.695   4.160  1.00  0.00     0.044 C 
BRANCH  10  20
HETATM   20  O   UNL     1      41.151 -16.002   3.518  1.00  0.00    -0.388 OA
HETATM   21  H   UNL     1      41.210 -16.711   4.182  1.00  0.00     0.210 HD
ENDBRANCH  10  20
ENDBRANCH   9  10
ENDBRANCH   6   9
ENDBRANCH   1   5
BRANCH   2  22
HETATM   22  C   UNL     1      42.916 -11.031   6.357  1.00  0.00     0.035 A 
HETATM   23  C   UNL     1      44.102 -11.062   7.086  1.00  0.00     0.039 A 
HETATM   24  C   UNL     1      44.211 -10.416   8.334  1.00  0.00    -0.029 A 
HETATM   25  C   UNL     1      43.105  -9.746   8.897  1.00  0.00     0.043 A 
HETATM   26  C   UNL     1      45.541 -10.498   9.036  1.00  0.00     0.042 C 
HETATM   27  N   UNL     1      43.214  -9.138  10.203  1.00  0.00    -0.313 N 
HETATM   28  C   UNL     1      41.914  -9.742   8.157  1.00  0.00     0.032 A 
HETATM   29  C   UNL     1      42.199  -8.318  10.759  1.00  0.00     0.265 C 
HETATM   30  C   UNL     1      44.466  -9.356  10.938  1.00  0.00     0.133 C 
HETATM   31  O   UNL     1      41.360  -7.732  10.075  1.00  0.00    -0.267 OA
HETATM   32  C   UNL     1      45.687  -9.371  10.037  1.00  0.00     0.025 C 
HETATM   33  C   UNL     1      41.824 -10.361   6.900  1.00  0.00     0.032 A 
BRANCH  29  34
HETATM   34  C   UNL     1      42.188  -8.189  12.215  1.00  0.00     0.073 A 
HETATM   35  S   UNL     1      41.382  -9.374  13.156  1.00  0.00    -0.097 SA
HETATM   36  C   UNL     1      41.775  -8.577  14.617  1.00  0.00     0.050 A 
HETATM   37  C   UNL     1      42.533  -7.447  14.403  1.00  0.00     0.009 A 
HETATM   38  C   UNL     1      42.785  -7.231  13.016  1.00  0.00     0.025 A 
ENDBRANCH  29  34
ENDBRANCH   2  22
TORSDOF 6
ENDMDL
MODEL 2
REMARK VINA RESULT:     -10.1      3.396     11.195
REMARK  6 active torsions:
REMARK  status: ('A' for Active; 'I' for Inactive)
REMARK    1  A    between atoms: C_6  and  O_7 
REMARK    2  A    between atoms: C_6  and  C_8 
REMARK    3  A    between atoms: C_8  and  N_9 
REMARK       I    between atoms: N_9  and  C_10 
REMARK    4  A    between atoms: C_10  and  C_11 
REMARK       I    between atoms: C_11  and  N_12 
REMARK    5  A    between atoms: N_12  and  C_13 
REMARK       I    between atoms: N_17  and  C_18 
REMARK    6  A    between atoms: C_18  and  C_19 
ROOT
HETATM    1  C   UNL     1      39.986 -11.416   6.610  1.00  0.00     0.313 C 
HETATM    2  N   UNL     1      41.301 -11.806   6.466  1.00  0.00    -0.319 N 
HETATM    3  O   UNL     1      38.967 -11.989   6.245  1.00  0.00    -0.262 OA
HETATM    4  H   UNL     1      41.979 -11.195   6.913  1.00  0.00     0.169 HD
ENDROOT
BRANCH   1   5
HETATM    5  C   UNL     1      39.844 -10.057   7.330  1.00  0.00     0.309 C 
HETATM    6  N   UNL     1      40.953  -9.722   8.063  1.00  0.00    -0.350 N 
HETATM    7  H   UNL     1      41.770 -10.326   7.967  1.00  0.00     0.163 HD
HETATM    8  O   UNL     1      38.814  -9.406   7.231  1.00  0.00    -0.262 OA
BRANCH   6   9
HETATM    9  C   UNL     1      41.073  -8.528   8.873  1.00  0.00     0.161 C 
BRANCH   9  10
HETATM   10  C   UNL     1      41.298  -8.888  10.361  1.00  0.00     0.078 C 
HETATM   11  C   UNL     1      42.026  -7.733  11.079  1.00  0.00     0.078 C 
HETATM   12  C   UNL     1      42.014  -7.835  12.589  1.00  0.00    -0.049 A 
HETATM   13  C   UNL     1      41.126  -8.689  13.264  1.00  0.00    -0.052 A 
HETATM   14  C   UNL     1      42.879  -7.018  13.334  1.00  0.00     0.007 A 
HETATM   15  C   UNL     1      41.147  -8.741  14.665  1.00  0.00     0.007 A 
HETATM   16  C   UNL     1      40.191  -9.606  12.517  1.00  0.00     0.042 C 
HETATM   17  C   UNL     1      42.019  -7.934  15.394  1.00  0.00     0.001 A 
HETATM   18  C   UNL     1      42.882  -7.069  14.727  1.00  0.00     0.001 A 
HETATM   19  C   UNL     1      39.966  -9.181  11.068  1.00  0.00     0.044 C 
BRANCH  10  20
HETATM   20  O   UNL     1      42.096 -10.087  10.396  1.00  0.00    -0.388 OA
HETATM   21  H   UNL     1      41.788 -10.639  11.137  1.00  0.00     0.210 HD
ENDBRANCH  10  20
ENDBRANCH   9  10
ENDBRANCH   6   9
ENDBRANCH   1   5
BRANCH   2  22
HETATM   22  C   UNL     1      41.780 -12.923   5.761  1.00  0.00     0.035 A 
HETATM   23  C   UNL     1      41.890 -12.969   4.374  1.00  0.00     0.039 A 
HETATM   24  C   UNL     1      42.419 -14.099   3.718  1.00  0.00    -0.029 A 
HETATM   25  C   UNL     1      42.820 -15.235   4.451  1.00  0.00     0.043 A 
HETATM   26  C   UNL     1      42.508 -14.043   2.215  1.00  0.00     0.042 C 
HETATM   27  N   UNL     1      43.305 -16.408   3.763  1.00  0.00    -0.313 N 
HETATM   28  C   UNL     1      42.683 -15.178   5.846  1.00  0.00     0.032 A 
HETATM   29  C   UNL     1      43.870 -17.520   4.438  1.00  0.00     0.265 C 
HETATM   30  C   UNL     1      43.243 -16.394   2.295  1.00  0.00     0.133 C 
HETATM   31  O   UNL     1      44.361 -17.443   5.563  1.00  0.00    -0.267 OA
HETATM   32  C   UNL     1      43.537 -15.028   1.704  1.00  0.00     0.025 C 
HETATM   33  C   UNL     1      42.186 -14.036   6.493  1.00  0.00     0.032 A 
BRANCH  29  34
HETATM   34  C   UNL     1      43.851 -18.796   3.725  1.00  0.00     0.073 A 
HETATM   35  S   UNL     1      44.190 -20.241   4.584  1.00  0.00    -0.097 SA
HETATM   36  C   UNL     1      44.001 -21.198   3.180  1.00  0.00     0.050 A 
HETATM   37  C   UNL     1      43.653 -20.444   2.082  1.00  0.00     0.009 A 
HETATM   38  C   UNL     1      43.551 -19.058   2.399  1.00  0.00     0.025 A 
ENDBRANCH  29  34
ENDBRANCH   2  22
TORSDOF 6
ENDMDL
MODEL 3
REMARK VINA RESULT:      -9.8      1.108      1.789
REMARK  6 active torsions:
REMARK  status: ('A' for Active; 'I' for Inactive)
REMARK    1  A    between atoms: C_6  and  O_7 
REMARK    2  A    between atoms: C_6  and  C_8 
REMARK    3  A    between atoms: C_8  and  N_9 
REMARK       I    between atoms: N_9  and  C_10 
REMARK    4  A    between atoms: C_10  and  C_11 
REMARK       I    between atoms: C_11  and  N_12 
REMARK    5  A    between atoms: N_12  and  C_13 
REMARK       I    between atoms: N_17  and  C_18 
REMARK    6  A    between atoms: C_18  and  C_19 
ROOT
HETATM    1  C   UNL     1      42.060 -10.241   3.739  1.00  0.00     0.313 C 
HETATM    2  N   UNL     1      42.749 -10.885   4.746  1.00  0.00    -0.319 N 
HETATM    3  O   UNL     1      41.522  -9.142   3.754  1.00  0.00    -0.262 OA
HETATM    4  H   UNL     1      43.170 -11.771   4.477  1.00  0.00     0.169 HD
ENDROOT
BRANCH   1   5
HETATM    5  C   UNL     1      41.984 -11.077   2.442  1.00  0.00     0.309 C 
HETATM    6  N   UNL     1      41.878 -12.423   2.679  1.00  0.00    -0.350 N 
HETATM    7  H   UNL     1      41.748 -12.713   3.649  1.00  0.00     0.163 HD
HETATM    8  O   UNL     1      42.040 -10.533   1.349  1.00  0.00    -0.262 OA
BRANCH   6   9
HETATM    9  C   UNL     1      41.836 -13.438   1.647  1.00  0.00     0.161 C 
BRANCH   9  10
HETATM   10  C   UNL     1      42.653 -14.684   2.063  1.00  0.00     0.078 C 
HETATM   11  C   UNL     1      42.776 -14.747   3.600  1.00  0.00     0.078 C 
HETATM   12  C   UNL     1      43.271 -16.074   4.130  1.00  0.00    -0.049 A 
HETATM   13  C   UNL     1      43.268 -17.234   3.335  1.00  0.00    -0.052 A 
HETATM   14  C   UNL     1      43.698 -16.159   5.464  1.00  0.00     0.007 A 
HETATM   15  C   UNL     1      43.729 -18.443   3.876  1.00  0.00     0.007 A 
HETATM   16  C   UNL     1      42.844 -17.199   1.889  1.00  0.00     0.042 C 
HETATM   17  C   UNL     1      44.161 -18.512   5.199  1.00  0.00     0.001 A 
HETATM   18  C   UNL     1      44.142 -17.370   5.994  1.00  0.00     0.001 A 
HETATM   19  C   UNL     1      42.001 -15.974   1.541  1.00  0.00     0.044 C 
BRANCH  10  20
HETATM   20  O   UNL     1      43.955 -14.566   1.457  1.00  0.00    -0.388 OA
HETATM   21  H   UNL     1      44.626 -14.797   2.123  1.00  0.00     0.210 HD
ENDBRANCH  10  20
ENDBRANCH   9  10
ENDBRANCH   6   9
ENDBRANCH   1   5
BRANCH   2  22
HETATM   22  C   UNL     1      42.901 -10.457   6.076  1.00  0.00     0.035 A 
HETATM   23  C   UNL     1      44.049 -10.683   6.830  1.00  0.00     0.039 A 
HETATM   24  C   UNL     1      44.168 -10.195   8.147  1.00  0.00    -0.029 A 
HETATM   25  C   UNL     1      43.107  -9.490   8.752  1.00  0.00     0.043 A 
HETATM   26  C   UNL     1      45.456 -10.482   8.873  1.00  0.00     0.042 C 
HETATM   27  N   UNL     1      43.219  -9.047  10.122  1.00  0.00    -0.313 N 
HETATM   28  C   UNL     1      41.952  -9.290   7.983  1.00  0.00     0.032 A 
HETATM   29  C   UNL     1      42.263  -8.201  10.739  1.00  0.00     0.265 C 
HETATM   30  C   UNL     1      44.417  -9.465  10.863  1.00  0.00     0.133 C 
HETATM   31  O   UNL     1      41.509  -7.465  10.105  1.00  0.00    -0.267 OA
HETATM   32  C   UNL     1      45.665  -9.495  10.001  1.00  0.00     0.025 C 
HETATM   33  C   UNL     1      41.854  -9.751   6.662  1.00  0.00     0.032 A 
BRANCH  29  34
HETATM   34  C   UNL     1      42.206  -8.236  12.200  1.00  0.00     0.073 A 
HETATM   35  S   UNL     1      41.403  -9.536  12.977  1.00  0.00    -0.097 SA
HETATM   36  C   UNL     1      41.733  -8.899  14.529  1.00  0.00     0.050 A 
HETATM   37  C   UNL     1      42.469  -7.738  14.467  1.00  0.00     0.009 A 
HETATM   38  C   UNL     1      42.756  -7.361  13.121  1.00  0.00     0.025 A 
ENDBRANCH  29  34
ENDBRANCH   2  22
TORSDOF 6
ENDMDL
MODEL 4
REMARK VINA RESULT:      -9.6      3.025      4.605
REMARK  6 active torsions:
REMARK  status: ('A' for Active; 'I' for Inactive)
REMARK    1  A    between atoms: C_6  and  O_7 
REMARK    2  A    between atoms: C_6  and  C_8 
REMARK    3  A    between atoms: C_8  and  N_9 
REMARK       I    between atoms: N_9  and  C_10 
REMARK    4  A    between atoms: C_10  and  C_11 
REMARK       I    between atoms: C_11  and  N_12 
REMARK    5  A    between atoms: N_12  and  C_13 
REMARK       I    between atoms: N_17  and  C_18 
REMARK    6  A    between atoms: C_18  and  C_19 
ROOT
HETATM    1  C   UNL     1      40.059  -9.714   8.069  1.00  0.00     0.313 C 
HETATM    2  N   UNL     1      39.616  -9.993   9.344  1.00  0.00    -0.319 N 
HETATM    3  O   UNL     1      40.926  -8.928   7.709  1.00  0.00    -0.262 OA
HETATM    4  H   UNL     1      38.928 -10.739   9.404  1.00  0.00     0.169 HD
ENDROOT
BRANCH   1   5
HETATM    5  C   UNL     1      39.316 -10.530   6.989  1.00  0.00     0.309 C 
HETATM    6  N   UNL     1      40.004 -11.649   6.597  1.00  0.00    -0.350 N 
HETATM    7  H   UNL     1      40.847 -11.881   7.122  1.00  0.00     0.163 HD
HETATM    8  O   UNL     1      38.238 -10.150   6.556  1.00  0.00    -0.262 OA
BRANCH   6   9
HETATM    9  C   UNL     1      39.561 -12.568   5.568  1.00  0.00     0.161 C 
BRANCH   9  10
HETATM   10  C   UNL     1      40.391 -13.872   5.597  1.00  0.00     0.078 C 
HETATM   11  C   UNL     1      40.530 -14.442   4.170  1.00  0.00     0.078 C 
HETATM   12  C   UNL     1      41.577 -15.526   4.032  1.00  0.00    -0.049 A 
HETATM   13  C   UNL     1      42.562 -15.729   5.014  1.00  0.00    -0.052 A 
HETATM   14  C   UNL     1      41.593 -16.315   2.871  1.00  0.00     0.007 A 
HETATM   15  C   UNL     1      43.516 -16.742   4.836  1.00  0.00     0.007 A 
HETATM   16  C   UNL     1      42.580 -14.930   6.292  1.00  0.00     0.042 C 
HETATM   17  C   UNL     1      43.514 -17.526   3.683  1.00  0.00     0.001 A 
HETATM   18  C   UNL     1      42.554 -17.309   2.700  1.00  0.00     0.001 A 
HETATM   19  C   UNL     1      41.785 -13.630   6.197  1.00  0.00     0.044 C 
BRANCH  10  20
HETATM   20  O   UNL     1      39.697 -14.805   6.447  1.00  0.00    -0.388 OA
HETATM   21  H   UNL     1      39.728 -14.470   7.360  1.00  0.00     0.210 HD
ENDBRANCH  10  20
ENDBRANCH   9  10
ENDBRANCH   6   9
ENDBRANCH   1   5
BRANCH   2  22
HETATM   22  C   UNL     1      39.996  -9.348  10.534  1.00  0.00     0.035 A 
HETATM   23  C   UNL     1      41.301  -9.341  11.022  1.00  0.00     0.039 A 
HETATM   24  C   UNL     1      41.639  -8.642  12.198  1.00  0.00    -0.029 A 
HETATM   25  C   UNL     1      40.652  -7.955  12.936  1.00  0.00     0.043 A 
HETATM   26  C   UNL     1      43.079  -8.686  12.635  1.00  0.00     0.042 C 
HETATM   27  N   UNL     1      41.001  -7.292  14.170  1.00  0.00    -0.313 N 
HETATM   28  C   UNL     1      39.341  -7.990  12.439  1.00  0.00     0.032 A 
HETATM   29  C   UNL     1      40.101  -6.455  14.877  1.00  0.00     0.265 C 
HETATM   30  C   UNL     1      42.374  -7.472  14.660  1.00  0.00     0.133 C 
HETATM   31  O   UNL     1      39.138  -5.903  14.345  1.00  0.00    -0.267 OA
HETATM   32  C   UNL     1      43.399  -7.518  13.542  1.00  0.00     0.025 C 
HETATM   33  C   UNL     1      39.020  -8.661  11.249  1.00  0.00     0.032 A 
BRANCH  29  34
HETATM   34  C   UNL     1      40.367  -6.264  16.302  1.00  0.00     0.073 A 
HETATM   35  S   UNL     1      40.999  -4.764  16.843  1.00  0.00    -0.097 SA
HETATM   36  C   UNL     1      41.039  -5.292  18.468  1.00  0.00     0.050 A 
HETATM   37  C   UNL     1      40.552  -6.571  18.610  1.00  0.00     0.009 A 
HETATM   38  C   UNL     1      40.149  -7.128  17.360  1.00  0.00     0.025 A 
ENDBRANCH  29  34
ENDBRANCH   2  22
TORSDOF 6
ENDMDL
MODEL 5
REMARK VINA RESULT:      -9.4      5.782      9.880
REMARK  6 active torsions:
REMARK  status: ('A' for Active; 'I' for Inactive)
REMARK    1  A    between atoms: C_6  and  O_7 
REMARK    2  A    between atoms: C_6  and  C_8 
REMARK    3  A    between atoms: C_8  and  N_9 
REMARK       I    between atoms: N_9  and  C_10 
REMARK    4  A    between atoms: C_10  and  C_11 
REMARK       I    between atoms: C_11  and  N_12 
REMARK    5  A    between atoms: N_12  and  C_13 
REMARK       I    between atoms: N_17  and  C_18 
REMARK    6  A    between atoms: C_18  and  C_19 
ROOT
HETATM    1  C   UNL     1      42.380 -11.985   3.163  1.00  0.00     0.313 C 
HETATM    2  N   UNL     1      41.238 -12.683   2.830  1.00  0.00    -0.319 N 
HETATM    3  O   UNL     1      42.868 -11.001   2.621  1.00  0.00    -0.262 OA
HETATM    4  H   UNL     1      40.993 -13.431   3.473  1.00  0.00     0.169 HD
ENDROOT
BRANCH   1   5
HETATM    5  C   UNL     1      43.103 -12.578   4.392  1.00  0.00     0.309 C 
HETATM    6  N   UNL     1      42.726 -13.868   4.662  1.00  0.00    -0.350 N 
HETATM    7  H   UNL     1      42.118 -14.325   3.981  1.00  0.00     0.163 HD
HETATM    8  O   UNL     1      43.902 -11.906   5.027  1.00  0.00    -0.262 OA
BRANCH   6   9
HETATM    9  C   UNL     1      43.211 -14.649   5.782  1.00  0.00     0.161 C 
BRANCH   9  10
HETATM   10  C   UNL     1      43.053 -16.163   5.510  1.00  0.00     0.078 C 
HETATM   11  C   UNL     1      43.198 -16.447   4.001  1.00  0.00     0.078 C 
HETATM   12  C   UNL     1      43.381 -17.909   3.658  1.00  0.00    -0.049 A 
HETATM   13  C   UNL     1      43.744 -18.856   4.632  1.00  0.00    -0.052 A 
HETATM   14  C   UNL     1      43.231 -18.321   2.324  1.00  0.00     0.007 A 
HETATM   15  C   UNL     1      43.910 -20.199   4.262  1.00  0.00     0.007 A 
HETATM   16  C   UNL     1      43.895 -18.477   6.083  1.00  0.00     0.042 C 
HETATM   17  C   UNL     1      43.747 -20.597   2.936  1.00  0.00     0.001 A 
HETATM   18  C   UNL     1      43.411 -19.656   1.967  1.00  0.00     0.001 A 
HETATM   19  C   UNL     1      44.094 -16.978   6.294  1.00  0.00     0.044 C 
BRANCH  10  20
HETATM   20  O   UNL     1      41.744 -16.549   5.973  1.00  0.00    -0.388 OA
HETATM   21  H   UNL     1      41.610 -17.490   5.763  1.00  0.00     0.210 HD
ENDBRANCH  10  20
ENDBRANCH   9  10
ENDBRANCH   6   9
ENDBRANCH   1   5
BRANCH   2  22
HETATM   22  C   UNL     1      40.419 -12.479   1.707  1.00  0.00     0.035 A 
HETATM   23  C   UNL     1      40.372 -13.350   0.621  1.00  0.00     0.039 A 
HETATM   24  C   UNL     1      39.500 -13.123  -0.463  1.00  0.00    -0.029 A 
HETATM   25  C   UNL     1      38.670 -11.982  -0.493  1.00  0.00     0.043 A 
HETATM   26  C   UNL     1      39.516 -14.130  -1.582  1.00  0.00     0.042 C 
HETATM   27  N   UNL     1      37.825 -11.730  -1.636  1.00  0.00    -0.313 N 
HETATM   28  C   UNL     1      38.746 -11.107   0.601  1.00  0.00     0.032 A 
HETATM   29  C   UNL     1      36.856 -10.696  -1.665  1.00  0.00     0.265 C 
HETATM   30  C   UNL     1      37.964 -12.639  -2.782  1.00  0.00     0.133 C 
HETATM   31  O   UNL     1      36.369 -10.202  -0.648  1.00  0.00    -0.267 OA
HETATM   32  C   UNL     1      38.225 -14.075  -2.369  1.00  0.00     0.025 C 
HETATM   33  C   UNL     1      39.594 -11.358   1.690  1.00  0.00     0.032 A 
BRANCH  29  34
HETATM   34  C   UNL     1      36.441 -10.226  -2.986  1.00  0.00     0.073 A 
HETATM   35  S   UNL     1      37.481  -9.190  -3.872  1.00  0.00    -0.097 SA
HETATM   36  C   UNL     1      36.379  -9.088  -5.175  1.00  0.00     0.050 A 
HETATM   37  C   UNL     1      35.253  -9.851  -4.962  1.00  0.00     0.009 A 
HETATM   38  C   UNL     1      35.295 -10.521  -3.704  1.00  0.00     0.025 A 
ENDBRANCH  29  34
ENDBRANCH   2  22
TORSDOF 6
ENDMDL
MODEL 6
REMARK VINA RESULT:      -9.3      5.683      9.482
REMARK  6 active torsions:
REMARK  status: ('A' for Active; 'I' for Inactive)
REMARK    1  A    between atoms: C_6  and  O_7 
REMARK    2  A    between atoms: C_6  and  C_8 
REMARK    3  A    between atoms: C_8  and  N_9 
REMARK       I    between atoms: N_9  and  C_10 
REMARK    4  A    between atoms: C_10  and  C_11 
REMARK       I    between atoms: C_11  and  N_12 
REMARK    5  A    between atoms: N_12  and  C_13 
REMARK       I    between atoms: N_17  and  C_18 
REMARK    6  A    between atoms: C_18  and  C_19 
ROOT
HETATM    1  C   UNL     1      40.213 -12.360   3.858  1.00  0.00     0.313 C 
HETATM    2  N   UNL     1      41.171 -12.390   2.867  1.00  0.00    -0.319 N 
HETATM    3  O   UNL     1      39.112 -11.823   3.850  1.00  0.00    -0.262 OA
HETATM    4  H   UNL     1      41.986 -12.961   3.078  1.00  0.00     0.169 HD
ENDROOT
BRANCH   1   5
HETATM    5  C   UNL     1      40.649 -13.117   5.131  1.00  0.00     0.309 C 
HETATM    6  N   UNL     1      41.999 -13.352   5.178  1.00  0.00    -0.350 N 
HETATM    7  H   UNL     1      42.569 -12.916   4.451  1.00  0.00     0.163 HD
HETATM    8  O   UNL     1      39.822 -13.462   5.963  1.00  0.00    -0.262 OA
BRANCH   6   9
HETATM    9  C   UNL     1      42.671 -14.080   6.233  1.00  0.00     0.161 C 
BRANCH   9  10
HETATM   10  C   UNL     1      42.707 -15.595   5.923  1.00  0.00     0.078 C 
HETATM   11  C   UNL     1      42.793 -15.821   4.399  1.00  0.00     0.078 C 
HETATM   12  C   UNL     1      43.153 -17.235   4.000  1.00  0.00    -0.049 A 
HETATM   13  C   UNL     1      43.705 -18.144   4.919  1.00  0.00    -0.052 A 
HETATM   14  C   UNL     1      42.976 -17.633   2.665  1.00  0.00     0.007 A 
HETATM   15  C   UNL     1      44.031 -19.442   4.498  1.00  0.00     0.007 A 
HETATM   16  C   UNL     1      43.895 -17.782   6.370  1.00  0.00     0.042 C 
HETATM   17  C   UNL     1      43.840 -19.828   3.172  1.00  0.00     0.001 A 
HETATM   18  C   UNL     1      43.316 -18.921   2.255  1.00  0.00     0.001 A 
HETATM   19  C   UNL     1      43.899 -16.275   6.616  1.00  0.00     0.044 C 
BRANCH  10  20
HETATM   20  O   UNL     1      41.497 -16.171   6.452  1.00  0.00    -0.388 OA
HETATM   21  H   UNL     1      41.026 -15.486   6.958  1.00  0.00     0.210 HD
ENDBRANCH  10  20
ENDBRANCH   9  10
ENDBRANCH   6   9
ENDBRANCH   1   5
BRANCH   2  22
HETATM   22  C   UNL     1      41.141 -11.709   1.638  1.00  0.00     0.035 A 
HETATM   23  C   UNL     1      40.924 -12.339   0.415  1.00  0.00     0.039 A 
HETATM   24  C   UNL     1      40.860 -11.604  -0.786  1.00  0.00    -0.029 A 
HETATM   25  C   UNL     1      41.051 -10.206  -0.785  1.00  0.00     0.043 A 
HETATM   26  C   UNL     1      40.608 -12.377  -2.053  1.00  0.00     0.042 C 
HETATM   27  N   UNL     1      41.041  -9.473  -2.029  1.00  0.00    -0.313 N 
HETATM   28  C   UNL     1      41.288  -9.593   0.454  1.00  0.00     0.032 A 
HETATM   29  C   UNL     1      41.068  -8.057  -2.090  1.00  0.00     0.265 C 
HETATM   30  C   UNL     1      40.946 -10.259  -3.267  1.00  0.00     0.133 C 
HETATM   31  O   UNL     1      40.704  -7.338  -1.159  1.00  0.00    -0.267 OA
HETATM   32  C   UNL     1      40.046 -11.473  -3.128  1.00  0.00     0.025 C 
HETATM   33  C   UNL     1      41.317 -10.329   1.648  1.00  0.00     0.032 A 
BRANCH  29  34
HETATM   34  C   UNL     1      41.554  -7.464  -3.335  1.00  0.00     0.073 A 
HETATM   35  S   UNL     1      40.428  -6.783  -4.434  1.00  0.00    -0.097 SA
HETATM   36  C   UNL     1      41.663  -6.355  -5.536  1.00  0.00     0.050 A 
HETATM   37  C   UNL     1      42.914  -6.691  -5.069  1.00  0.00     0.009 A 
HETATM   38  C   UNL     1      42.853  -7.318  -3.790  1.00  0.00     0.025 A 
ENDBRANCH  29  34
ENDBRANCH   2  22
TORSDOF 6
ENDMDL
MODEL 7
REMARK VINA RESULT:      -9.3      3.052      5.040
REMARK  6 active torsions:
REMARK  status: ('A' for Active; 'I' for Inactive)
REMARK    1  A    between atoms: C_6  and  O_7 
REMARK    2  A    between atoms: C_6  and  C_8 
REMARK    3  A    between atoms: C_8  and  N_9 
REMARK       I    between atoms: N_9  and  C_10 
REMARK    4  A    between atoms: C_10  and  C_11 
REMARK       I    between atoms: C_11  and  N_12 
REMARK    5  A    between atoms: N_12  and  C_13 
REMARK       I    between atoms: N_17  and  C_18 
REMARK    6  A    between atoms: C_18  and  C_19 
ROOT
HETATM    1  C   UNL     1      43.666 -10.313   8.382  1.00  0.00     0.313 C 
HETATM    2  N   UNL     1      43.443 -10.546   9.722  1.00  0.00    -0.319 N 
HETATM    3  O   UNL     1      43.478  -9.291   7.735  1.00  0.00    -0.262 OA
HETATM    4  H   UNL     1      43.741 -11.460  10.053  1.00  0.00     0.169 HD
ENDROOT
BRANCH   1   5
HETATM    5  C   UNL     1      44.222 -11.553   7.647  1.00  0.00     0.309 C 
HETATM    6  N   UNL     1      43.277 -12.527   7.452  1.00  0.00    -0.350 N 
HETATM    7  H   UNL     1      42.314 -12.293   7.699  1.00  0.00     0.163 HD
HETATM    8  O   UNL     1      45.398 -11.606   7.319  1.00  0.00    -0.262 OA
BRANCH   6   9
HETATM    9  C   UNL     1      43.535 -13.810   6.833  1.00  0.00     0.161 C 
BRANCH   9  10
HETATM   10  C   UNL     1      42.392 -14.197   5.865  1.00  0.00     0.078 C 
HETATM   11  C   UNL     1      42.738 -13.746   4.431  1.00  0.00     0.078 C 
HETATM   12  C   UNL     1      41.854 -14.347   3.360  1.00  0.00    -0.049 A 
HETATM   13  C   UNL     1      41.048 -15.469   3.613  1.00  0.00    -0.052 A 
HETATM   14  C   UNL     1      41.879 -13.797   2.069  1.00  0.00     0.007 A 
HETATM   15  C   UNL     1      40.252 -15.995   2.584  1.00  0.00     0.007 A 
HETATM   16  C   UNL     1      40.962 -16.087   4.985  1.00  0.00     0.042 C 
HETATM   17  C   UNL     1      40.277 -15.433   1.308  1.00  0.00     0.001 A 
HETATM   18  C   UNL     1      41.093 -14.336   1.050  1.00  0.00     0.001 A 
HETATM   19  C   UNL     1      42.137 -15.712   5.886  1.00  0.00     0.044 C 
BRANCH  10  20
HETATM   20  O   UNL     1      41.197 -13.538   6.326  1.00  0.00    -0.388 OA
HETATM   21  H   UNL     1      41.191 -13.557   7.299  1.00  0.00     0.210 HD
ENDBRANCH  10  20
ENDBRANCH   9  10
ENDBRANCH   6   9
ENDBRANCH   1   5
BRANCH   2  22
HETATM   22  C   UNL     1      42.839  -9.674  10.644  1.00  0.00     0.035 A 
HETATM   23  C   UNL     1      41.473  -9.404  10.666  1.00  0.00     0.039 A 
HETATM   24  C   UNL     1      40.911  -8.554  11.641  1.00  0.00    -0.029 A 
HETATM   25  C   UNL     1      41.726  -7.923  12.603  1.00  0.00     0.043 A 
HETATM   26  C   UNL     1      39.422  -8.337  11.586  1.00  0.00     0.042 C 
HETATM   27  N   UNL     1      41.146  -7.009  13.558  1.00  0.00    -0.313 N 
HETATM   28  C   UNL     1      43.102  -8.193  12.552  1.00  0.00     0.032 A 
HETATM   29  C   UNL     1      41.874  -6.465  14.646  1.00  0.00     0.265 C 
HETATM   30  C   UNL     1      39.721  -6.692  13.397  1.00  0.00     0.133 C 
HETATM   31  O   UNL     1      42.883  -6.995  15.110  1.00  0.00    -0.267 OA
HETATM   32  C   UNL     1      38.899  -7.879  12.931  1.00  0.00     0.025 C 
HETATM   33  C   UNL     1      43.649  -9.065  11.599  1.00  0.00     0.032 A 
BRANCH  29  34
HETATM   34  C   UNL     1      41.365  -5.218  15.216  1.00  0.00     0.073 A 
HETATM   35  S   UNL     1      40.757  -5.215  16.818  1.00  0.00    -0.097 SA
HETATM   36  C   UNL     1      40.380  -3.549  16.743  1.00  0.00     0.050 A 
HETATM   37  C   UNL     1      40.739  -2.991  15.536  1.00  0.00     0.009 A 
HETATM   38  C   UNL     1      41.322  -3.952  14.659  1.00  0.00     0.025 A 
ENDBRANCH  29  34
ENDBRANCH   2  22
TORSDOF 6
ENDMDL
MODEL 8
REMARK VINA RESULT:      -9.2      2.047      2.292
REMARK  6 active torsions:
REMARK  status: ('A' for Active; 'I' for Inactive)
REMARK    1  A    between atoms: C_6  and  O_7 
REMARK    2  A    between atoms: C_6  and  C_8 
REMARK    3  A    between atoms: C_8  and  N_9 
REMARK       I    between atoms: N_9  and  C_10 
REMARK    4  A    between atoms: C_10  and  C_11 
REMARK       I    between atoms: C_11  and  N_12 
REMARK    5  A    between atoms: N_12  and  C_13 
REMARK       I    between atoms: N_17  and  C_18 
REMARK    6  A    between atoms: C_18  and  C_19 
ROOT
HETATM    1  C   UNL     1      39.396 -10.839   4.491  1.00  0.00     0.313 C 
HETATM    2  N   UNL     1      40.324 -11.160   5.459  1.00  0.00    -0.319 N 
HETATM    3  O   UNL     1      38.673  -9.855   4.411  1.00  0.00    -0.262 OA
HETATM    4  H   UNL     1      40.858 -12.005   5.277  1.00  0.00     0.169 HD
ENDROOT
BRANCH   1   5
HETATM    5  C   UNL     1      39.295 -11.914   3.386  1.00  0.00     0.309 C 
HETATM    6  N   UNL     1      40.069 -13.017   3.640  1.00  0.00    -0.350 N 
HETATM    7  H   UNL     1      40.522 -13.063   4.554  1.00  0.00     0.163 HD
HETATM    8  O   UNL     1      38.596 -11.728   2.401  1.00  0.00    -0.262 OA
BRANCH   6   9
HETATM    9  C   UNL     1      40.198 -14.152   2.751  1.00  0.00     0.161 C 
BRANCH   9  10
HETATM   10  C   UNL     1      40.867 -15.346   3.473  1.00  0.00     0.078 C 
HETATM   11  C   UNL     1      41.588 -16.247   2.448  1.00  0.00     0.078 C 
HETATM   12  C   UNL     1      42.534 -17.254   3.063  1.00  0.00    -0.049 A 
HETATM   13  C   UNL     1      42.978 -17.134   4.390  1.00  0.00    -0.052 A 
HETATM   14  C   UNL     1      43.017 -18.307   2.271  1.00  0.00     0.007 A 
HETATM   15  C   UNL     1      43.864 -18.089   4.912  1.00  0.00     0.007 A 
HETATM   16  C   UNL     1      42.476 -16.038   5.296  1.00  0.00     0.042 C 
HETATM   17  C   UNL     1      44.327 -19.137   4.119  1.00  0.00     0.001 A 
HETATM   18  C   UNL     1      43.907 -19.243   2.797  1.00  0.00     0.001 A 
HETATM   19  C   UNL     1      41.868 -14.863   4.534  1.00  0.00     0.044 C 
BRANCH  10  20
HETATM   20  O   UNL     1      39.825 -16.081   4.144  1.00  0.00    -0.388 OA
HETATM   21  H   UNL     1      39.690 -16.922   3.674  1.00  0.00     0.210 HD
ENDBRANCH  10  20
ENDBRANCH   9  10
ENDBRANCH   6   9
ENDBRANCH   1   5
BRANCH   2  22
HETATM   22  C   UNL     1      40.578 -10.462   6.653  1.00  0.00     0.035 A 
HETATM   23  C   UNL     1      41.782  -9.816   6.925  1.00  0.00     0.039 A 
HETATM   24  C   UNL     1      41.970  -9.093   8.120  1.00  0.00    -0.029 A 
HETATM   25  C   UNL     1      40.952  -9.032   9.094  1.00  0.00     0.043 A 
HETATM   26  C   UNL     1      43.304  -8.420   8.313  1.00  0.00     0.042 C 
HETATM   27  N   UNL     1      41.179  -8.337  10.339  1.00  0.00    -0.313 N 
HETATM   28  C   UNL     1      39.754  -9.705   8.810  1.00  0.00     0.032 A 
HETATM   29  C   UNL     1      40.154  -8.102  11.289  1.00  0.00     0.265 C 
HETATM   30  C   UNL     1      42.533  -7.817  10.575  1.00  0.00     0.133 C 
HETATM   31  O   UNL     1      38.958  -8.092  10.998  1.00  0.00    -0.267 OA
HETATM   32  C   UNL     1      43.192  -7.290   9.314  1.00  0.00     0.025 C 
HETATM   33  C   UNL     1      39.563 -10.396   7.603  1.00  0.00     0.032 A 
BRANCH  29  34
HETATM   34  C   UNL     1      40.582  -7.863  12.667  1.00  0.00     0.073 A 
HETATM   35  S   UNL     1      40.509  -6.273  13.303  1.00  0.00    -0.097 SA
HETATM   36  C   UNL     1      41.132  -6.777  14.813  1.00  0.00     0.050 A 
HETATM   37  C   UNL     1      41.362  -8.133  14.851  1.00  0.00     0.009 A 
HETATM   38  C   UNL     1      41.030  -8.765  13.616  1.00  0.00     0.025 A 
ENDBRANCH  29  34
ENDBRANCH   2  22
TORSDOF 6
ENDMDL
MODEL 9
REMARK VINA RESULT:      -9.2      2.797      4.471
REMARK  6 active torsions:
REMARK  status: ('A' for Active; 'I' for Inactive)
REMARK    1  A    between atoms: C_6  and  O_7 
REMARK    2  A    between atoms: C_6  and  C_8 
REMARK    3  A    between atoms: C_8  and  N_9 
REMARK       I    between atoms: N_9  and  C_10 
REMARK    4  A    between atoms: C_10  and  C_11 
REMARK       I    between atoms: C_11  and  N_12 
REMARK    5  A    between atoms: N_12  and  C_13 
REMARK       I    between atoms: N_17  and  C_18 
REMARK    6  A    between atoms: C_18  and  C_19 
ROOT
HETATM    1  C   UNL     1      39.790 -10.424   7.639  1.00  0.00     0.313 C 
HETATM    2  N   UNL     1      40.647  -9.573   8.304  1.00  0.00    -0.319 N 
HETATM    3  O   UNL     1      38.695 -10.844   7.990  1.00  0.00    -0.262 OA
HETATM    4  H   UNL     1      41.478  -9.309   7.780  1.00  0.00     0.169 HD
ENDROOT
BRANCH   1   5
HETATM    5  C   UNL     1      40.347 -10.883   6.274  1.00  0.00     0.309 C 
HETATM    6  N   UNL     1      41.442 -11.699   6.390  1.00  0.00    -0.350 N 
HETATM    7  H   UNL     1      41.695 -12.002   7.332  1.00  0.00     0.163 HD
HETATM    8  O   UNL     1      39.830 -10.504   5.233  1.00  0.00    -0.262 OA
BRANCH   6   9
HETATM    9  C   UNL     1      42.190 -12.236   5.273  1.00  0.00     0.161 C 
BRANCH   9  10
HETATM   10  C   UNL     1      42.397 -13.761   5.426  1.00  0.00     0.078 C 
HETATM   11  C   UNL     1      42.603 -14.409   4.041  1.00  0.00     0.078 C 
HETATM   12  C   UNL     1      43.128 -15.827   4.090  1.00  0.00    -0.049 A 
HETATM   13  C   UNL     1      43.707 -16.359   5.254  1.00  0.00    -0.052 A 
HETATM   14  C   UNL     1      43.078 -16.612   2.928  1.00  0.00     0.007 A 
HETATM   15  C   UNL     1      44.188 -17.677   5.246  1.00  0.00     0.007 A 
HETATM   16  C   UNL     1      43.767 -15.572   6.538  1.00  0.00     0.042 C 
HETATM   17  C   UNL     1      44.122 -18.452   4.089  1.00  0.00     0.001 A 
HETATM   18  C   UNL     1      43.570 -17.917   2.929  1.00  0.00     0.001 A 
HETATM   19  C   UNL     1      43.604 -14.069   6.327  1.00  0.00     0.044 C 
BRANCH  10  20
HETATM   20  O   UNL     1      41.219 -14.293   6.062  1.00  0.00    -0.388 OA
HETATM   21  H   UNL     1      40.493 -14.293   5.413  1.00  0.00     0.210 HD
ENDBRANCH  10  20
ENDBRANCH   9  10
ENDBRANCH   6   9
ENDBRANCH   1   5
BRANCH   2  22
HETATM   22  C   UNL     1      40.499  -9.069   9.607  1.00  0.00     0.035 A 
HETATM   23  C   UNL     1      39.424  -8.279  10.009  1.00  0.00     0.039 A 
HETATM   24  C   UNL     1      39.300  -7.834  11.340  1.00  0.00    -0.029 A 
HETATM   25  C   UNL     1      40.285  -8.149  12.300  1.00  0.00     0.043 A 
HETATM   26  C   UNL     1      38.094  -6.996  11.675  1.00  0.00     0.042 C 
HETATM   27  N   UNL     1      40.176  -7.638  13.645  1.00  0.00    -0.313 N 
HETATM   28  C   UNL     1      41.369  -8.928  11.871  1.00  0.00     0.032 A 
HETATM   29  C   UNL     1      41.038  -8.040  14.696  1.00  0.00     0.265 C 
HETATM   30  C   UNL     1      39.077  -6.700  13.916  1.00  0.00     0.133 C 
HETATM   31  O   UNL     1      41.660  -9.102  14.684  1.00  0.00    -0.267 OA
HETATM   32  C   UNL     1      37.807  -7.044  13.160  1.00  0.00     0.025 C 
HETATM   33  C   UNL     1      41.468  -9.394  10.551  1.00  0.00     0.032 A 
BRANCH  29  34
HETATM   34  C   UNL     1      41.163  -7.123  15.828  1.00  0.00     0.073 A 
HETATM   35  S   UNL     1      40.560  -7.597  17.361  1.00  0.00    -0.097 SA
HETATM   36  C   UNL     1      41.029  -6.117  18.077  1.00  0.00     0.050 A 
HETATM   37  C   UNL     1      41.663  -5.286  17.181  1.00  0.00     0.009 A 
HETATM   38  C   UNL     1      41.755  -5.873  15.884  1.00  0.00     0.025 A 
ENDBRANCH  29  34
ENDBRANCH   2  22
TORSDOF 6
ENDMDL
MODEL 10
REMARK VINA RESULT:      -9.2      3.146      4.737
REMARK  6 active torsions:
REMARK  status: ('A' for Active; 'I' for Inactive)
REMARK    1  A    between atoms: C_6  and  O_7 
REMARK    2  A    between atoms: C_6  and  C_8 
REMARK    3  A    between atoms: C_8  and  N_9 
REMARK       I    between atoms: N_9  and  C_10 
REMARK    4  A    between atoms: C_10  and  C_11 
REMARK       I    between atoms: C_11  and  N_12 
REMARK    5  A    between atoms: N_12  and  C_13 
REMARK       I    between atoms: N_17  and  C_18 
REMARK    6  A    between atoms: C_18  and  C_19 
ROOT
HETATM    1  C   UNL     1      44.232 -10.536   8.098  1.00  0.00     0.313 C 
HETATM    2  N   UNL     1      43.264 -10.709   9.064  1.00  0.00    -0.319 N 
HETATM    3  O   UNL     1      44.875  -9.532   7.822  1.00  0.00    -0.262 OA
HETATM    4  H   UNL     1      42.915 -11.660   9.154  1.00  0.00     0.169 HD
ENDROOT
BRANCH   1   5
HETATM    5  C   UNL     1      44.490 -11.820   7.278  1.00  0.00     0.309 C 
HETATM    6  N   UNL     1      43.567 -12.804   7.521  1.00  0.00    -0.350 N 
HETATM    7  H   UNL     1      42.770 -12.555   8.107  1.00  0.00     0.163 HD
HETATM    8  O   UNL     1      45.449 -11.892   6.523  1.00  0.00    -0.262 OA
BRANCH   6   9
HETATM    9  C   UNL     1      43.596 -14.123   6.924  1.00  0.00     0.161 C 
BRANCH   9  10
HETATM   10  C   UNL     1      42.419 -14.310   5.938  1.00  0.00     0.078 C 
HETATM   11  C   UNL     1      42.855 -13.907   4.514  1.00  0.00     0.078 C 
HETATM   12  C   UNL     1      41.901 -14.346   3.425  1.00  0.00    -0.049 A 
HETATM   13  C   UNL     1      40.920 -15.325   3.653  1.00  0.00    -0.052 A 
HETATM   14  C   UNL     1      42.032 -13.794   2.140  1.00  0.00     0.007 A 
HETATM   15  C   UNL     1      40.065 -15.705   2.608  1.00  0.00     0.007 A 
HETATM   16  C   UNL     1      40.716 -15.935   5.017  1.00  0.00     0.042 C 
HETATM   17  C   UNL     1      40.198 -15.141   1.340  1.00  0.00     0.001 A 
HETATM   18  C   UNL     1      41.185 -14.189   1.106  1.00  0.00     0.001 A 
HETATM   19  C   UNL     1      41.923 -15.764   5.937  1.00  0.00     0.044 C 
BRANCH  10  20
HETATM   20  O   UNL     1      41.340 -13.471   6.392  1.00  0.00    -0.388 OA
HETATM   21  H   UNL     1      41.544 -13.169   7.294  1.00  0.00     0.210 HD
ENDBRANCH  10  20
ENDBRANCH   9  10
ENDBRANCH   6   9
ENDBRANCH   1   5
BRANCH   2  22
HETATM   22  C   UNL     1      42.714  -9.721   9.898  1.00  0.00     0.035 A 
HETATM   23  C   UNL     1      43.177  -9.454  11.184  1.00  0.00     0.039 A 
HETATM   24  C   UNL     1      42.618  -8.422  11.964  1.00  0.00    -0.029 A 
HETATM   25  C   UNL     1      41.544  -7.650  11.474  1.00  0.00     0.043 A 
HETATM   26  C   UNL     1      43.199  -8.205  13.336  1.00  0.00     0.042 C 
HETATM   27  N   UNL     1      40.942  -6.635  12.306  1.00  0.00    -0.313 N 
HETATM   28  C   UNL     1      41.078  -7.947  10.185  1.00  0.00     0.032 A 
HETATM   29  C   UNL     1      39.970  -5.721  11.825  1.00  0.00     0.265 C 
HETATM   30  C   UNL     1      41.419  -6.538  13.692  1.00  0.00     0.133 C 
HETATM   31  O   UNL     1      39.848  -5.435  10.635  1.00  0.00    -0.267 OA
HETATM   32  C   UNL     1      42.907  -6.803  13.825  1.00  0.00     0.025 C 
HETATM   33  C   UNL     1      41.663  -8.955   9.403  1.00  0.00     0.032 A 
BRANCH  29  34
HETATM   34  C   UNL     1      39.096  -5.109  12.826  1.00  0.00     0.073 A 
HETATM   35  S   UNL     1      39.372  -3.485  13.299  1.00  0.00    -0.097 SA
HETATM   36  C   UNL     1      38.066  -3.515  14.402  1.00  0.00     0.050 A 
HETATM   37  C   UNL     1      37.408  -4.724  14.392  1.00  0.00     0.009 A 
HETATM   38  C   UNL     1      37.993  -5.641  13.470  1.00  0.00     0.025 A 
ENDBRANCH  29  34
ENDBRANCH   2  22
TORSDOF 6
ENDMDL
