MODEL 1
REMARK VINA RESULT:      -8.7      0.000      0.000
REMARK  9 active torsions:
REMARK  status: ('A' for Active; 'I' for Inactive)
REMARK    1  A    between atoms: C_2  and  O_3 
REMARK    2  A    between atoms: O_3  and  C_4 
REMARK    3  A    between atoms: C_5  and  N_6 
REMARK       I    between atoms: N_6  and  C_7 
REMARK    4  A    between atoms: C_7  and  C_8 
REMARK    5  A    between atoms: C_11  and  N_12 
REMARK    6  A    between atoms: C_17  and  N_18 
REMARK       I    between atoms: N_18  and  C_19 
REMARK    7  A    between atoms: C_19  and  C_20 
REMARK    8  A    between atoms: C_23  and  N_24 
REMARK    9  A    between atoms: C_29  and  C_30 
REMARK       I    between atoms: C_30  and  N_31 
ROOT
HETATM    1  C   UNL     1      42.220 -16.768   4.059  1.00  0.00     0.111 A 
HETATM    2  C   UNL     1      41.385 -15.648   4.251  1.00  0.00     0.071 A 
HETATM    3  C   UNL     1      40.712 -15.081   3.159  1.00  0.00     0.062 A 
HETATM    4  C   UNL     1      40.849 -15.643   1.883  1.00  0.00     0.038 A 
HETATM    5  C   UNL     1      41.673 -16.763   1.710  1.00  0.00     0.049 A 
HETATM    6  C   UNL     1      42.333 -17.354   2.794  1.00  0.00     0.069 A 
ENDROOT
BRANCH   2   7
HETATM    7  N   UNL     1      41.209 -15.216   5.590  1.00  0.00    -0.320 N 
HETATM    8  C   UNL     1      41.046 -13.923   6.027  1.00  0.00     0.256 C 
HETATM    9  O   UNL     1      40.002 -13.591   6.585  1.00  0.00    -0.267 OA
HETATM   10  H   UNL     1      40.643 -15.875   6.118  1.00  0.00     0.169 HD
BRANCH   8  11
HETATM   11  C   UNL     1      42.232 -13.015   6.054  1.00  0.00     0.032 A 
HETATM   12  C   UNL     1      43.289 -13.335   6.915  1.00  0.00     0.019 A 
HETATM   13  C   UNL     1      44.497 -12.633   6.850  1.00  0.00     0.024 A 
HETATM   14  C   UNL     1      44.660 -11.572   5.957  1.00  0.00     0.005 A 
HETATM   15  C   UNL     1      43.616 -11.276   5.076  1.00  0.00     0.024 A 
HETATM   16  C   UNL     1      42.404 -11.976   5.132  1.00  0.00     0.019 A 
BRANCH  14  17
HETATM   17  N   UNL     1      45.921 -10.994   5.774  1.00  0.00    -0.303 NA
HETATM   18  H   UNL     1      45.947  -9.998   5.968  1.00  0.00     0.124 HD
HETATM   19  H   UNL     1      46.356 -11.226   4.887  1.00  0.00     0.124 HD
ENDBRANCH  14  17
ENDBRANCH   8  11
ENDBRANCH   2   7
BRANCH   1  20
HETATM   20  O   UNL     1      42.856 -17.282   5.168  1.00  0.00    -0.348 OA
BRANCH  20  21
HETATM   21  C   UNL     1      44.087 -16.591   5.444  1.00  0.00     0.171 C 
HETATM   22  C   UNL     1      44.414 -16.664   6.925  1.00  0.00     0.034 C 
ENDBRANCH  20  21
ENDBRANCH   1  20
BRANCH   6  23
HETATM   23  C   UNL     1      43.068 -18.616   2.520  1.00  0.00     0.252 C 
HETATM   24  N   UNL     1      44.369 -18.690   2.928  1.00  0.00    -0.366 N 
HETATM   25  H   UNL     1      44.832 -17.926   3.406  1.00  0.00     0.159 HD
HETATM   26  H   UNL     1      44.865 -19.561   2.798  1.00  0.00     0.159 HD
HETATM   27  O   UNL     1      42.515 -19.573   1.992  1.00  0.00    -0.268 OA
ENDBRANCH   6  23
BRANCH   4  28
HETATM   28  N   UNL     1      40.145 -15.217   0.735  1.00  0.00    -0.323 N 
HETATM   29  C   UNL     1      40.338 -14.062   0.000  1.00  0.00     0.256 C 
HETATM   30  O   UNL     1      41.284 -13.292   0.111  1.00  0.00    -0.267 OA
HETATM   31  H   UNL     1      39.392 -15.824   0.441  1.00  0.00     0.169 HD
BRANCH  29  32
HETATM   32  C   UNL     1      39.280 -13.765  -1.021  1.00  0.00     0.032 A 
HETATM   33  C   UNL     1      39.009 -14.620  -2.099  1.00  0.00     0.019 A 
HETATM   34  C   UNL     1      37.996 -14.304  -3.013  1.00  0.00     0.024 A 
HETATM   35  C   UNL     1      37.251 -13.131  -2.883  1.00  0.00     0.005 A 
HETATM   36  C   UNL     1      37.466 -12.328  -1.760  1.00  0.00     0.024 A 
HETATM   37  C   UNL     1      38.483 -12.629  -0.846  1.00  0.00     0.019 A 
BRANCH  35  38
HETATM   38  N   UNL     1      36.155 -12.897  -3.719  1.00  0.00    -0.303 NA
HETATM   39  H   UNL     1      35.542 -13.699  -3.835  1.00  0.00     0.124 HD
HETATM   40  H   UNL     1      36.395 -12.467  -4.607  1.00  0.00     0.124 HD
ENDBRANCH  35  38
ENDBRANCH  29  32
ENDBRANCH   4  28
TORSDOF 9
ENDMDL
MODEL 2
REMARK VINA RESULT:      -8.5      1.845      2.312
REMARK  9 active torsions:
REMARK  status: ('A' for Active; 'I' for Inactive)
REMARK    1  A    between atoms: C_2  and  O_3 
REMARK    2  A    between atoms: O_3  and  C_4 
REMARK    3  A    between atoms: C_5  and  N_6 
REMARK       I    between atoms: N_6  and  C_7 
REMARK    4  A    between atoms: C_7  and  C_8 
REMARK    5  A    between atoms: C_11  and  N_12 
REMARK    6  A    between atoms: C_17  and  N_18 
REMARK       I    between atoms: N_18  and  C_19 
REMARK    7  A    between atoms: C_19  and  C_20 
REMARK    8  A    between atoms: C_23  and  N_24 
REMARK    9  A    between atoms: C_29  and  C_30 
REMARK       I    between atoms: C_30  and  N_31 
ROOT
HETATM    1  C   UNL     1      43.858 -17.892   3.813  1.00  0.00     0.111 A 
HETATM    2  C   UNL     1      43.711 -16.552   4.226  1.00  0.00     0.071 A 
HETATM    3  C   UNL     1      43.061 -15.631   3.394  1.00  0.00     0.062 A 
HETATM    4  C   UNL     1      42.535 -16.046   2.164  1.00  0.00     0.038 A 
HETATM    5  C   UNL     1      42.679 -17.384   1.771  1.00  0.00     0.049 A 
HETATM    6  C   UNL     1      43.305 -18.321   2.602  1.00  0.00     0.069 A 
ENDROOT
BRANCH   2   7
HETATM    7  N   UNL     1      44.165 -16.243   5.533  1.00  0.00    -0.320 N 
HETATM    8  C   UNL     1      43.425 -15.710   6.561  1.00  0.00     0.256 C 
HETATM    9  O   UNL     1      43.258 -16.354   7.595  1.00  0.00    -0.267 OA
HETATM   10  H   UNL     1      44.842 -16.927   5.860  1.00  0.00     0.169 HD
BRANCH   8  11
HETATM   11  C   UNL     1      43.058 -14.263   6.513  1.00  0.00     0.032 A 
HETATM   12  C   UNL     1      44.082 -13.317   6.647  1.00  0.00     0.019 A 
HETATM   13  C   UNL     1      43.831 -11.959   6.424  1.00  0.00     0.024 A 
HETATM   14  C   UNL     1      42.546 -11.513   6.108  1.00  0.00     0.005 A 
HETATM   15  C   UNL     1      41.532 -12.461   5.943  1.00  0.00     0.024 A 
HETATM   16  C   UNL     1      41.777 -13.823   6.160  1.00  0.00     0.019 A 
BRANCH  14  17
HETATM   17  N   UNL     1      42.339 -10.186   5.715  1.00  0.00    -0.303 NA
HETATM   18  H   UNL     1      42.202  -9.546   6.490  1.00  0.00     0.124 HD
HETATM   19  H   UNL     1      41.633 -10.074   4.994  1.00  0.00     0.124 HD
ENDBRANCH  14  17
ENDBRANCH   8  11
ENDBRANCH   2   7
BRANCH   1  20
HETATM   20  O   UNL     1      44.505 -18.753   4.672  1.00  0.00    -0.348 OA
BRANCH  20  21
HETATM   21  C   UNL     1      43.585 -19.406   5.566  1.00  0.00     0.171 C 
HETATM   22  C   UNL     1      43.853 -20.900   5.603  1.00  0.00     0.034 C 
ENDBRANCH  20  21
ENDBRANCH   1  20
BRANCH   6  23
HETATM   23  C   UNL     1      43.279 -19.736   2.149  1.00  0.00     0.252 C 
HETATM   24  N   UNL     1      44.470 -20.402   2.091  1.00  0.00    -0.366 N 
HETATM   25  H   UNL     1      45.348 -19.967   2.349  1.00  0.00     0.159 HD
HETATM   26  H   UNL     1      44.462 -21.380   1.838  1.00  0.00     0.159 HD
HETATM   27  O   UNL     1      42.225 -20.301   1.884  1.00  0.00    -0.268 OA
ENDBRANCH   6  23
BRANCH   4  28
HETATM   28  N   UNL     1      41.779 -15.230   1.293  1.00  0.00    -0.323 N 
HETATM   29  C   UNL     1      40.403 -15.143   1.190  1.00  0.00     0.256 C 
HETATM   30  O   UNL     1      39.594 -15.628   1.971  1.00  0.00    -0.267 OA
HETATM   31  H   UNL     1      42.322 -14.667   0.653  1.00  0.00     0.169 HD
BRANCH  29  32
HETATM   32  C   UNL     1      39.895 -14.369   0.009  1.00  0.00     0.032 A 
HETATM   33  C   UNL     1      39.469 -14.988  -1.174  1.00  0.00     0.019 A 
HETATM   34  C   UNL     1      38.985 -14.218  -2.240  1.00  0.00     0.024 A 
HETATM   35  C   UNL     1      38.936 -12.826  -2.155  1.00  0.00     0.005 A 
HETATM   36  C   UNL     1      39.280 -12.220  -0.944  1.00  0.00     0.024 A 
HETATM   37  C   UNL     1      39.774 -12.980   0.123  1.00  0.00     0.019 A 
BRANCH  35  38
HETATM   38  N   UNL     1      38.325 -12.081  -3.168  1.00  0.00    -0.303 NA
HETATM   39  H   UNL     1      37.554 -11.502  -2.850  1.00  0.00     0.124 HD
HETATM   40  H   UNL     1      38.083 -12.623  -3.993  1.00  0.00     0.124 HD
ENDBRANCH  35  38
ENDBRANCH  29  32
ENDBRANCH   4  28
TORSDOF 9
ENDMDL
MODEL 3
REMARK VINA RESULT:      -8.5      2.432      6.822
REMARK  9 active torsions:
REMARK  status: ('A' for Active; 'I' for Inactive)
REMARK    1  A    between atoms: C_2  and  O_3 
REMARK    2  A    between atoms: O_3  and  C_4 
REMARK    3  A    between atoms: C_5  and  N_6 
REMARK       I    between atoms: N_6  and  C_7 
REMARK    4  A    between atoms: C_7  and  C_8 
REMARK    5  A    between atoms: C_11  and  N_12 
REMARK    6  A    between atoms: C_17  and  N_18 
REMARK       I    between atoms: N_18  and  C_19 
REMARK    7  A    between atoms: C_19  and  C_20 
REMARK    8  A    between atoms: C_23  and  N_24 
REMARK    9  A    between atoms: C_29  and  C_30 
REMARK       I    between atoms: C_30  and  N_31 
ROOT
HETATM    1  C   UNL     1      39.701 -12.615   0.712  1.00  0.00     0.111 A 
HETATM    2  C   UNL     1      40.072 -12.583   2.072  1.00  0.00     0.071 A 
HETATM    3  C   UNL     1      40.605 -13.729   2.678  1.00  0.00     0.062 A 
HETATM    4  C   UNL     1      40.793 -14.897   1.928  1.00  0.00     0.038 A 
HETATM    5  C   UNL     1      40.430 -14.910   0.574  1.00  0.00     0.049 A 
HETATM    6  C   UNL     1      39.918 -13.767  -0.051  1.00  0.00     0.069 A 
ENDROOT
BRANCH   2   7
HETATM    7  N   UNL     1      39.962 -11.330   2.726  1.00  0.00    -0.320 N 
HETATM    8  C   UNL     1      40.947 -10.383   2.871  1.00  0.00     0.256 C 
HETATM    9  O   UNL     1      40.809  -9.272   2.364  1.00  0.00    -0.267 OA
HETATM   10  H   UNL     1      39.047 -10.914   2.573  1.00  0.00     0.169 HD
BRANCH   8  11
HETATM   11  C   UNL     1      42.043 -10.626   3.857  1.00  0.00     0.032 A 
HETATM   12  C   UNL     1      41.776 -10.398   5.212  1.00  0.00     0.019 A 
HETATM   13  C   UNL     1      42.695 -10.784   6.194  1.00  0.00     0.024 A 
HETATM   14  C   UNL     1      43.916 -11.363   5.841  1.00  0.00     0.005 A 
HETATM   15  C   UNL     1      44.167 -11.619   4.490  1.00  0.00     0.024 A 
HETATM   16  C   UNL     1      43.250 -11.240   3.502  1.00  0.00     0.019 A 
BRANCH  14  17
HETATM   17  N   UNL     1      44.748 -11.904   6.827  1.00  0.00    -0.303 NA
HETATM   18  H   UNL     1      45.136 -12.810   6.583  1.00  0.00     0.124 HD
HETATM   19  H   UNL     1      44.345 -11.895   7.758  1.00  0.00     0.124 HD
ENDBRANCH  14  17
ENDBRANCH   8  11
ENDBRANCH   2   7
BRANCH   1  20
HETATM   20  O   UNL     1      39.183 -11.459   0.169  1.00  0.00    -0.348 OA
BRANCH  20  21
HETATM   21  C   UNL     1      37.746 -11.490   0.124  1.00  0.00     0.171 C 
HETATM   22  C   UNL     1      37.249 -11.048  -1.241  1.00  0.00     0.034 C 
ENDBRANCH  20  21
ENDBRANCH   1  20
BRANCH   6  23
HETATM   23  C   UNL     1      39.697 -13.852  -1.518  1.00  0.00     0.252 C 
HETATM   24  N   UNL     1      40.720 -13.464  -2.334  1.00  0.00    -0.366 N 
HETATM   25  H   UNL     1      41.607 -13.133  -1.973  1.00  0.00     0.159 HD
HETATM   26  H   UNL     1      40.605 -13.568  -3.333  1.00  0.00     0.159 HD
HETATM   27  O   UNL     1      38.654 -14.299  -1.980  1.00  0.00    -0.268 OA
ENDBRANCH   6  23
BRANCH   4  28
HETATM   28  N   UNL     1      41.409 -16.074   2.409  1.00  0.00    -0.323 N 
HETATM   29  C   UNL     1      42.706 -16.231   2.859  1.00  0.00     0.256 C 
HETATM   30  O   UNL     1      43.497 -15.327   3.094  1.00  0.00    -0.267 OA
HETATM   31  H   UNL     1      40.828 -16.902   2.389  1.00  0.00     0.169 HD
BRANCH  29  32
HETATM   32  C   UNL     1      43.142 -17.650   3.078  1.00  0.00     0.032 A 
HETATM   33  C   UNL     1      43.768 -18.075   4.259  1.00  0.00     0.019 A 
HETATM   34  C   UNL     1      44.138 -19.417   4.418  1.00  0.00     0.024 A 
HETATM   35  C   UNL     1      43.912 -20.350   3.405  1.00  0.00     0.005 A 
HETATM   36  C   UNL     1      43.211 -19.940   2.268  1.00  0.00     0.024 A 
HETATM   37  C   UNL     1      42.846 -18.599   2.094  1.00  0.00     0.019 A 
BRANCH  35  38
HETATM   38  N   UNL     1      44.159 -21.707   3.631  1.00  0.00    -0.303 NA
HETATM   39  H   UNL     1      43.350 -22.228   3.957  1.00  0.00     0.124 HD
HETATM   40  H   UNL     1      44.985 -21.890   4.193  1.00  0.00     0.124 HD
ENDBRANCH  35  38
ENDBRANCH  29  32
ENDBRANCH   4  28
TORSDOF 9
ENDMDL
MODEL 4
REMARK VINA RESULT:      -8.4      4.760      7.865
REMARK  9 active torsions:
REMARK  status: ('A' for Active; 'I' for Inactive)
REMARK    1  A    between atoms: C_2  and  O_3 
REMARK    2  A    between atoms: O_3  and  C_4 
REMARK    3  A    between atoms: C_5  and  N_6 
REMARK       I    between atoms: N_6  and  C_7 
REMARK    4  A    between atoms: C_7  and  C_8 
REMARK    5  A    between atoms: C_11  and  N_12 
REMARK    6  A    between atoms: C_17  and  N_18 
REMARK       I    between atoms: N_18  and  C_19 
REMARK    7  A    between atoms: C_19  and  C_20 
REMARK    8  A    between atoms: C_23  and  N_24 
REMARK    9  A    between atoms: C_29  and  C_30 
REMARK       I    between atoms: C_30  and  N_31 
ROOT
HETATM    1  C   UNL     1      42.273 -11.386   6.184  1.00  0.00     0.111 A 
HETATM    2  C   UNL     1      43.589 -11.887   6.241  1.00  0.00     0.071 A 
HETATM    3  C   UNL     1      43.823 -13.259   6.073  1.00  0.00     0.062 A 
HETATM    4  C   UNL     1      42.753 -14.128   5.822  1.00  0.00     0.038 A 
HETATM    5  C   UNL     1      41.451 -13.613   5.758  1.00  0.00     0.049 A 
HETATM    6  C   UNL     1      41.204 -12.242   5.900  1.00  0.00     0.069 A 
ENDROOT
BRANCH   2   7
HETATM    7  N   UNL     1      44.624 -10.928   6.378  1.00  0.00    -0.320 N 
HETATM    8  C   UNL     1      45.384 -10.685   7.497  1.00  0.00     0.256 C 
HETATM    9  O   UNL     1      46.599 -10.869   7.466  1.00  0.00    -0.267 OA
HETATM   10  H   UNL     1      45.163 -10.842   5.520  1.00  0.00     0.169 HD
BRANCH   8  11
HETATM   11  C   UNL     1      44.766  -9.955   8.645  1.00  0.00     0.032 A 
HETATM   12  C   UNL     1      44.645  -8.563   8.554  1.00  0.00     0.019 A 
HETATM   13  C   UNL     1      43.911  -7.848   9.507  1.00  0.00     0.024 A 
HETATM   14  C   UNL     1      43.322  -8.501  10.592  1.00  0.00     0.005 A 
HETATM   15  C   UNL     1      43.417  -9.894  10.664  1.00  0.00     0.024 A 
HETATM   16  C   UNL     1      44.146 -10.617   9.711  1.00  0.00     0.019 A 
BRANCH  14  17
HETATM   17  N   UNL     1      42.447  -7.811  11.438  1.00  0.00    -0.303 NA
HETATM   18  H   UNL     1      42.384  -6.817  11.240  1.00  0.00     0.124 HD
HETATM   19  H   UNL     1      42.593  -7.999  12.425  1.00  0.00     0.124 HD
ENDBRANCH  14  17
ENDBRANCH   8  11
ENDBRANCH   2   7
BRANCH   1  20
HETATM   20  O   UNL     1      42.103 -10.030   6.356  1.00  0.00    -0.348 OA
BRANCH  20  21
HETATM   21  C   UNL     1      41.346  -9.734   7.544  1.00  0.00     0.171 C 
HETATM   22  C   UNL     1      40.781  -8.327   7.475  1.00  0.00     0.034 C 
ENDBRANCH  20  21
ENDBRANCH   1  20
BRANCH   6  23
HETATM   23  C   UNL     1      39.807 -11.789   5.677  1.00  0.00     0.252 C 
HETATM   24  N   UNL     1      39.583 -10.912   4.655  1.00  0.00    -0.366 N 
HETATM   25  H   UNL     1      40.328 -10.575   4.056  1.00  0.00     0.159 HD
HETATM   26  H   UNL     1      38.631 -10.638   4.456  1.00  0.00     0.159 HD
HETATM   27  O   UNL     1      38.881 -12.224   6.352  1.00  0.00    -0.268 OA
ENDBRANCH   6  23
BRANCH   4  28
HETATM   28  N   UNL     1      42.882 -15.506   5.542  1.00  0.00    -0.323 N 
HETATM   29  C   UNL     1      43.340 -16.505   6.380  1.00  0.00     0.256 C 
HETATM   30  O   UNL     1      43.541 -16.394   7.583  1.00  0.00    -0.267 OA
HETATM   31  H   UNL     1      42.632 -15.779   4.601  1.00  0.00     0.169 HD
BRANCH  29  32
HETATM   32  C   UNL     1      43.590 -17.830   5.724  1.00  0.00     0.032 A 
HETATM   33  C   UNL     1      43.483 -19.047   6.412  1.00  0.00     0.019 A 
HETATM   34  C   UNL     1      43.709 -20.258   5.745  1.00  0.00     0.024 A 
HETATM   35  C   UNL     1      44.063 -20.279   4.395  1.00  0.00     0.005 A 
HETATM   36  C   UNL     1      44.084 -19.071   3.694  1.00  0.00     0.024 A 
HETATM   37  C   UNL     1      43.869 -17.855   4.353  1.00  0.00     0.019 A 
BRANCH  35  38
HETATM   38  N   UNL     1      44.150 -21.495   3.710  1.00  0.00    -0.303 NA
HETATM   39  H   UNL     1      44.974 -21.583   3.123  1.00  0.00     0.124 HD
HETATM   40  H   UNL     1      43.300 -21.757   3.220  1.00  0.00     0.124 HD
ENDBRANCH  35  38
ENDBRANCH  29  32
ENDBRANCH   4  28
TORSDOF 9
ENDMDL
MODEL 5
REMARK VINA RESULT:      -8.3      2.967      7.208
REMARK  9 active torsions:
REMARK  status: ('A' for Active; 'I' for Inactive)
REMARK    1  A    between atoms: C_2  and  O_3 
REMARK    2  A    between atoms: O_3  and  C_4 
REMARK    3  A    between atoms: C_5  and  N_6 
REMARK       I    between atoms: N_6  and  C_7 
REMARK    4  A    between atoms: C_7  and  C_8 
REMARK    5  A    between atoms: C_11  and  N_12 
REMARK    6  A    between atoms: C_17  and  N_18 
REMARK       I    between atoms: N_18  and  C_19 
REMARK    7  A    between atoms: C_19  and  C_20 
REMARK    8  A    between atoms: C_23  and  N_24 
REMARK    9  A    between atoms: C_29  and  C_30 
REMARK       I    between atoms: C_30  and  N_31 
ROOT
HETATM    1  C   UNL     1      39.579 -12.770  -0.215  1.00  0.00     0.111 A 
HETATM    2  C   UNL     1      39.996 -12.454   1.094  1.00  0.00     0.071 A 
HETATM    3  C   UNL     1      40.564 -13.447   1.905  1.00  0.00     0.062 A 
HETATM    4  C   UNL     1      40.739 -14.744   1.407  1.00  0.00     0.038 A 
HETATM    5  C   UNL     1      40.329 -15.040   0.100  1.00  0.00     0.049 A 
HETATM    6  C   UNL     1      39.783 -14.054  -0.730  1.00  0.00     0.069 A 
ENDROOT
BRANCH   2   7
HETATM    7  N   UNL     1      39.894 -11.093   1.477  1.00  0.00    -0.320 N 
HETATM    8  C   UNL     1      40.479 -10.495   2.567  1.00  0.00     0.256 C 
HETATM    9  O   UNL     1      41.303  -9.596   2.405  1.00  0.00    -0.267 OA
HETATM   10  H   UNL     1      39.876 -10.482   0.665  1.00  0.00     0.169 HD
BRANCH   8  11
HETATM   11  C   UNL     1      39.917 -10.759   3.926  1.00  0.00     0.032 A 
HETATM   12  C   UNL     1      40.708 -11.462   4.842  1.00  0.00     0.019 A 
HETATM   13  C   UNL     1      40.315 -11.577   6.180  1.00  0.00     0.024 A 
HETATM   14  C   UNL     1      39.107 -11.031   6.620  1.00  0.00     0.005 A 
HETATM   15  C   UNL     1      38.335 -10.302   5.711  1.00  0.00     0.024 A 
HETATM   16  C   UNL     1      38.723 -10.180   4.371  1.00  0.00     0.019 A 
BRANCH  14  17
HETATM   17  N   UNL     1      38.807 -10.996   7.986  1.00  0.00    -0.303 NA
HETATM   18  H   UNL     1      38.790 -11.910   8.426  1.00  0.00     0.124 HD
HETATM   19  H   UNL     1      37.987 -10.443   8.214  1.00  0.00     0.124 HD
ENDBRANCH  14  17
ENDBRANCH   8  11
ENDBRANCH   2   7
BRANCH   1  20
HETATM   20  O   UNL     1      39.029 -11.755  -0.967  1.00  0.00    -0.348 OA
BRANCH  20  21
HETATM   21  C   UNL     1      37.591 -11.804  -0.958  1.00  0.00     0.171 C 
HETATM   22  C   UNL     1      37.014 -10.417  -0.738  1.00  0.00     0.034 C 
ENDBRANCH  20  21
ENDBRANCH   1  20
BRANCH   6  23
HETATM   23  C   UNL     1      39.512 -14.443  -2.138  1.00  0.00     0.252 C 
HETATM   24  N   UNL     1      38.407 -15.208  -2.380  1.00  0.00    -0.366 N 
HETATM   25  H   UNL     1      37.780 -15.505  -1.642  1.00  0.00     0.159 HD
HETATM   26  H   UNL     1      38.179 -15.435  -3.339  1.00  0.00     0.159 HD
HETATM   27  O   UNL     1      40.224 -14.052  -3.055  1.00  0.00    -0.268 OA
ENDBRANCH   6  23
BRANCH   4  28
HETATM   28  N   UNL     1      41.385 -15.793   2.099  1.00  0.00    -0.323 N 
HETATM   29  C   UNL     1      42.743 -15.997   2.256  1.00  0.00     0.256 C 
HETATM   30  O   UNL     1      43.626 -15.196   1.976  1.00  0.00    -0.267 OA
HETATM   31  H   UNL     1      40.769 -16.487   2.500  1.00  0.00     0.169 HD
BRANCH  29  32
HETATM   32  C   UNL     1      43.130 -17.327   2.834  1.00  0.00     0.032 A 
HETATM   33  C   UNL     1      43.013 -18.526   2.117  1.00  0.00     0.019 A 
HETATM   34  C   UNL     1      43.406 -19.738   2.698  1.00  0.00     0.024 A 
HETATM   35  C   UNL     1      43.902 -19.782   4.002  1.00  0.00     0.005 A 
HETATM   36  C   UNL     1      44.098 -18.575   4.680  1.00  0.00     0.024 A 
HETATM   37  C   UNL     1      43.698 -17.360   4.111  1.00  0.00     0.019 A 
BRANCH  35  38
HETATM   38  N   UNL     1      44.419 -20.974   4.518  1.00  0.00    -0.303 NA
HETATM   39  H   UNL     1      43.804 -21.442   5.178  1.00  0.00     0.124 HD
HETATM   40  H   UNL     1      45.369 -20.897   4.868  1.00  0.00     0.124 HD
ENDBRANCH  35  38
ENDBRANCH  29  32
ENDBRANCH   4  28
TORSDOF 9
ENDMDL
MODEL 6
REMARK VINA RESULT:      -8.2      2.692      8.436
REMARK  9 active torsions:
REMARK  status: ('A' for Active; 'I' for Inactive)
REMARK    1  A    between atoms: C_2  and  O_3 
REMARK    2  A    between atoms: O_3  and  C_4 
REMARK    3  A    between atoms: C_5  and  N_6 
REMARK       I    between atoms: N_6  and  C_7 
REMARK    4  A    between atoms: C_7  and  C_8 
REMARK    5  A    between atoms: C_11  and  N_12 
REMARK    6  A    between atoms: C_17  and  N_18 
REMARK       I    between atoms: N_18  and  C_19 
REMARK    7  A    between atoms: C_19  and  C_20 
REMARK    8  A    between atoms: C_23  and  N_24 
REMARK    9  A    between atoms: C_29  and  C_30 
REMARK       I    between atoms: C_30  and  N_31 
ROOT
HETATM    1  C   UNL     1      41.209 -12.334   0.384  1.00  0.00     0.111 A 
HETATM    2  C   UNL     1      41.675 -13.375   1.212  1.00  0.00     0.071 A 
HETATM    3  C   UNL     1      42.279 -13.075   2.441  1.00  0.00     0.062 A 
HETATM    4  C   UNL     1      42.396 -11.743   2.858  1.00  0.00     0.038 A 
HETATM    5  C   UNL     1      41.918 -10.719   2.029  1.00  0.00     0.049 A 
HETATM    6  C   UNL     1      41.292 -11.005   0.809  1.00  0.00     0.069 A 
ENDROOT
BRANCH   2   7
HETATM    7  N   UNL     1      41.410 -14.697   0.772  1.00  0.00    -0.320 N 
HETATM    8  C   UNL     1      40.771 -15.690   1.475  1.00  0.00     0.256 C 
HETATM    9  O   UNL     1      39.711 -16.153   1.056  1.00  0.00    -0.267 OA
HETATM   10  H   UNL     1      41.181 -14.717  -0.218  1.00  0.00     0.169 HD
BRANCH   8  11
HETATM   11  C   UNL     1      41.498 -16.372   2.587  1.00  0.00     0.032 A 
HETATM   12  C   UNL     1      42.655 -17.096   2.274  1.00  0.00     0.019 A 
HETATM   13  C   UNL     1      43.479 -17.596   3.288  1.00  0.00     0.024 A 
HETATM   14  C   UNL     1      43.142 -17.423   4.632  1.00  0.00     0.005 A 
HETATM   15  C   UNL     1      42.005 -16.672   4.943  1.00  0.00     0.024 A 
HETATM   16  C   UNL     1      41.178 -16.164   3.933  1.00  0.00     0.019 A 
BRANCH  14  17
HETATM   17  N   UNL     1      44.054 -17.768   5.635  1.00  0.00    -0.303 NA
HETATM   18  H   UNL     1      44.989 -17.403   5.484  1.00  0.00     0.124 HD
HETATM   19  H   UNL     1      44.059 -18.757   5.866  1.00  0.00     0.124 HD
ENDBRANCH  14  17
ENDBRANCH   8  11
ENDBRANCH   2   7
BRANCH   1  20
HETATM   20  O   UNL     1      40.625 -12.689  -0.812  1.00  0.00    -0.348 OA
BRANCH  20  21
HETATM   21  C   UNL     1      39.206 -12.884  -0.675  1.00  0.00     0.171 C 
HETATM   22  C   UNL     1      38.706 -13.879  -1.706  1.00  0.00     0.034 C 
ENDBRANCH  20  21
ENDBRANCH   1  20
BRANCH   6  23
HETATM   23  C   UNL     1      40.702  -9.854   0.077  1.00  0.00     0.252 C 
HETATM   24  N   UNL     1      41.022  -9.714  -1.242  1.00  0.00    -0.366 N 
HETATM   25  H   UNL     1      41.632 -10.363  -1.724  1.00  0.00     0.159 HD
HETATM   26  H   UNL     1      40.584  -8.969  -1.767  1.00  0.00     0.159 HD
HETATM   27  O   UNL     1      39.918  -9.086   0.623  1.00  0.00    -0.268 OA
ENDBRANCH   6  23
BRANCH   4  28
HETATM   28  N   UNL     1      42.896 -11.331   4.113  1.00  0.00    -0.323 N 
HETATM   29  C   UNL     1      44.208 -11.336   4.548  1.00  0.00     0.256 C 
HETATM   30  O   UNL     1      45.194 -11.525   3.848  1.00  0.00    -0.267 OA
HETATM   31  H   UNL     1      42.196 -11.025   4.776  1.00  0.00     0.169 HD
BRANCH  29  32
HETATM   32  C   UNL     1      44.400 -11.069   6.012  1.00  0.00     0.032 A 
HETATM   33  C   UNL     1      43.326 -10.896   6.897  1.00  0.00     0.019 A 
HETATM   34  C   UNL     1      43.562 -10.668   8.258  1.00  0.00     0.024 A 
HETATM   35  C   UNL     1      44.863 -10.590   8.759  1.00  0.00     0.005 A 
HETATM   36  C   UNL     1      45.926 -10.849   7.890  1.00  0.00     0.024 A 
HETATM   37  C   UNL     1      45.701 -11.068   6.526  1.00  0.00     0.019 A 
BRANCH  35  38
HETATM   38  N   UNL     1      45.082 -10.501  10.136  1.00  0.00    -0.303 NA
HETATM   39  H   UNL     1      45.626  -9.691  10.419  1.00  0.00     0.124 HD
HETATM   40  H   UNL     1      45.423 -11.359  10.558  1.00  0.00     0.124 HD
ENDBRANCH  35  38
ENDBRANCH  29  32
ENDBRANCH   4  28
TORSDOF 9
ENDMDL
MODEL 7
REMARK VINA RESULT:      -8.2      3.196      8.589
REMARK  9 active torsions:
REMARK  status: ('A' for Active; 'I' for Inactive)
REMARK    1  A    between atoms: C_2  and  O_3 
REMARK    2  A    between atoms: O_3  and  C_4 
REMARK    3  A    between atoms: C_5  and  N_6 
REMARK       I    between atoms: N_6  and  C_7 
REMARK    4  A    between atoms: C_7  and  C_8 
REMARK    5  A    between atoms: C_11  and  N_12 
REMARK    6  A    between atoms: C_17  and  N_18 
REMARK       I    between atoms: N_18  and  C_19 
REMARK    7  A    between atoms: C_19  and  C_20 
REMARK    8  A    between atoms: C_23  and  N_24 
REMARK    9  A    between atoms: C_29  and  C_30 
REMARK       I    between atoms: C_30  and  N_31 
ROOT
HETATM    1  C   UNL     1      39.572 -12.719   1.030  1.00  0.00     0.111 A 
HETATM    2  C   UNL     1      39.557 -13.924   0.299  1.00  0.00     0.071 A 
HETATM    3  C   UNL     1      40.291 -15.028   0.754  1.00  0.00     0.062 A 
HETATM    4  C   UNL     1      41.017 -14.943   1.949  1.00  0.00     0.038 A 
HETATM    5  C   UNL     1      41.014 -13.742   2.671  1.00  0.00     0.049 A 
HETATM    6  C   UNL     1      40.268 -12.638   2.241  1.00  0.00     0.069 A 
ENDROOT
BRANCH   2   7
HETATM    7  N   UNL     1      38.703 -13.964  -0.832  1.00  0.00    -0.320 N 
HETATM    8  C   UNL     1      39.080 -13.957  -2.154  1.00  0.00     0.256 C 
HETATM    9  O   UNL     1      38.817 -14.919  -2.872  1.00  0.00    -0.267 OA
HETATM   10  H   UNL     1      37.898 -14.562  -0.665  1.00  0.00     0.169 HD
BRANCH   8  11
HETATM   11  C   UNL     1      39.565 -12.680  -2.760  1.00  0.00     0.032 A 
HETATM   12  C   UNL     1      38.625 -11.681  -3.036  1.00  0.00     0.019 A 
HETATM   13  C   UNL     1      39.038 -10.402  -3.426  1.00  0.00     0.024 A 
HETATM   14  C   UNL     1      40.393 -10.109  -3.591  1.00  0.00     0.005 A 
HETATM   15  C   UNL     1      41.332 -11.099  -3.284  1.00  0.00     0.024 A 
HETATM   16  C   UNL     1      40.926 -12.380  -2.889  1.00  0.00     0.019 A 
BRANCH  14  17
HETATM   17  N   UNL     1      40.806  -8.790  -3.807  1.00  0.00    -0.303 NA
HETATM   18  H   UNL     1      40.713  -8.192  -2.992  1.00  0.00     0.124 HD
HETATM   19  H   UNL     1      40.415  -8.367  -4.643  1.00  0.00     0.124 HD
ENDBRANCH  14  17
ENDBRANCH   8  11
ENDBRANCH   2   7
BRANCH   1  20
HETATM   20  O   UNL     1      38.833 -11.667   0.535  1.00  0.00    -0.348 OA
BRANCH  20  21
HETATM   21  C   UNL     1      39.670 -10.560   0.155  1.00  0.00     0.171 C 
HETATM   22  C   UNL     1      38.930  -9.248   0.346  1.00  0.00     0.034 C 
ENDBRANCH  20  21
ENDBRANCH   1  20
BRANCH   6  23
HETATM   23  C   UNL     1      40.225 -11.466   3.152  1.00  0.00     0.252 C 
HETATM   24  N   UNL     1      39.014 -11.117   3.677  1.00  0.00    -0.366 N 
HETATM   25  H   UNL     1      38.165 -11.629   3.470  1.00  0.00     0.159 HD
HETATM   26  H   UNL     1      38.979 -10.356   4.341  1.00  0.00     0.159 HD
HETATM   27  O   UNL     1      41.246 -10.862   3.462  1.00  0.00    -0.268 OA
ENDBRANCH   6  23
BRANCH   4  28
HETATM   28  N   UNL     1      41.710 -16.017   2.550  1.00  0.00    -0.323 N 
HETATM   29  C   UNL     1      42.911 -16.579   2.159  1.00  0.00     0.256 C 
HETATM   30  O   UNL     1      43.681 -16.117   1.326  1.00  0.00    -0.267 OA
HETATM   31  H   UNL     1      41.247 -16.437   3.345  1.00  0.00     0.169 HD
BRANCH  29  32
HETATM   32  C   UNL     1      43.275 -17.861   2.848  1.00  0.00     0.032 A 
HETATM   33  C   UNL     1      43.278 -19.099   2.189  1.00  0.00     0.019 A 
HETATM   34  C   UNL     1      43.644 -20.264   2.875  1.00  0.00     0.024 A 
HETATM   35  C   UNL     1      43.994 -20.222   4.226  1.00  0.00     0.005 A 
HETATM   36  C   UNL     1      44.073 -18.976   4.854  1.00  0.00     0.024 A 
HETATM   37  C   UNL     1      43.699 -17.807   4.180  1.00  0.00     0.019 A 
BRANCH  35  38
HETATM   38  N   UNL     1      44.489 -21.365   4.860  1.00  0.00    -0.303 NA
HETATM   39  H   UNL     1      44.926 -22.033   4.231  1.00  0.00     0.124 HD
HETATM   40  H   UNL     1      43.828 -21.808   5.491  1.00  0.00     0.124 HD
ENDBRANCH  35  38
ENDBRANCH  29  32
ENDBRANCH   4  28
TORSDOF 9
ENDMDL
MODEL 8
REMARK VINA RESULT:      -8.2      1.740      4.949
REMARK  9 active torsions:
REMARK  status: ('A' for Active; 'I' for Inactive)
REMARK    1  A    between atoms: C_2  and  O_3 
REMARK    2  A    between atoms: O_3  and  C_4 
REMARK    3  A    between atoms: C_5  and  N_6 
REMARK       I    between atoms: N_6  and  C_7 
REMARK    4  A    between atoms: C_7  and  C_8 
REMARK    5  A    between atoms: C_11  and  N_12 
REMARK    6  A    between atoms: C_17  and  N_18 
REMARK       I    between atoms: N_18  and  C_19 
REMARK    7  A    between atoms: C_19  and  C_20 
REMARK    8  A    between atoms: C_23  and  N_24 
REMARK    9  A    between atoms: C_29  and  C_30 
REMARK       I    between atoms: C_30  and  N_31 
ROOT
HETATM    1  C   UNL     1      42.819 -13.711   4.952  1.00  0.00     0.111 A 
HETATM    2  C   UNL     1      42.034 -14.866   4.761  1.00  0.00     0.071 A 
HETATM    3  C   UNL     1      41.099 -14.911   3.717  1.00  0.00     0.062 A 
HETATM    4  C   UNL     1      40.963 -13.819   2.850  1.00  0.00     0.038 A 
HETATM    5  C   UNL     1      41.758 -12.682   3.046  1.00  0.00     0.049 A 
HETATM    6  C   UNL     1      42.713 -12.632   4.069  1.00  0.00     0.069 A 
ENDROOT
BRANCH   2   7
HETATM    7  N   UNL     1      42.318 -15.968   5.606  1.00  0.00    -0.320 N 
HETATM    8  C   UNL     1      43.451 -16.745   5.600  1.00  0.00     0.256 C 
HETATM    9  O   UNL     1      44.181 -16.774   6.589  1.00  0.00    -0.267 OA
HETATM   10  H   UNL     1      41.962 -15.813   6.546  1.00  0.00     0.169 HD
BRANCH   8  11
HETATM   11  C   UNL     1      43.640 -17.738   4.500  1.00  0.00     0.032 A 
HETATM   12  C   UNL     1      44.025 -19.040   4.845  1.00  0.00     0.019 A 
HETATM   13  C   UNL     1      44.035 -20.057   3.885  1.00  0.00     0.024 A 
HETATM   14  C   UNL     1      43.706 -19.787   2.555  1.00  0.00     0.005 A 
HETATM   15  C   UNL     1      43.292 -18.495   2.219  1.00  0.00     0.024 A 
HETATM   16  C   UNL     1      43.275 -17.472   3.176  1.00  0.00     0.019 A 
BRANCH  14  17
HETATM   17  N   UNL     1      43.548 -20.836   1.643  1.00  0.00    -0.303 NA
HETATM   18  H   UNL     1      43.547 -20.539   0.672  1.00  0.00     0.124 HD
HETATM   19  H   UNL     1      42.773 -21.456   1.857  1.00  0.00     0.124 HD
ENDBRANCH  14  17
ENDBRANCH   8  11
ENDBRANCH   2   7
BRANCH   1  20
HETATM   20  O   UNL     1      43.722 -13.723   5.994  1.00  0.00    -0.348 OA
BRANCH  20  21
HETATM   21  C   UNL     1      43.268 -12.924   7.101  1.00  0.00     0.171 C 
HETATM   22  C   UNL     1      44.314 -11.886   7.469  1.00  0.00     0.034 C 
ENDBRANCH  20  21
ENDBRANCH   1  20
BRANCH   6  23
HETATM   23  C   UNL     1      43.594 -11.436   4.100  1.00  0.00     0.252 C 
HETATM   24  N   UNL     1      44.901 -11.605   3.744  1.00  0.00    -0.366 N 
HETATM   25  H   UNL     1      45.274 -12.503   3.460  1.00  0.00     0.159 HD
HETATM   26  H   UNL     1      45.499 -10.791   3.707  1.00  0.00     0.159 HD
HETATM   27  O   UNL     1      43.155 -10.328   4.387  1.00  0.00    -0.268 OA
ENDBRANCH   6  23
BRANCH   4  28
HETATM   28  N   UNL     1      40.126 -13.793   1.712  1.00  0.00    -0.323 N 
HETATM   29  C   UNL     1      40.399 -14.275   0.446  1.00  0.00     0.256 C 
HETATM   30  O   UNL     1      41.352 -14.980   0.137  1.00  0.00    -0.267 OA
HETATM   31  H   UNL     1      39.233 -13.339   1.846  1.00  0.00     0.169 HD
BRANCH  29  32
HETATM   32  C   UNL     1      39.412 -13.888  -0.615  1.00  0.00     0.032 A 
HETATM   33  C   UNL     1      39.130 -14.703  -1.720  1.00  0.00     0.019 A 
HETATM   34  C   UNL     1      38.184 -14.302  -2.672  1.00  0.00     0.024 A 
HETATM   35  C   UNL     1      37.520 -13.080  -2.554  1.00  0.00     0.005 A 
HETATM   36  C   UNL     1      37.740 -12.312  -1.407  1.00  0.00     0.024 A 
HETATM   37  C   UNL     1      38.691 -12.700  -0.455  1.00  0.00     0.019 A 
BRANCH  35  38
HETATM   38  N   UNL     1      36.483 -12.756  -3.432  1.00  0.00    -0.303 NA
HETATM   39  H   UNL     1      36.741 -12.087  -4.152  1.00  0.00     0.124 HD
HETATM   40  H   UNL     1      35.612 -12.507  -2.973  1.00  0.00     0.124 HD
ENDBRANCH  35  38
ENDBRANCH  29  32
ENDBRANCH   4  28
TORSDOF 9
ENDMDL
MODEL 9
REMARK VINA RESULT:      -8.1      3.058      7.883
REMARK  9 active torsions:
REMARK  status: ('A' for Active; 'I' for Inactive)
REMARK    1  A    between atoms: C_2  and  O_3 
REMARK    2  A    between atoms: O_3  and  C_4 
REMARK    3  A    between atoms: C_5  and  N_6 
REMARK       I    between atoms: N_6  and  C_7 
REMARK    4  A    between atoms: C_7  and  C_8 
REMARK    5  A    between atoms: C_11  and  N_12 
REMARK    6  A    between atoms: C_17  and  N_18 
REMARK       I    between atoms: N_18  and  C_19 
REMARK    7  A    between atoms: C_19  and  C_20 
REMARK    8  A    between atoms: C_23  and  N_24 
REMARK    9  A    between atoms: C_29  and  C_30 
REMARK       I    between atoms: C_30  and  N_31 
ROOT
HETATM    1  C   UNL     1      43.139 -10.914   7.040  1.00  0.00     0.111 A 
HETATM    2  C   UNL     1      42.033 -11.622   6.527  1.00  0.00     0.071 A 
HETATM    3  C   UNL     1      42.187 -12.949   6.103  1.00  0.00     0.062 A 
HETATM    4  C   UNL     1      43.433 -13.580   6.213  1.00  0.00     0.038 A 
HETATM    5  C   UNL     1      44.521 -12.867   6.735  1.00  0.00     0.049 A 
HETATM    6  C   UNL     1      44.376 -11.549   7.185  1.00  0.00     0.069 A 
ENDROOT
BRANCH   2   7
HETATM    7  N   UNL     1      40.784 -10.951   6.561  1.00  0.00    -0.320 N 
HETATM    8  C   UNL     1      39.576 -11.428   6.111  1.00  0.00     0.256 C 
HETATM    9  O   UNL     1      38.649 -11.591   6.901  1.00  0.00    -0.267 OA
HETATM   10  H   UNL     1      40.688 -10.394   7.407  1.00  0.00     0.169 HD
BRANCH   8  11
HETATM   11  C   UNL     1      39.327 -11.490   4.639  1.00  0.00     0.032 A 
HETATM   12  C   UNL     1      39.420 -12.735   4.006  1.00  0.00     0.019 A 
HETATM   13  C   UNL     1      39.017 -12.889   2.675  1.00  0.00     0.024 A 
HETATM   14  C   UNL     1      38.556 -11.797   1.938  1.00  0.00     0.005 A 
HETATM   15  C   UNL     1      38.434 -10.562   2.581  1.00  0.00     0.024 A 
HETATM   16  C   UNL     1      38.831 -10.401   3.914  1.00  0.00     0.019 A 
BRANCH  14  17
HETATM   17  N   UNL     1      37.992 -11.990   0.672  1.00  0.00    -0.303 NA
HETATM   18  H   UNL     1      37.511 -12.878   0.569  1.00  0.00     0.124 HD
HETATM   19  H   UNL     1      38.628 -11.805  -0.096  1.00  0.00     0.124 HD
ENDBRANCH  14  17
ENDBRANCH   8  11
ENDBRANCH   2   7
BRANCH   1  20
HETATM   20  O   UNL     1      42.928  -9.613   7.442  1.00  0.00    -0.348 OA
BRANCH  20  21
HETATM   21  C   UNL     1      42.552  -9.538   8.829  1.00  0.00     0.171 C 
HETATM   22  C   UNL     1      43.177  -8.318   9.481  1.00  0.00     0.034 C 
ENDBRANCH  20  21
ENDBRANCH   1  20
BRANCH   6  23
HETATM   23  C   UNL     1      45.558 -10.937   7.846  1.00  0.00     0.252 C 
HETATM   24  N   UNL     1      46.510 -10.377   7.044  1.00  0.00    -0.366 N 
HETATM   25  H   UNL     1      46.430 -10.363   6.035  1.00  0.00     0.159 HD
HETATM   26  H   UNL     1      47.292  -9.908   7.481  1.00  0.00     0.159 HD
HETATM   27  O   UNL     1      45.652 -10.893   9.067  1.00  0.00    -0.268 OA
ENDBRANCH   6  23
BRANCH   4  28
HETATM   28  N   UNL     1      43.679 -14.937   5.909  1.00  0.00    -0.323 N 
HETATM   29  C   UNL     1      43.438 -15.599   4.719  1.00  0.00     0.256 C 
HETATM   30  O   UNL     1      43.138 -15.073   3.655  1.00  0.00    -0.267 OA
HETATM   31  H   UNL     1      44.050 -15.489   6.671  1.00  0.00     0.169 HD
BRANCH  29  32
HETATM   32  C   UNL     1      43.577 -17.092   4.774  1.00  0.00     0.032 A 
HETATM   33  C   UNL     1      43.810 -17.872   3.633  1.00  0.00     0.019 A 
HETATM   34  C   UNL     1      43.951 -19.261   3.744  1.00  0.00     0.024 A 
HETATM   35  C   UNL     1      43.844 -19.897   4.982  1.00  0.00     0.005 A 
HETATM   36  C   UNL     1      43.699 -19.107   6.125  1.00  0.00     0.024 A 
HETATM   37  C   UNL     1      43.547 -17.719   6.024  1.00  0.00     0.019 A 
BRANCH  35  38
HETATM   38  N   UNL     1      44.123 -21.262   5.097  1.00  0.00    -0.303 NA
HETATM   39  H   UNL     1      43.370 -21.868   4.785  1.00  0.00     0.124 HD
HETATM   40  H   UNL     1      44.485 -21.536   6.006  1.00  0.00     0.124 HD
ENDBRANCH  35  38
ENDBRANCH  29  32
ENDBRANCH   4  28
TORSDOF 9
ENDMDL
MODEL 10
REMARK VINA RESULT:      -8.1      4.270      7.766
REMARK  9 active torsions:
REMARK  status: ('A' for Active; 'I' for Inactive)
REMARK    1  A    between atoms: C_2  and  O_3 
REMARK    2  A    between atoms: O_3  and  C_4 
REMARK    3  A    between atoms: C_5  and  N_6 
REMARK       I    between atoms: N_6  and  C_7 
REMARK    4  A    between atoms: C_7  and  C_8 
REMARK    5  A    between atoms: C_11  and  N_12 
REMARK    6  A    between atoms: C_17  and  N_18 
REMARK       I    between atoms: N_18  and  C_19 
REMARK    7  A    between atoms: C_19  and  C_20 
REMARK    8  A    between atoms: C_23  and  N_24 
REMARK    9  A    between atoms: C_29  and  C_30 
REMARK       I    between atoms: C_30  and  N_31 
ROOT
HETATM    1  C   UNL     1      41.535  -9.968   7.145  1.00  0.00     0.111 A 
HETATM    2  C   UNL     1      42.907 -10.290   7.155  1.00  0.00     0.071 A 
HETATM    3  C   UNL     1      43.345 -11.503   6.605  1.00  0.00     0.062 A 
HETATM    4  C   UNL     1      42.423 -12.382   6.023  1.00  0.00     0.038 A 
HETATM    5  C   UNL     1      41.063 -12.043   6.011  1.00  0.00     0.049 A 
HETATM    6  C   UNL     1      40.614 -10.825   6.535  1.00  0.00     0.069 A 
ENDROOT
BRANCH   2   7
HETATM    7  N   UNL     1      43.784  -9.294   7.654  1.00  0.00    -0.320 N 
HETATM    8  C   UNL     1      44.657  -9.414   8.708  1.00  0.00     0.256 C 
HETATM    9  O   UNL     1      45.867  -9.305   8.519  1.00  0.00    -0.267 OA
HETATM   10  H   UNL     1      44.166  -8.728   6.900  1.00  0.00     0.169 HD
BRANCH   8  11
HETATM   11  C   UNL     1      44.114  -9.412  10.100  1.00  0.00     0.032 A 
HETATM   12  C   UNL     1      43.648  -8.200  10.625  1.00  0.00     0.019 A 
HETATM   13  C   UNL     1      42.961  -8.170  11.844  1.00  0.00     0.024 A 
HETATM   14  C   UNL     1      42.763  -9.339  12.581  1.00  0.00     0.005 A 
HETATM   15  C   UNL     1      43.200 -10.551  12.040  1.00  0.00     0.024 A 
HETATM   16  C   UNL     1      43.886 -10.590  10.819  1.00  0.00     0.019 A 
BRANCH  14  17
HETATM   17  N   UNL     1      41.927  -9.330  13.703  1.00  0.00    -0.303 NA
HETATM   18  H   UNL     1      42.279  -8.768  14.472  1.00  0.00     0.124 HD
HETATM   19  H   UNL     1      41.629 -10.252  14.004  1.00  0.00     0.124 HD
ENDBRANCH  14  17
ENDBRANCH   8  11
ENDBRANCH   2   7
BRANCH   1  20
HETATM   20  O   UNL     1      41.162  -8.762   7.699  1.00  0.00    -0.348 OA
BRANCH  20  21
HETATM   21  C   UNL     1      40.551  -8.935   8.990  1.00  0.00     0.171 C 
HETATM   22  C   UNL     1      39.510  -7.857   9.232  1.00  0.00     0.034 C 
ENDBRANCH  20  21
ENDBRANCH   1  20
BRANCH   6  23
HETATM   23  C   UNL     1      39.175 -10.508   6.345  1.00  0.00     0.252 C 
HETATM   24  N   UNL     1      38.862  -9.440   5.555  1.00  0.00    -0.366 N 
HETATM   25  H   UNL     1      39.570  -8.876   5.100  1.00  0.00     0.159 HD
HETATM   26  H   UNL     1      37.887  -9.246   5.372  1.00  0.00     0.159 HD
HETATM   27  O   UNL     1      38.298 -11.208   6.840  1.00  0.00    -0.268 OA
ENDBRANCH   6  23
BRANCH   4  28
HETATM   28  N   UNL     1      42.762 -13.580   5.357  1.00  0.00    -0.323 N 
HETATM   29  C   UNL     1      42.883 -13.790   3.996  1.00  0.00     0.256 C 
HETATM   30  O   UNL     1      42.899 -12.920   3.135  1.00  0.00    -0.267 OA
HETATM   31  H   UNL     1      42.902 -14.382   5.957  1.00  0.00     0.169 HD
BRANCH  29  32
HETATM   32  C   UNL     1      43.018 -15.225   3.577  1.00  0.00     0.032 A 
HETATM   33  C   UNL     1      43.053 -15.619   2.232  1.00  0.00     0.019 A 
HETATM   34  C   UNL     1      43.199 -16.971   1.896  1.00  0.00     0.024 A 
HETATM   35  C   UNL     1      43.292 -17.951   2.885  1.00  0.00     0.005 A 
HETATM   36  C   UNL     1      43.343 -17.545   4.221  1.00  0.00     0.024 A 
HETATM   37  C   UNL     1      43.188 -16.197   4.568  1.00  0.00     0.019 A 
BRANCH  35  38
HETATM   38  N   UNL     1      43.575 -19.276   2.539  1.00  0.00    -0.303 NA
HETATM   39  H   UNL     1      43.536 -19.926   3.318  1.00  0.00     0.124 HD
HETATM   40  H   UNL     1      44.420 -19.388   1.987  1.00  0.00     0.124 HD
ENDBRANCH  35  38
ENDBRANCH  29  32
ENDBRANCH   4  28
TORSDOF 9
ENDMDL
