MODEL 1
REMARK VINA RESULT:      -9.2      0.000      0.000
REMARK  6 active torsions:
REMARK  status: ('A' for Active; 'I' for Inactive)
REMARK    1  A    between atoms: C_5  and  N_6 
REMARK       I    between atoms: N_6  and  C_7 
REMARK    2  A    between atoms: C_7  and  C_8 
REMARK    3  A    between atoms: C_8  and  N_9 
REMARK    4  A    between atoms: C_12  and  C_13 
REMARK       I    between atoms: C_13  and  N_14 
REMARK    5  A    between atoms: N_14  and  N_15 
REMARK       I    between atoms: N_15  and  C_16 
REMARK       I    between atoms: C_16  and  N_17 
REMARK    6  A    between atoms: N_17  and  C_18 
ROOT
HETATM    1  N   UNL     1      42.803 -13.199   3.818  1.00  0.00    -0.358 N 
HETATM    2  C   UNL     1      42.474 -13.780   4.996  1.00  0.00     0.092 A 
HETATM    3  C   UNL     1      42.882 -13.218   6.198  1.00  0.00     0.034 A 
HETATM    4  C   UNL     1      43.635 -12.043   6.189  1.00  0.00     0.036 A 
HETATM    5  C   UNL     1      43.987 -11.472   4.968  1.00  0.00     0.034 A 
HETATM    6  C   UNL     1      43.556 -12.073   3.790  1.00  0.00     0.092 A 
ENDROOT
BRANCH   4   7
HETATM    7  C   UNL     1      43.923 -11.390   7.493  1.00  0.00     0.270 C 
HETATM    8  N   UNL     1      42.867 -10.792   8.144  1.00  0.00    -0.262 N 
HETATM    9  H   UNL     1      42.041 -10.441   7.659  1.00  0.00     0.190 HD
HETATM   10  O   UNL     1      45.064 -11.419   7.944  1.00  0.00    -0.266 OA
BRANCH   8  11
HETATM   11  N   UNL     1      43.146 -10.130   9.355  1.00  0.00    -0.249 N 
HETATM   12  C   UNL     1      42.154  -9.301   9.838  1.00  0.00     0.335 C 
HETATM   13  N   UNL     1      42.550  -8.653  10.979  1.00  0.00    -0.337 N 
HETATM   14  O   UNL     1      41.058  -9.199   9.300  1.00  0.00    -0.246 OA
HETATM   15  H   UNL     1      43.277  -9.124  11.502  1.00  0.00     0.164 HD
HETATM   16  H   UNL     1      44.104  -9.792   9.440  1.00  0.00     0.192 HD
BRANCH  13  17
HETATM   17  C   UNL     1      41.641  -7.797  11.735  1.00  0.00     0.086 C 
HETATM   18  C   UNL     1      40.680  -8.613  12.613  1.00  0.00     0.025 C 
HETATM   19  C   UNL     1      41.386  -9.272  13.796  1.00  0.00     0.002 C 
HETATM   20  C   UNL     1      42.154  -8.252  14.630  1.00  0.00     0.000 C 
HETATM   21  C   UNL     1      43.129  -7.443  13.780  1.00  0.00     0.002 C 
HETATM   22  C   UNL     1      42.436  -6.792  12.581  1.00  0.00     0.025 C 
ENDBRANCH  13  17
ENDBRANCH   8  11
ENDBRANCH   4   7
BRANCH   1  23
HETATM   23  C   UNL     1      42.223 -13.726   2.554  1.00  0.00     0.230 C 
BRANCH  23  24
HETATM   24  C   UNL     1      42.122 -15.238   2.703  1.00  0.00     0.240 C 
HETATM   25  N   UNL     1      43.341 -15.888   2.785  1.00  0.00    -0.326 N 
HETATM   26  H   UNL     1      44.188 -15.392   2.528  1.00  0.00     0.169 HD
HETATM   27  O   UNL     1      41.012 -15.759   2.778  1.00  0.00    -0.271 OA
BRANCH  25  28
HETATM   28  C   UNL     1      43.548 -17.242   3.141  1.00  0.00     0.034 A 
HETATM   29  C   UNL     1      43.378 -18.315   2.264  1.00  0.00     0.030 A 
HETATM   30  C   UNL     1      43.562 -19.631   2.705  1.00  0.00     0.009 A 
HETATM   31  C   UNL     1      43.928 -19.895   4.027  1.00  0.00    -0.062 A 
HETATM   32  C   UNL     1      44.083 -21.310   4.503  1.00  0.00     0.048 C 
HETATM   33  C   UNL     1      44.088 -18.824   4.909  1.00  0.00     0.009 A 
HETATM   34  C   UNL     1      43.901 -17.509   4.469  1.00  0.00     0.030 A 
ENDBRANCH  25  28
ENDBRANCH  23  24
ENDBRANCH   1  23
TORSDOF 6
ENDMDL
MODEL 2
REMARK VINA RESULT:      -8.5      1.681      2.080
REMARK  6 active torsions:
REMARK  status: ('A' for Active; 'I' for Inactive)
REMARK    1  A    between atoms: C_5  and  N_6 
REMARK       I    between atoms: N_6  and  C_7 
REMARK    2  A    between atoms: C_7  and  C_8 
REMARK    3  A    between atoms: C_8  and  N_9 
REMARK    4  A    between atoms: C_12  and  C_13 
REMARK       I    between atoms: C_13  and  N_14 
REMARK    5  A    between atoms: N_14  and  N_15 
REMARK       I    between atoms: N_15  and  C_16 
REMARK       I    between atoms: C_16  and  N_17 
REMARK    6  A    between atoms: N_17  and  C_18 
ROOT
HETATM    1  N   UNL     1      41.218 -13.167   3.039  1.00  0.00    -0.358 N 
HETATM    2  C   UNL     1      40.090 -13.280   3.778  1.00  0.00     0.092 A 
HETATM    3  C   UNL     1      39.910 -12.503   4.914  1.00  0.00     0.034 A 
HETATM    4  C   UNL     1      40.900 -11.595   5.292  1.00  0.00     0.036 A 
HETATM    5  C   UNL     1      42.066 -11.509   4.535  1.00  0.00     0.034 A 
HETATM    6  C   UNL     1      42.201 -12.310   3.406  1.00  0.00     0.092 A 
ENDROOT
BRANCH   4   7
HETATM    7  C   UNL     1      40.608 -10.675   6.422  1.00  0.00     0.270 C 
HETATM    8  N   UNL     1      41.549 -10.590   7.423  1.00  0.00    -0.262 N 
HETATM    9  H   UNL     1      42.201 -11.344   7.641  1.00  0.00     0.190 HD
HETATM   10  O   UNL     1      39.569 -10.020   6.415  1.00  0.00    -0.266 OA
BRANCH   8  11
HETATM   11  N   UNL     1      41.253  -9.755   8.519  1.00  0.00    -0.249 N 
HETATM   12  C   UNL     1      42.333  -9.159   9.139  1.00  0.00     0.335 C 
HETATM   13  N   UNL     1      41.946  -8.427  10.230  1.00  0.00    -0.337 N 
HETATM   14  O   UNL     1      43.479  -9.274   8.723  1.00  0.00    -0.246 OA
HETATM   15  H   UNL     1      40.987  -8.105  10.205  1.00  0.00     0.164 HD
HETATM   16  H   UNL     1      40.513 -10.104   9.127  1.00  0.00     0.192 HD
BRANCH  13  17
HETATM   17  C   UNL     1      42.894  -7.622  10.995  1.00  0.00     0.086 C 
HETATM   18  C   UNL     1      42.223  -6.393  11.628  1.00  0.00     0.025 C 
HETATM   19  C   UNL     1      41.285  -6.764  12.775  1.00  0.00     0.002 C 
HETATM   20  C   UNL     1      41.995  -7.603  13.831  1.00  0.00     0.000 C 
HETATM   21  C   UNL     1      42.653  -8.840  13.226  1.00  0.00     0.002 C 
HETATM   22  C   UNL     1      43.581  -8.482  12.065  1.00  0.00     0.025 C 
ENDBRANCH  13  17
ENDBRANCH   8  11
ENDBRANCH   4   7
BRANCH   1  23
HETATM   23  C   UNL     1      41.320 -13.890   1.743  1.00  0.00     0.230 C 
BRANCH  23  24
HETATM   24  C   UNL     1      41.530 -15.363   2.067  1.00  0.00     0.240 C 
HETATM   25  N   UNL     1      42.815 -15.683   2.470  1.00  0.00    -0.326 N 
HETATM   26  H   UNL     1      43.564 -15.015   2.320  1.00  0.00     0.169 HD
HETATM   27  O   UNL     1      40.577 -16.134   1.991  1.00  0.00    -0.271 OA
BRANCH  25  28
HETATM   28  C   UNL     1      43.236 -16.911   3.033  1.00  0.00     0.034 A 
HETATM   29  C   UNL     1      43.344 -18.104   2.316  1.00  0.00     0.030 A 
HETATM   30  C   UNL     1      43.729 -19.287   2.957  1.00  0.00     0.009 A 
HETATM   31  C   UNL     1      44.020 -19.296   4.324  1.00  0.00    -0.062 A 
HETATM   32  C   UNL     1      44.391 -20.576   5.013  1.00  0.00     0.048 C 
HETATM   33  C   UNL     1      43.901 -18.106   5.046  1.00  0.00     0.009 A 
HETATM   34  C   UNL     1      43.514 -16.924   4.406  1.00  0.00     0.030 A 
ENDBRANCH  25  28
ENDBRANCH  23  24
ENDBRANCH   1  23
TORSDOF 6
ENDMDL
MODEL 3
REMARK VINA RESULT:      -8.4      1.606      2.094
REMARK  6 active torsions:
REMARK  status: ('A' for Active; 'I' for Inactive)
REMARK    1  A    between atoms: C_5  and  N_6 
REMARK       I    between atoms: N_6  and  C_7 
REMARK    2  A    between atoms: C_7  and  C_8 
REMARK    3  A    between atoms: C_8  and  N_9 
REMARK    4  A    between atoms: C_12  and  C_13 
REMARK       I    between atoms: C_13  and  N_14 
REMARK    5  A    between atoms: N_14  and  N_15 
REMARK       I    between atoms: N_15  and  C_16 
REMARK       I    between atoms: C_16  and  N_17 
REMARK    6  A    between atoms: N_17  and  C_18 
ROOT
HETATM    1  N   UNL     1      41.716 -12.058   4.177  1.00  0.00    -0.358 N 
HETATM    2  C   UNL     1      40.603 -11.481   4.687  1.00  0.00     0.092 A 
HETATM    3  C   UNL     1      40.676 -10.685   5.821  1.00  0.00     0.034 A 
HETATM    4  C   UNL     1      41.910 -10.476   6.437  1.00  0.00     0.036 A 
HETATM    5  C   UNL     1      43.043 -11.096   5.915  1.00  0.00     0.034 A 
HETATM    6  C   UNL     1      42.919 -11.887   4.778  1.00  0.00     0.092 A 
ENDROOT
BRANCH   4   7
HETATM    7  C   UNL     1      41.976  -9.498   7.555  1.00  0.00     0.270 C 
HETATM    8  N   UNL     1      41.544  -9.926   8.791  1.00  0.00    -0.262 N 
HETATM    9  H   UNL     1      40.863 -10.676   8.914  1.00  0.00     0.190 HD
HETATM   10  O   UNL     1      42.420  -8.372   7.348  1.00  0.00    -0.266 OA
BRANCH   8  11
HETATM   11  N   UNL     1      41.559  -8.988   9.841  1.00  0.00    -0.249 N 
HETATM   12  C   UNL     1      42.273  -9.345  10.967  1.00  0.00     0.335 C 
HETATM   13  N   UNL     1      42.168  -8.399  11.952  1.00  0.00    -0.337 N 
HETATM   14  O   UNL     1      42.929 -10.378  11.032  1.00  0.00    -0.246 OA
HETATM   15  H   UNL     1      41.951  -7.468  11.622  1.00  0.00     0.164 HD
HETATM   16  H   UNL     1      40.670  -8.515   9.997  1.00  0.00     0.192 HD
BRANCH  13  17
HETATM   17  C   UNL     1      42.914  -8.501  13.202  1.00  0.00     0.086 C 
HETATM   18  C   UNL     1      43.478  -7.142  13.646  1.00  0.00     0.025 C 
HETATM   19  C   UNL     1      42.388  -6.185  14.125  1.00  0.00     0.002 C 
HETATM   20  C   UNL     1      41.538  -6.809  15.226  1.00  0.00     0.000 C 
HETATM   21  C   UNL     1      40.952  -8.151  14.799  1.00  0.00     0.002 C 
HETATM   22  C   UNL     1      42.032  -9.112  14.300  1.00  0.00     0.025 C 
ENDBRANCH  13  17
ENDBRANCH   8  11
ENDBRANCH   4   7
BRANCH   1  23
HETATM   23  C   UNL     1      41.641 -12.773   2.875  1.00  0.00     0.230 C 
BRANCH  23  24
HETATM   24  C   UNL     1      41.665 -14.265   3.181  1.00  0.00     0.240 C 
HETATM   25  N   UNL     1      42.874 -14.884   2.919  1.00  0.00    -0.326 N 
HETATM   26  H   UNL     1      43.568 -14.402   2.359  1.00  0.00     0.169 HD
HETATM   27  O   UNL     1      40.663 -14.793   3.658  1.00  0.00    -0.271 OA
BRANCH  25  28
HETATM   28  C   UNL     1      43.247 -16.193   3.306  1.00  0.00     0.034 A 
HETATM   29  C   UNL     1      43.248 -17.292   2.445  1.00  0.00     0.030 A 
HETATM   30  C   UNL     1      43.592 -18.565   2.916  1.00  0.00     0.009 A 
HETATM   31  C   UNL     1      43.949 -18.758   4.253  1.00  0.00    -0.062 A 
HETATM   32  C   UNL     1      44.275 -20.132   4.760  1.00  0.00     0.048 C 
HETATM   33  C   UNL     1      43.937 -17.662   5.119  1.00  0.00     0.009 A 
HETATM   34  C   UNL     1      43.592 -16.391   4.649  1.00  0.00     0.030 A 
ENDBRANCH  25  28
ENDBRANCH  23  24
ENDBRANCH   1  23
TORSDOF 6
ENDMDL
MODEL 4
REMARK VINA RESULT:      -7.9      3.246      5.887
REMARK  6 active torsions:
REMARK  status: ('A' for Active; 'I' for Inactive)
REMARK    1  A    between atoms: C_5  and  N_6 
REMARK       I    between atoms: N_6  and  C_7 
REMARK    2  A    between atoms: C_7  and  C_8 
REMARK    3  A    between atoms: C_8  and  N_9 
REMARK    4  A    between atoms: C_12  and  C_13 
REMARK       I    between atoms: C_13  and  N_14 
REMARK    5  A    between atoms: N_14  and  N_15 
REMARK       I    between atoms: N_15  and  C_16 
REMARK       I    between atoms: C_16  and  N_17 
REMARK    6  A    between atoms: N_17  and  C_18 
ROOT
HETATM    1  N   UNL     1      42.792  -9.600   8.647  1.00  0.00    -0.358 N 
HETATM    2  C   UNL     1      43.612  -9.819   9.702  1.00  0.00     0.092 A 
HETATM    3  C   UNL     1      43.120  -9.776  10.999  1.00  0.00     0.034 A 
HETATM    4  C   UNL     1      41.768  -9.507  11.215  1.00  0.00     0.036 A 
HETATM    5  C   UNL     1      40.942  -9.260  10.120  1.00  0.00     0.034 A 
HETATM    6  C   UNL     1      41.482  -9.313   8.840  1.00  0.00     0.092 A 
ENDROOT
BRANCH   4   7
HETATM    7  C   UNL     1      41.247  -9.619  12.603  1.00  0.00     0.270 C 
HETATM    8  N   UNL     1      41.881  -8.877  13.574  1.00  0.00    -0.262 N 
HETATM    9  H   UNL     1      42.855  -8.583  13.503  1.00  0.00     0.190 HD
HETATM   10  O   UNL     1      40.278 -10.339  12.828  1.00  0.00    -0.266 OA
BRANCH   8  11
HETATM   11  N   UNL     1      41.421  -9.018  14.898  1.00  0.00    -0.249 N 
HETATM   12  C   UNL     1      41.645  -7.946  15.738  1.00  0.00     0.335 C 
HETATM   13  N   UNL     1      41.224  -8.210  17.015  1.00  0.00    -0.337 N 
HETATM   14  O   UNL     1      42.139  -6.895  15.349  1.00  0.00    -0.246 OA
HETATM   15  H   UNL     1      40.502  -8.915  17.085  1.00  0.00     0.164 HD
HETATM   16  H   UNL     1      41.560  -9.946  15.296  1.00  0.00     0.192 HD
BRANCH  13  17
HETATM   17  C   UNL     1      41.262  -7.196  18.064  1.00  0.00     0.086 C 
HETATM   18  C   UNL     1      39.924  -7.095  18.813  1.00  0.00     0.025 C 
HETATM   19  C   UNL     1      39.657  -8.310  19.700  1.00  0.00     0.002 C 
HETATM   20  C   UNL     1      40.807  -8.561  20.668  1.00  0.00     0.000 C 
HETATM   21  C   UNL     1      42.144  -8.684  19.943  1.00  0.00     0.002 C 
HETATM   22  C   UNL     1      42.414  -7.481  19.038  1.00  0.00     0.025 C 
ENDBRANCH  13  17
ENDBRANCH   8  11
ENDBRANCH   4   7
BRANCH   1  23
HETATM   23  C   UNL     1      43.303  -9.809   7.266  1.00  0.00     0.230 C 
BRANCH  23  24
HETATM   24  C   UNL     1      43.762 -11.258   7.172  1.00  0.00     0.240 C 
HETATM   25  N   UNL     1      42.778 -12.145   6.775  1.00  0.00    -0.326 N 
HETATM   26  H   UNL     1      41.808 -11.850   6.789  1.00  0.00     0.169 HD
HETATM   27  O   UNL     1      44.938 -11.528   7.405  1.00  0.00    -0.271 OA
BRANCH  25  28
HETATM   28  C   UNL     1      42.969 -13.496   6.396  1.00  0.00     0.034 A 
HETATM   29  C   UNL     1      42.970 -13.944   5.074  1.00  0.00     0.030 A 
HETATM   30  C   UNL     1      43.125 -15.305   4.785  1.00  0.00     0.009 A 
HETATM   31  C   UNL     1      43.291 -16.238   5.811  1.00  0.00    -0.062 A 
HETATM   32  C   UNL     1      43.414 -17.700   5.495  1.00  0.00     0.048 C 
HETATM   33  C   UNL     1      43.279 -15.793   7.135  1.00  0.00     0.009 A 
HETATM   34  C   UNL     1      43.121 -14.434   7.425  1.00  0.00     0.030 A 
ENDBRANCH  25  28
ENDBRANCH  23  24
ENDBRANCH   1  23
TORSDOF 6
ENDMDL
MODEL 5
REMARK VINA RESULT:      -7.9      3.363     11.413
REMARK  6 active torsions:
REMARK  status: ('A' for Active; 'I' for Inactive)
REMARK    1  A    between atoms: C_5  and  N_6 
REMARK       I    between atoms: N_6  and  C_7 
REMARK    2  A    between atoms: C_7  and  C_8 
REMARK    3  A    between atoms: C_8  and  N_9 
REMARK    4  A    between atoms: C_12  and  C_13 
REMARK       I    between atoms: C_13  and  N_14 
REMARK    5  A    between atoms: N_14  and  N_15 
REMARK       I    between atoms: N_15  and  C_16 
REMARK       I    between atoms: C_16  and  N_17 
REMARK    6  A    between atoms: N_17  and  C_18 
ROOT
HETATM    1  N   UNL     1      43.717 -11.382   7.180  1.00  0.00    -0.358 N 
HETATM    2  C   UNL     1      43.807 -12.722   7.009  1.00  0.00     0.092 A 
HETATM    3  C   UNL     1      43.162 -13.342   5.947  1.00  0.00     0.034 A 
HETATM    4  C   UNL     1      42.419 -12.575   5.049  1.00  0.00     0.036 A 
HETATM    5  C   UNL     1      42.317 -11.200   5.254  1.00  0.00     0.034 A 
HETATM    6  C   UNL     1      42.979 -10.626   6.333  1.00  0.00     0.092 A 
ENDROOT
BRANCH   4   7
HETATM    7  C   UNL     1      41.871 -13.248   3.842  1.00  0.00     0.270 C 
HETATM    8  N   UNL     1      40.922 -12.563   3.117  1.00  0.00    -0.262 N 
HETATM    9  H   UNL     1      40.316 -11.851   3.525  1.00  0.00     0.190 HD
HETATM   10  O   UNL     1      42.287 -14.360   3.529  1.00  0.00    -0.266 OA
BRANCH   8  11
HETATM   11  N   UNL     1      40.365 -13.218   2.001  1.00  0.00    -0.249 N 
HETATM   12  C   UNL     1      40.548 -12.601   0.779  1.00  0.00     0.335 C 
HETATM   13  N   UNL     1      39.912 -13.279  -0.227  1.00  0.00    -0.337 N 
HETATM   14  O   UNL     1      41.222 -11.587   0.646  1.00  0.00    -0.246 OA
HETATM   15  H   UNL     1      39.756 -14.261  -0.043  1.00  0.00     0.164 HD
HETATM   16  H   UNL     1      39.450 -13.634   2.169  1.00  0.00     0.192 HD
BRANCH  13  17
HETATM   17  C   UNL     1      40.038 -12.880  -1.625  1.00  0.00     0.086 C 
HETATM   18  C   UNL     1      40.179 -14.094  -2.558  1.00  0.00     0.025 C 
HETATM   19  C   UNL     1      38.881 -14.891  -2.680  1.00  0.00     0.002 C 
HETATM   20  C   UNL     1      37.717 -14.005  -3.109  1.00  0.00     0.000 C 
HETATM   21  C   UNL     1      37.548 -12.803  -2.184  1.00  0.00     0.002 C 
HETATM   22  C   UNL     1      38.846 -12.007  -2.040  1.00  0.00     0.025 C 
ENDBRANCH  13  17
ENDBRANCH   8  11
ENDBRANCH   4   7
BRANCH   1  23
HETATM   23  C   UNL     1      44.543 -10.721   8.226  1.00  0.00     0.230 C 
BRANCH  23  24
HETATM   24  C   UNL     1      43.581 -10.089   9.223  1.00  0.00     0.240 C 
HETATM   25  N   UNL     1      43.840 -10.402  10.546  1.00  0.00    -0.326 N 
HETATM   26  H   UNL     1      44.469 -11.168  10.762  1.00  0.00     0.169 HD
HETATM   27  O   UNL     1      42.699  -9.340   8.810  1.00  0.00    -0.271 OA
BRANCH  25  28
HETATM   28  C   UNL     1      43.256  -9.793  11.682  1.00  0.00     0.034 A 
HETATM   29  C   UNL     1      42.199 -10.346  12.408  1.00  0.00     0.030 A 
HETATM   30  C   UNL     1      41.648  -9.660  13.497  1.00  0.00     0.009 A 
HETATM   31  C   UNL     1      42.151  -8.415  13.884  1.00  0.00    -0.062 A 
HETATM   32  C   UNL     1      41.529  -7.667  15.026  1.00  0.00     0.048 C 
HETATM   33  C   UNL     1      43.201  -7.856  13.152  1.00  0.00     0.009 A 
HETATM   34  C   UNL     1      43.749  -8.539  12.062  1.00  0.00     0.030 A 
ENDBRANCH  25  28
ENDBRANCH  23  24
ENDBRANCH   1  23
TORSDOF 6
ENDMDL
MODEL 6
REMARK VINA RESULT:      -7.8      5.241      9.016
REMARK  6 active torsions:
REMARK  status: ('A' for Active; 'I' for Inactive)
REMARK    1  A    between atoms: C_5  and  N_6 
REMARK       I    between atoms: N_6  and  C_7 
REMARK    2  A    between atoms: C_7  and  C_8 
REMARK    3  A    between atoms: C_8  and  N_9 
REMARK    4  A    between atoms: C_12  and  C_13 
REMARK       I    between atoms: C_13  and  N_14 
REMARK    5  A    between atoms: N_14  and  N_15 
REMARK       I    between atoms: N_15  and  C_16 
REMARK       I    between atoms: C_16  and  N_17 
REMARK    6  A    between atoms: N_17  and  C_18 
ROOT
HETATM    1  N   UNL     1      42.416 -12.933   5.329  1.00  0.00    -0.358 N 
HETATM    2  C   UNL     1      43.355 -12.249   4.635  1.00  0.00     0.092 A 
HETATM    3  C   UNL     1      42.986 -11.278   3.715  1.00  0.00     0.034 A 
HETATM    4  C   UNL     1      41.634 -11.004   3.508  1.00  0.00     0.036 A 
HETATM    5  C   UNL     1      40.678 -11.734   4.211  1.00  0.00     0.034 A 
HETATM    6  C   UNL     1      41.098 -12.698   5.121  1.00  0.00     0.092 A 
ENDROOT
BRANCH   4   7
HETATM    7  C   UNL     1      41.280  -9.857   2.631  1.00  0.00     0.270 C 
HETATM    8  N   UNL     1      41.875  -9.808   1.390  1.00  0.00    -0.262 N 
HETATM    9  H   UNL     1      42.773 -10.245   1.185  1.00  0.00     0.190 HD
HETATM   10  O   UNL     1      40.473  -9.021   3.027  1.00  0.00    -0.266 OA
BRANCH   8  11
HETATM   11  N   UNL     1      41.579  -8.697   0.576  1.00  0.00    -0.249 N 
HETATM   12  C   UNL     1      41.389  -8.958  -0.766  1.00  0.00     0.335 C 
HETATM   13  N   UNL     1      41.176  -7.807  -1.479  1.00  0.00    -0.337 N 
HETATM   14  O   UNL     1      41.392 -10.095  -1.224  1.00  0.00    -0.246 OA
HETATM   15  H   UNL     1      40.809  -7.036  -0.937  1.00  0.00     0.164 HD
HETATM   16  H   UNL     1      42.104  -7.853   0.806  1.00  0.00     0.192 HD
BRANCH  13  17
HETATM   17  C   UNL     1      40.851  -7.830  -2.901  1.00  0.00     0.086 C 
HETATM   18  C   UNL     1      39.975  -6.636  -3.309  1.00  0.00     0.025 C 
HETATM   19  C   UNL     1      40.741  -5.314  -3.286  1.00  0.00     0.002 C 
HETATM   20  C   UNL     1      42.002  -5.382  -4.140  1.00  0.00     0.000 C 
HETATM   21  C   UNL     1      42.897  -6.551  -3.739  1.00  0.00     0.002 C 
HETATM   22  C   UNL     1      42.136  -7.878  -3.741  1.00  0.00     0.025 C 
ENDBRANCH  13  17
ENDBRANCH   8  11
ENDBRANCH   4   7
BRANCH   1  23
HETATM   23  C   UNL     1      42.835 -13.852   6.421  1.00  0.00     0.230 C 
BRANCH  23  24
HETATM   24  C   UNL     1      42.630 -15.273   5.914  1.00  0.00     0.240 C 
HETATM   25  N   UNL     1      43.196 -15.527   4.677  1.00  0.00    -0.326 N 
HETATM   26  H   UNL     1      43.498 -14.750   4.100  1.00  0.00     0.169 HD
HETATM   27  O   UNL     1      42.036 -16.081   6.624  1.00  0.00    -0.271 OA
BRANCH  25  28
HETATM   28  C   UNL     1      43.349 -16.796   4.070  1.00  0.00     0.034 A 
HETATM   29  C   UNL     1      44.170 -17.809   4.571  1.00  0.00     0.030 A 
HETATM   30  C   UNL     1      44.300 -19.024   3.888  1.00  0.00     0.009 A 
HETATM   31  C   UNL     1      43.604 -19.250   2.697  1.00  0.00    -0.062 A 
HETATM   32  C   UNL     1      43.782 -20.538   1.948  1.00  0.00     0.048 C 
HETATM   33  C   UNL     1      42.792 -18.234   2.187  1.00  0.00     0.009 A 
HETATM   34  C   UNL     1      42.665 -17.019   2.869  1.00  0.00     0.030 A 
ENDBRANCH  25  28
ENDBRANCH  23  24
ENDBRANCH   1  23
TORSDOF 6
ENDMDL
MODEL 7
REMARK VINA RESULT:      -7.8      4.977      9.165
REMARK  6 active torsions:
REMARK  status: ('A' for Active; 'I' for Inactive)
REMARK    1  A    between atoms: C_5  and  N_6 
REMARK       I    between atoms: N_6  and  C_7 
REMARK    2  A    between atoms: C_7  and  C_8 
REMARK    3  A    between atoms: C_8  and  N_9 
REMARK    4  A    between atoms: C_12  and  C_13 
REMARK       I    between atoms: C_13  and  N_14 
REMARK    5  A    between atoms: N_14  and  N_15 
REMARK       I    between atoms: N_15  and  C_16 
REMARK       I    between atoms: C_16  and  N_17 
REMARK    6  A    between atoms: N_17  and  C_18 
ROOT
HETATM    1  N   UNL     1      42.097 -13.336   5.966  1.00  0.00    -0.358 N 
HETATM    2  C   UNL     1      40.789 -13.545   5.690  1.00  0.00     0.092 A 
HETATM    3  C   UNL     1      40.141 -12.785   4.725  1.00  0.00     0.034 A 
HETATM    4  C   UNL     1      40.848 -11.801   4.034  1.00  0.00     0.036 A 
HETATM    5  C   UNL     1      42.188 -11.582   4.347  1.00  0.00     0.034 A 
HETATM    6  C   UNL     1      42.792 -12.367   5.323  1.00  0.00     0.092 A 
ENDROOT
BRANCH   4   7
HETATM    7  C   UNL     1      40.166 -11.113   2.906  1.00  0.00     0.270 C 
HETATM    8  N   UNL     1      39.033 -11.710   2.399  1.00  0.00    -0.262 N 
HETATM    9  H   UNL     1      38.855 -12.712   2.463  1.00  0.00     0.190 HD
HETATM   10  O   UNL     1      40.615 -10.051   2.486  1.00  0.00    -0.266 OA
BRANCH   8  11
HETATM   11  N   UNL     1      38.412 -11.086   1.300  1.00  0.00    -0.249 N 
HETATM   12  C   UNL     1      38.564 -11.712   0.079  1.00  0.00     0.335 C 
HETATM   13  N   UNL     1      37.985 -10.992  -0.933  1.00  0.00    -0.337 N 
HETATM   14  O   UNL     1      39.133 -12.791  -0.044  1.00  0.00    -0.246 OA
HETATM   15  H   UNL     1      37.240 -10.375  -0.639  1.00  0.00     0.164 HD
HETATM   16  H   UNL     1      38.475 -10.069   1.301  1.00  0.00     0.192 HD
BRANCH  13  17
HETATM   17  C   UNL     1      37.925 -11.495  -2.301  1.00  0.00     0.086 C 
HETATM   18  C   UNL     1      36.501 -11.432  -2.875  1.00  0.00     0.025 C 
HETATM   19  C   UNL     1      36.046 -10.001  -3.153  1.00  0.00     0.002 C 
HETATM   20  C   UNL     1      37.031  -9.264  -4.055  1.00  0.00     0.000 C 
HETATM   21  C   UNL     1      38.449  -9.299  -3.494  1.00  0.00     0.002 C 
HETATM   22  C   UNL     1      38.909 -10.727  -3.195  1.00  0.00     0.025 C 
ENDBRANCH  13  17
ENDBRANCH   8  11
ENDBRANCH   4   7
BRANCH   1  23
HETATM   23  C   UNL     1      42.809 -14.265   6.884  1.00  0.00     0.230 C 
BRANCH  23  24
HETATM   24  C   UNL     1      42.663 -15.667   6.307  1.00  0.00     0.240 C 
HETATM   25  N   UNL     1      43.126 -15.803   5.010  1.00  0.00    -0.326 N 
HETATM   26  H   UNL     1      43.314 -14.972   4.460  1.00  0.00     0.169 HD
HETATM   27  O   UNL     1      42.200 -16.559   7.014  1.00  0.00    -0.271 OA
BRANCH  25  28
HETATM   28  C   UNL     1      43.315 -17.018   4.311  1.00  0.00     0.034 A 
HETATM   29  C   UNL     1      44.073 -18.087   4.792  1.00  0.00     0.030 A 
HETATM   30  C   UNL     1      44.246 -19.242   4.019  1.00  0.00     0.009 A 
HETATM   31  C   UNL     1      43.657 -19.350   2.757  1.00  0.00    -0.062 A 
HETATM   32  C   UNL     1      43.882 -20.573   1.917  1.00  0.00     0.048 C 
HETATM   33  C   UNL     1      42.908 -18.277   2.268  1.00  0.00     0.009 A 
HETATM   34  C   UNL     1      42.737 -17.122   3.039  1.00  0.00     0.030 A 
ENDBRANCH  25  28
ENDBRANCH  23  24
ENDBRANCH   1  23
TORSDOF 6
ENDMDL
MODEL 8
REMARK VINA RESULT:      -7.5      3.130      4.839
REMARK  6 active torsions:
REMARK  status: ('A' for Active; 'I' for Inactive)
REMARK    1  A    between atoms: C_5  and  N_6 
REMARK       I    between atoms: N_6  and  C_7 
REMARK    2  A    between atoms: C_7  and  C_8 
REMARK    3  A    between atoms: C_8  and  N_9 
REMARK    4  A    between atoms: C_12  and  C_13 
REMARK       I    between atoms: C_13  and  N_14 
REMARK    5  A    between atoms: N_14  and  N_15 
REMARK       I    between atoms: N_15  and  C_16 
REMARK       I    between atoms: C_16  and  N_17 
REMARK    6  A    between atoms: N_17  and  C_18 
ROOT
HETATM    1  N   UNL     1      42.919 -12.681   3.547  1.00  0.00    -0.358 N 
HETATM    2  C   UNL     1      42.810 -13.183   4.800  1.00  0.00     0.092 A 
HETATM    3  C   UNL     1      42.477 -12.357   5.864  1.00  0.00     0.034 A 
HETATM    4  C   UNL     1      42.251 -10.999   5.638  1.00  0.00     0.036 A 
HETATM    5  C   UNL     1      42.392 -10.493   4.348  1.00  0.00     0.034 A 
HETATM    6  C   UNL     1      42.728 -11.360   3.314  1.00  0.00     0.092 A 
ENDROOT
BRANCH   4   7
HETATM    7  C   UNL     1      41.749 -10.177   6.770  1.00  0.00     0.270 C 
HETATM    8  N   UNL     1      42.296 -10.416   8.012  1.00  0.00    -0.262 N 
HETATM    9  H   UNL     1      42.701 -11.313   8.278  1.00  0.00     0.190 HD
HETATM   10  O   UNL     1      40.896  -9.318   6.562  1.00  0.00    -0.266 OA
BRANCH   8  11
HETATM   11  N   UNL     1      41.788  -9.672   9.095  1.00  0.00    -0.249 N 
HETATM   12  C   UNL     1      42.716  -8.985   9.850  1.00  0.00     0.335 C 
HETATM   13  N   UNL     1      42.131  -8.353  10.916  1.00  0.00    -0.337 N 
HETATM   14  O   UNL     1      43.906  -8.947   9.559  1.00  0.00    -0.246 OA
HETATM   15  H   UNL     1      41.149  -8.144  10.796  1.00  0.00     0.164 HD
HETATM   16  H   UNL     1      41.035 -10.132   9.606  1.00  0.00     0.192 HD
BRANCH  13  17
HETATM   17  C   UNL     1      42.890  -7.480  11.806  1.00  0.00     0.086 C 
HETATM   18  C   UNL     1      42.121  -6.192  12.138  1.00  0.00     0.025 C 
HETATM   19  C   UNL     1      40.924  -6.444  13.054  1.00  0.00     0.002 C 
HETATM   20  C   UNL     1      41.337  -7.177  14.326  1.00  0.00     0.000 C 
HETATM   21  C   UNL     1      42.087  -8.470  14.019  1.00  0.00     0.002 C 
HETATM   22  C   UNL     1      43.277  -8.231  13.087  1.00  0.00     0.025 C 
ENDBRANCH  13  17
ENDBRANCH   8  11
ENDBRANCH   4   7
BRANCH   1  23
HETATM   23  C   UNL     1      43.119 -13.609   2.402  1.00  0.00     0.230 C 
BRANCH  23  24
HETATM   24  C   UNL     1      41.749 -13.860   1.784  1.00  0.00     0.240 C 
HETATM   25  N   UNL     1      41.466 -13.072   0.683  1.00  0.00    -0.326 N 
HETATM   26  H   UNL     1      42.042 -12.261   0.489  1.00  0.00     0.169 HD
HETATM   27  O   UNL     1      41.031 -14.736   2.259  1.00  0.00    -0.271 OA
BRANCH  25  28
HETATM   28  C   UNL     1      40.379 -13.238  -0.209  1.00  0.00     0.034 A 
HETATM   29  C   UNL     1      40.270 -14.288  -1.122  1.00  0.00     0.030 A 
HETATM   30  C   UNL     1      39.182 -14.358  -2.000  1.00  0.00     0.009 A 
HETATM   31  C   UNL     1      38.179 -13.384  -1.972  1.00  0.00    -0.062 A 
HETATM   32  C   UNL     1      37.038 -13.443  -2.945  1.00  0.00     0.048 C 
HETATM   33  C   UNL     1      38.292 -12.326  -1.067  1.00  0.00     0.009 A 
HETATM   34  C   UNL     1      39.381 -12.255  -0.192  1.00  0.00     0.030 A 
ENDBRANCH  25  28
ENDBRANCH  23  24
ENDBRANCH   1  23
TORSDOF 6
ENDMDL
MODEL 9
REMARK VINA RESULT:      -7.5      3.225      5.397
REMARK  6 active torsions:
REMARK  status: ('A' for Active; 'I' for Inactive)
REMARK    1  A    between atoms: C_5  and  N_6 
REMARK       I    between atoms: N_6  and  C_7 
REMARK    2  A    between atoms: C_7  and  C_8 
REMARK    3  A    between atoms: C_8  and  N_9 
REMARK    4  A    between atoms: C_12  and  C_13 
REMARK       I    between atoms: C_13  and  N_14 
REMARK    5  A    between atoms: N_14  and  N_15 
REMARK       I    between atoms: N_15  and  C_16 
REMARK       I    between atoms: C_16  and  N_17 
REMARK    6  A    between atoms: N_17  and  C_18 
ROOT
HETATM    1  N   UNL     1      44.625 -10.280   8.239  1.00  0.00    -0.358 N 
HETATM    2  C   UNL     1      45.434 -10.345   9.322  1.00  0.00     0.092 A 
HETATM    3  C   UNL     1      44.970  -9.963  10.574  1.00  0.00     0.034 A 
HETATM    4  C   UNL     1      43.657  -9.512  10.714  1.00  0.00     0.036 A 
HETATM    5  C   UNL     1      42.845  -9.427   9.585  1.00  0.00     0.034 A 
HETATM    6  C   UNL     1      43.356  -9.819   8.353  1.00  0.00     0.092 A 
ENDROOT
BRANCH   4   7
HETATM    7  C   UNL     1      43.149  -9.258  12.088  1.00  0.00     0.270 C 
HETATM    8  N   UNL     1      43.370  -8.006  12.618  1.00  0.00    -0.262 N 
HETATM    9  H   UNL     1      44.142  -7.406  12.326  1.00  0.00     0.190 HD
HETATM   10  O   UNL     1      42.547 -10.146  12.683  1.00  0.00    -0.266 OA
BRANCH   8  11
HETATM   11  N   UNL     1      42.933  -7.777  13.937  1.00  0.00    -0.249 N 
HETATM   12  C   UNL     1      41.981  -6.791  14.101  1.00  0.00     0.335 C 
HETATM   13  N   UNL     1      41.676  -6.599  15.423  1.00  0.00    -0.337 N 
HETATM   14  O   UNL     1      41.477  -6.197  13.156  1.00  0.00    -0.246 OA
HETATM   15  H   UNL     1      41.852  -7.398  16.017  1.00  0.00     0.164 HD
HETATM   16  H   UNL     1      43.670  -7.820  14.639  1.00  0.00     0.192 HD
BRANCH  13  17
HETATM   17  C   UNL     1      40.625  -5.679  15.846  1.00  0.00     0.086 C 
HETATM   18  C   UNL     1      39.567  -6.377  16.715  1.00  0.00     0.025 C 
HETATM   19  C   UNL     1      40.098  -6.747  18.099  1.00  0.00     0.002 C 
HETATM   20  C   UNL     1      40.682  -5.536  18.818  1.00  0.00     0.000 C 
HETATM   21  C   UNL     1      41.749  -4.838  17.980  1.00  0.00     0.002 C 
HETATM   22  C   UNL     1      41.234  -4.479  16.585  1.00  0.00     0.025 C 
ENDBRANCH  13  17
ENDBRANCH   8  11
ENDBRANCH   4   7
BRANCH   1  23
HETATM   23  C   UNL     1      45.090 -10.842   6.943  1.00  0.00     0.230 C 
BRANCH  23  24
HETATM   24  C   UNL     1      44.154 -11.991   6.591  1.00  0.00     0.240 C 
HETATM   25  N   UNL     1      43.435 -11.806   5.424  1.00  0.00    -0.326 N 
HETATM   26  H   UNL     1      43.392 -10.883   5.007  1.00  0.00     0.169 HD
HETATM   27  O   UNL     1      44.128 -12.983   7.315  1.00  0.00    -0.271 OA
BRANCH  25  28
HETATM   28  C   UNL     1      42.667 -12.785   4.748  1.00  0.00     0.034 A 
HETATM   29  C   UNL     1      43.122 -13.511   3.645  1.00  0.00     0.030 A 
HETATM   30  C   UNL     1      42.285 -14.433   3.006  1.00  0.00     0.009 A 
HETATM   31  C   UNL     1      40.983 -14.652   3.465  1.00  0.00    -0.062 A 
HETATM   32  C   UNL     1      40.078 -15.611   2.749  1.00  0.00     0.048 C 
HETATM   33  C   UNL     1      40.523 -13.918   4.561  1.00  0.00     0.009 A 
HETATM   34  C   UNL     1      41.358 -12.995   5.197  1.00  0.00     0.030 A 
ENDBRANCH  25  28
ENDBRANCH  23  24
ENDBRANCH   1  23
TORSDOF 6
ENDMDL
MODEL 10
REMARK VINA RESULT:      -7.4      6.869     11.550
REMARK  6 active torsions:
REMARK  status: ('A' for Active; 'I' for Inactive)
REMARK    1  A    between atoms: C_5  and  N_6 
REMARK       I    between atoms: N_6  and  C_7 
REMARK    2  A    between atoms: C_7  and  C_8 
REMARK    3  A    between atoms: C_8  and  N_9 
REMARK    4  A    between atoms: C_12  and  C_13 
REMARK       I    between atoms: C_13  and  N_14 
REMARK    5  A    between atoms: N_14  and  N_15 
REMARK       I    between atoms: N_15  and  C_16 
REMARK       I    between atoms: C_16  and  N_17 
REMARK    6  A    between atoms: N_17  and  C_18 
ROOT
HETATM    1  N   UNL     1      41.270 -12.649   2.044  1.00  0.00    -0.358 N 
HETATM    2  C   UNL     1      40.340 -13.520   1.587  1.00  0.00     0.092 A 
HETATM    3  C   UNL     1      39.673 -13.279   0.393  1.00  0.00     0.034 A 
HETATM    4  C   UNL     1      39.969 -12.130  -0.341  1.00  0.00     0.036 A 
HETATM    5  C   UNL     1      40.911 -11.231   0.155  1.00  0.00     0.034 A 
HETATM    6  C   UNL     1      41.551 -11.516   1.356  1.00  0.00     0.092 A 
ENDROOT
BRANCH   4   7
HETATM    7  C   UNL     1      39.349 -11.982  -1.684  1.00  0.00     0.270 C 
HETATM    8  N   UNL     1      38.715 -10.790  -1.955  1.00  0.00    -0.262 N 
HETATM    9  H   UNL     1      38.318 -10.192  -1.230  1.00  0.00     0.190 HD
HETATM   10  O   UNL     1      39.438 -12.899  -2.495  1.00  0.00    -0.266 OA
BRANCH   8  11
HETATM   11  N   UNL     1      38.085 -10.664  -3.209  1.00  0.00    -0.249 N 
HETATM   12  C   UNL     1      36.721 -10.452  -3.187  1.00  0.00     0.335 C 
HETATM   13  N   UNL     1      36.197 -10.414  -4.452  1.00  0.00    -0.337 N 
HETATM   14  O   UNL     1      36.094 -10.297  -2.146  1.00  0.00    -0.246 OA
HETATM   15  H   UNL     1      36.855 -10.155  -5.175  1.00  0.00     0.164 HD
HETATM   16  H   UNL     1      38.435 -11.302  -3.923  1.00  0.00     0.192 HD
BRANCH  13  17
HETATM   17  C   UNL     1      34.792 -10.103  -4.695  1.00  0.00     0.086 C 
HETATM   18  C   UNL     1      34.587  -9.379  -6.035  1.00  0.00     0.025 C 
HETATM   19  C   UNL     1      34.814 -10.296  -7.236  1.00  0.00     0.002 C 
HETATM   20  C   UNL     1      33.950 -11.549  -7.156  1.00  0.00     0.000 C 
HETATM   21  C   UNL     1      34.151 -12.295  -5.839  1.00  0.00     0.002 C 
HETATM   22  C   UNL     1      33.944 -11.382  -4.630  1.00  0.00     0.025 C 
ENDBRANCH  13  17
ENDBRANCH   8  11
ENDBRANCH   4   7
BRANCH   1  23
HETATM   23  C   UNL     1      42.083 -13.005   3.237  1.00  0.00     0.230 C 
BRANCH  23  24
HETATM   24  C   UNL     1      42.850 -14.275   2.895  1.00  0.00     0.240 C 
HETATM   25  N   UNL     1      42.537 -15.365   3.688  1.00  0.00    -0.326 N 
HETATM   26  H   UNL     1      42.019 -15.221   4.548  1.00  0.00     0.169 HD
HETATM   27  O   UNL     1      43.636 -14.262   1.951  1.00  0.00    -0.271 OA
BRANCH  25  28
HETATM   28  C   UNL     1      42.925 -16.707   3.461  1.00  0.00     0.034 A 
HETATM   29  C   UNL     1      42.566 -17.444   2.331  1.00  0.00     0.030 A 
HETATM   30  C   UNL     1      42.957 -18.782   2.201  1.00  0.00     0.009 A 
HETATM   31  C   UNL     1      43.721 -19.402   3.193  1.00  0.00    -0.062 A 
HETATM   32  C   UNL     1      44.101 -20.848   3.066  1.00  0.00     0.048 C 
HETATM   33  C   UNL     1      44.072 -18.669   4.330  1.00  0.00     0.009 A 
HETATM   34  C   UNL     1      43.679 -17.334   4.461  1.00  0.00     0.030 A 
ENDBRANCH  25  28
ENDBRANCH  23  24
ENDBRANCH   1  23
TORSDOF 6
ENDMDL
