MODEL 1
REMARK VINA RESULT:      -8.8      0.000      0.000
REMARK  5 active torsions:
REMARK  status: ('A' for Active; 'I' for Inactive)
REMARK    1  A    between atoms: C_7  and  C_8 
REMARK    2  A    between atoms: C_16  and  C_17 
REMARK    3  A    between atoms: C_20  and  O_21 
REMARK    4  A    between atoms: C_24  and  C_25 
REMARK       I    between atoms: C_25  and  N_26 
REMARK    5  A    between atoms: N_26  and  C_27 
ROOT
HETATM    1  C   UNL     1      38.628 -12.589  -1.148  1.00  0.00     0.070 C 
HETATM    2  C   UNL     1      39.451 -12.806   0.097  1.00  0.00     0.037 C 
HETATM    3  N   UNL     1      39.395 -14.093   0.636  1.00  0.00    -0.192 N 
HETATM    4  C   UNL     1      40.325 -14.549   1.501  1.00  0.00     0.726 A 
HETATM    5  N   UNL     1      41.184 -13.668   2.092  1.00  0.00    -0.083 N 
HETATM    6  N   UNL     1      42.143 -14.304   2.791  1.00  0.00    -0.135 NA
HETATM    7  C   UNL     1      41.782 -15.590   2.625  1.00  0.00     0.199 A 
HETATM    8  N   UNL     1      40.645 -15.767   1.853  1.00  0.00    -0.041 NA
HETATM    9  C   UNL     1      41.168 -12.222   1.843  1.00  0.00     0.202 C 
HETATM   10  C   UNL     1      40.281 -11.885   0.649  1.00  0.00     0.062 C 
HETATM   11  H   UNL     1      38.871 -14.788   0.111  1.00  0.00     0.184 HD
ENDROOT
BRANCH  10  12
HETATM   12  C   UNL     1      40.539 -10.531   0.090  1.00  0.00     0.256 C 
HETATM   13  N   UNL     1      41.332 -10.530  -1.035  1.00  0.00    -0.323 N 
HETATM   14  H   UNL     1      41.623 -11.430  -1.397  1.00  0.00     0.169 HD
HETATM   15  O   UNL     1      40.011  -9.568   0.631  1.00  0.00    -0.267 OA
BRANCH  13  16
HETATM   16  C   UNL     1      41.811  -9.401  -1.735  1.00  0.00     0.035 A 
HETATM   17  C   UNL     1      42.814  -8.555  -1.256  1.00  0.00     0.029 A 
HETATM   18  C   UNL     1      43.251  -7.467  -2.019  1.00  0.00     0.002 A 
HETATM   19  C   UNL     1      42.693  -7.220  -3.270  1.00  0.00     0.000 A 
HETATM   20  C   UNL     1      41.693  -8.056  -3.757  1.00  0.00     0.002 A 
HETATM   21  C   UNL     1      41.250  -9.138  -2.991  1.00  0.00     0.029 A 
ENDBRANCH  13  16
ENDBRANCH  10  12
BRANCH   9  22
HETATM   22  C   UNL     1      40.736 -11.465   3.098  1.00  0.00    -0.028 A 
HETATM   23  C   UNL     1      41.644 -10.598   3.731  1.00  0.00     0.012 A 
HETATM   24  C   UNL     1      41.268  -9.876   4.867  1.00  0.00     0.037 A 
HETATM   25  C   UNL     1      39.980 -10.014   5.371  1.00  0.00     0.065 A 
HETATM   26  C   UNL     1      39.064 -10.856   4.758  1.00  0.00     0.037 A 
HETATM   27  C   UNL     1      39.436 -11.578   3.624  1.00  0.00     0.012 A 
BRANCH  25  28
HETATM   28  O   UNL     1      39.574  -9.330   6.479  1.00  0.00    -0.361 OA
HETATM   29  H   UNL     1      39.831  -8.399   6.380  1.00  0.00     0.217 HD
ENDBRANCH  25  28
ENDBRANCH   9  22
BRANCH   7  30
HETATM   30  C   UNL     1      42.555 -16.720   3.136  1.00  0.00     0.014 A 
HETATM   31  C   UNL     1      42.838 -17.828   2.321  1.00  0.00     0.017 A 
HETATM   32  C   UNL     1      43.540 -18.925   2.827  1.00  0.00     0.025 A 
HETATM   33  C   UNL     1      43.968 -18.921   4.153  1.00  0.00     0.034 A 
HETATM   34 CL   UNL     1      44.822 -20.276   4.780  1.00  0.00    -0.084 Cl
HETATM   35  C   UNL     1      43.703 -17.828   4.976  1.00  0.00     0.025 A 
HETATM   36  C   UNL     1      43.000 -16.731   4.468  1.00  0.00     0.017 A 
ENDBRANCH   7  30
TORSDOF 5
ENDMDL
MODEL 2
REMARK VINA RESULT:      -8.5      3.854      8.947
REMARK  5 active torsions:
REMARK  status: ('A' for Active; 'I' for Inactive)
REMARK    1  A    between atoms: C_7  and  C_8 
REMARK    2  A    between atoms: C_16  and  C_17 
REMARK    3  A    between atoms: C_20  and  O_21 
REMARK    4  A    between atoms: C_24  and  C_25 
REMARK       I    between atoms: C_25  and  N_26 
REMARK    5  A    between atoms: N_26  and  C_27 
ROOT
HETATM    1  C   UNL     1      39.165 -12.669   4.186  1.00  0.00     0.070 C 
HETATM    2  C   UNL     1      39.593 -12.194   2.820  1.00  0.00     0.037 C 
HETATM    3  N   UNL     1      39.419 -10.831   2.576  1.00  0.00    -0.192 N 
HETATM    4  C   UNL     1      40.068 -10.191   1.580  1.00  0.00     0.726 A 
HETATM    5  N   UNL     1      40.691 -10.919   0.607  1.00  0.00    -0.083 N 
HETATM    6  N   UNL     1      41.421 -10.133  -0.207  1.00  0.00    -0.135 NA
HETATM    7  C   UNL     1      41.162  -8.914   0.300  1.00  0.00     0.199 A 
HETATM    8  N   UNL     1      40.306  -8.920   1.389  1.00  0.00    -0.041 NA
HETATM    9  C   UNL     1      40.706 -12.385   0.569  1.00  0.00     0.202 C 
HETATM   10  C   UNL     1      40.198 -12.969   1.883  1.00  0.00     0.062 C 
HETATM   11  H   UNL     1      39.093 -10.263   3.354  1.00  0.00     0.184 HD
ENDROOT
BRANCH  10  12
HETATM   12  C   UNL     1      40.569 -14.397   2.073  1.00  0.00     0.256 C 
HETATM   13  N   UNL     1      41.782 -14.584   2.697  1.00  0.00    -0.323 N 
HETATM   14  H   UNL     1      42.278 -13.755   3.002  1.00  0.00     0.169 HD
HETATM   15  O   UNL     1      39.776 -15.256   1.711  1.00  0.00    -0.267 OA
BRANCH  13  16
HETATM   16  C   UNL     1      42.431 -15.814   2.939  1.00  0.00     0.035 A 
HETATM   17  C   UNL     1      42.855 -16.683   1.932  1.00  0.00     0.029 A 
HETATM   18  C   UNL     1      43.513 -17.876   2.251  1.00  0.00     0.002 A 
HETATM   19  C   UNL     1      43.756 -18.207   3.581  1.00  0.00     0.000 A 
HETATM   20  C   UNL     1      43.338 -17.349   4.593  1.00  0.00     0.002 A 
HETATM   21  C   UNL     1      42.674 -16.161   4.274  1.00  0.00     0.029 A 
ENDBRANCH  13  16
ENDBRANCH  10  12
BRANCH   9  22
HETATM   22  C   UNL     1      39.904 -12.900  -0.624  1.00  0.00    -0.028 A 
HETATM   23  C   UNL     1      38.577 -12.470  -0.806  1.00  0.00     0.012 A 
HETATM   24  C   UNL     1      37.828 -12.907  -1.901  1.00  0.00     0.037 A 
HETATM   25  C   UNL     1      38.404 -13.773  -2.823  1.00  0.00     0.065 A 
HETATM   26  C   UNL     1      39.714 -14.204  -2.671  1.00  0.00     0.037 A 
HETATM   27  C   UNL     1      40.465 -13.769  -1.578  1.00  0.00     0.012 A 
BRANCH  25  28
HETATM   28  O   UNL     1      37.707 -14.226  -3.905  1.00  0.00    -0.361 OA
HETATM   29  H   UNL     1      37.959 -15.149  -4.071  1.00  0.00     0.217 HD
ENDBRANCH  25  28
ENDBRANCH   9  22
BRANCH   7  30
HETATM   30  C   UNL     1      41.784  -7.685  -0.191  1.00  0.00     0.014 A 
HETATM   31  C   UNL     1      42.829  -7.731  -1.128  1.00  0.00     0.017 A 
HETATM   32  C   UNL     1      43.450  -6.556  -1.562  1.00  0.00     0.025 A 
HETATM   33  C   UNL     1      43.028  -5.326  -1.063  1.00  0.00     0.034 A 
HETATM   34 CL   UNL     1      43.800  -3.880  -1.587  1.00  0.00    -0.084 Cl
HETATM   35  C   UNL     1      41.989  -5.260  -0.137  1.00  0.00     0.025 A 
HETATM   36  C   UNL     1      41.369  -6.436   0.296  1.00  0.00     0.017 A 
ENDBRANCH   7  30
TORSDOF 5
ENDMDL
MODEL 3
REMARK VINA RESULT:      -8.4      4.776      8.759
REMARK  5 active torsions:
REMARK  status: ('A' for Active; 'I' for Inactive)
REMARK    1  A    between atoms: C_7  and  C_8 
REMARK    2  A    between atoms: C_16  and  C_17 
REMARK    3  A    between atoms: C_20  and  O_21 
REMARK    4  A    between atoms: C_24  and  C_25 
REMARK       I    between atoms: C_25  and  N_26 
REMARK    5  A    between atoms: N_26  and  C_27 
ROOT
HETATM    1  C   UNL     1      45.559  -9.155   8.670  1.00  0.00     0.070 C 
HETATM    2  C   UNL     1      44.457  -9.779   7.851  1.00  0.00     0.037 C 
HETATM    3  N   UNL     1      44.878 -10.528   6.751  1.00  0.00    -0.192 N 
HETATM    4  C   UNL     1      44.075 -11.429   6.147  1.00  0.00     0.726 A 
HETATM    5  N   UNL     1      42.737 -11.426   6.418  1.00  0.00    -0.083 N 
HETATM    6  N   UNL     1      42.117 -12.486   5.864  1.00  0.00    -0.135 NA
HETATM    7  C   UNL     1      43.137 -13.082   5.220  1.00  0.00     0.199 A 
HETATM    8  N   UNL     1      44.354 -12.433   5.357  1.00  0.00    -0.041 NA
HETATM    9  C   UNL     1      42.094 -10.487   7.344  1.00  0.00     0.202 C 
HETATM   10  C   UNL     1      43.136  -9.731   8.162  1.00  0.00     0.062 C 
HETATM   11  H   UNL     1      45.881 -10.652   6.637  1.00  0.00     0.184 HD
ENDROOT
BRANCH  10  12
HETATM   12  C   UNL     1      42.573  -9.090   9.381  1.00  0.00     0.256 C 
HETATM   13  N   UNL     1      42.504  -9.925  10.473  1.00  0.00    -0.323 N 
HETATM   14  H   UNL     1      42.874 -10.861  10.364  1.00  0.00     0.169 HD
HETATM   15  O   UNL     1      42.268  -7.906   9.326  1.00  0.00    -0.267 OA
BRANCH  13  16
HETATM   16  C   UNL     1      41.945  -9.626  11.735  1.00  0.00     0.035 A 
HETATM   17  C   UNL     1      40.623  -9.903  12.088  1.00  0.00     0.029 A 
HETATM   18  C   UNL     1      40.149  -9.597  13.368  1.00  0.00     0.002 A 
HETATM   19  C   UNL     1      40.995  -9.016  14.308  1.00  0.00     0.000 A 
HETATM   20  C   UNL     1      42.315  -8.735  13.967  1.00  0.00     0.002 A 
HETATM   21  C   UNL     1      42.786  -9.034  12.686  1.00  0.00     0.029 A 
ENDBRANCH  13  16
ENDBRANCH  10  12
BRANCH   9  22
HETATM   22  C   UNL     1      41.170  -9.534   6.589  1.00  0.00    -0.028 A 
HETATM   23  C   UNL     1      39.789  -9.554   6.853  1.00  0.00     0.012 A 
HETATM   24  C   UNL     1      38.923  -8.678   6.193  1.00  0.00     0.037 A 
HETATM   25  C   UNL     1      39.435  -7.773   5.271  1.00  0.00     0.065 A 
HETATM   26  C   UNL     1      40.796  -7.728   5.001  1.00  0.00     0.037 A 
HETATM   27  C   UNL     1      41.663  -8.602   5.658  1.00  0.00     0.012 A 
BRANCH  25  28
HETATM   28  O   UNL     1      38.625  -6.902   4.604  1.00  0.00    -0.361 OA
HETATM   29  H   UNL     1      39.182  -6.253   4.144  1.00  0.00     0.217 HD
ENDBRANCH  25  28
ENDBRANCH   9  22
BRANCH   7  30
HETATM   30  C   UNL     1      43.011 -14.348   4.501  1.00  0.00     0.014 A 
HETATM   31  C   UNL     1      43.027 -15.572   5.189  1.00  0.00     0.017 A 
HETATM   32  C   UNL     1      42.949 -16.782   4.494  1.00  0.00     0.025 A 
HETATM   33  C   UNL     1      42.851 -16.777   3.105  1.00  0.00     0.034 A 
HETATM   34 CL   UNL     1      42.767 -18.266   2.247  1.00  0.00    -0.084 Cl
HETATM   35  C   UNL     1      42.827 -15.572   2.405  1.00  0.00     0.025 A 
HETATM   36  C   UNL     1      42.906 -14.362   3.102  1.00  0.00     0.017 A 
ENDBRANCH   7  30
TORSDOF 5
ENDMDL
MODEL 4
REMARK VINA RESULT:      -8.4      4.598      5.685
REMARK  5 active torsions:
REMARK  status: ('A' for Active; 'I' for Inactive)
REMARK    1  A    between atoms: C_7  and  C_8 
REMARK    2  A    between atoms: C_16  and  C_17 
REMARK    3  A    between atoms: C_20  and  O_21 
REMARK    4  A    between atoms: C_24  and  C_25 
REMARK       I    between atoms: C_25  and  N_26 
REMARK    5  A    between atoms: N_26  and  C_27 
ROOT
HETATM    1  C   UNL     1      38.724 -11.370   6.488  1.00  0.00     0.070 C 
HETATM    2  C   UNL     1      40.058 -11.963   6.111  1.00  0.00     0.037 C 
HETATM    3  N   UNL     1      40.169 -13.345   6.279  1.00  0.00    -0.192 N 
HETATM    4  C   UNL     1      41.130 -14.067   5.665  1.00  0.00     0.726 A 
HETATM    5  N   UNL     1      42.191 -13.427   5.092  1.00  0.00    -0.083 N 
HETATM    6  N   UNL     1      42.960 -14.277   4.387  1.00  0.00    -0.135 NA
HETATM    7  C   UNL     1      42.334 -15.448   4.610  1.00  0.00     0.199 A 
HETATM    8  N   UNL     1      41.214 -15.349   5.420  1.00  0.00    -0.041 NA
HETATM    9  C   UNL     1      42.362 -11.970   5.096  1.00  0.00     0.202 C 
HETATM   10  C   UNL     1      41.086 -11.273   5.555  1.00  0.00     0.062 C 
HETATM   11  H   UNL     1      39.330 -13.841   6.566  1.00  0.00     0.184 HD
ENDROOT
BRANCH  10  12
HETATM   12  C   UNL     1      41.043  -9.831   5.194  1.00  0.00     0.256 C 
HETATM   13  N   UNL     1      40.940  -8.984   6.274  1.00  0.00    -0.323 N 
HETATM   14  H   UNL     1      40.948  -9.405   7.195  1.00  0.00     0.169 HD
HETATM   15  O   UNL     1      41.141  -9.524   4.012  1.00  0.00    -0.267 OA
BRANCH  13  16
HETATM   16  C   UNL     1      40.798  -7.580   6.240  1.00  0.00     0.035 A 
HETATM   17  C   UNL     1      41.862  -6.685   6.367  1.00  0.00     0.029 A 
HETATM   18  C   UNL     1      41.644  -5.305   6.300  1.00  0.00     0.002 A 
HETATM   19  C   UNL     1      40.360  -4.808   6.101  1.00  0.00     0.000 A 
HETATM   20  C   UNL     1      39.290  -5.689   5.975  1.00  0.00     0.002 A 
HETATM   21  C   UNL     1      39.508  -7.068   6.049  1.00  0.00     0.029 A 
ENDBRANCH  13  16
ENDBRANCH  10  12
BRANCH   9  22
HETATM   22  C   UNL     1      43.562 -11.572   5.953  1.00  0.00    -0.028 A 
HETATM   23  C   UNL     1      44.839 -11.500   5.368  1.00  0.00     0.012 A 
HETATM   24  C   UNL     1      45.951 -11.117   6.123  1.00  0.00     0.037 A 
HETATM   25  C   UNL     1      45.789 -10.799   7.466  1.00  0.00     0.065 A 
HETATM   26  C   UNL     1      44.538 -10.854   8.064  1.00  0.00     0.037 A 
HETATM   27  C   UNL     1      43.426 -11.236   7.313  1.00  0.00     0.012 A 
BRANCH  25  28
HETATM   28  O   UNL     1      46.848 -10.423   8.240  1.00  0.00    -0.361 OA
HETATM   29  H   UNL     1      46.751 -10.831   9.116  1.00  0.00     0.217 HD
ENDBRANCH  25  28
ENDBRANCH   9  22
BRANCH   7  30
HETATM   30  C   UNL     1      42.737 -16.711   3.994  1.00  0.00     0.014 A 
HETATM   31  C   UNL     1      43.645 -17.568   4.637  1.00  0.00     0.017 A 
HETATM   32  C   UNL     1      44.060 -18.755   4.025  1.00  0.00     0.025 A 
HETATM   33  C   UNL     1      43.568 -19.093   2.767  1.00  0.00     0.034 A 
HETATM   34 CL   UNL     1      44.088 -20.547   2.008  1.00  0.00    -0.084 Cl
HETATM   35  C   UNL     1      42.661 -18.259   2.117  1.00  0.00     0.025 A 
HETATM   36  C   UNL     1      42.247 -17.072   2.730  1.00  0.00     0.017 A 
ENDBRANCH   7  30
TORSDOF 5
ENDMDL
MODEL 5
REMARK VINA RESULT:      -8.2      4.862      8.754
REMARK  5 active torsions:
REMARK  status: ('A' for Active; 'I' for Inactive)
REMARK    1  A    between atoms: C_7  and  C_8 
REMARK    2  A    between atoms: C_16  and  C_17 
REMARK    3  A    between atoms: C_20  and  O_21 
REMARK    4  A    between atoms: C_24  and  C_25 
REMARK       I    between atoms: C_25  and  N_26 
REMARK    5  A    between atoms: N_26  and  C_27 
ROOT
HETATM    1  C   UNL     1      40.198 -15.285   1.166  1.00  0.00     0.070 C 
HETATM    2  C   UNL     1      40.332 -14.091   2.077  1.00  0.00     0.037 C 
HETATM    3  N   UNL     1      39.870 -12.882   1.555  1.00  0.00    -0.192 N 
HETATM    4  C   UNL     1      39.582 -11.824   2.341  1.00  0.00     0.726 A 
HETATM    5  N   UNL     1      40.006 -11.814   3.639  1.00  0.00    -0.083 N 
HETATM    6  N   UNL     1      39.495 -10.771   4.319  1.00  0.00    -0.135 NA
HETATM    7  C   UNL     1      38.794 -10.144   3.356  1.00  0.00     0.199 A 
HETATM    8  N   UNL     1      38.853 -10.761   2.116  1.00  0.00    -0.041 NA
HETATM    9  C   UNL     1      40.772 -12.904   4.254  1.00  0.00     0.202 C 
HETATM   10  C   UNL     1      40.775 -14.139   3.360  1.00  0.00     0.062 C 
HETATM   11  H   UNL     1      39.419 -12.918   0.644  1.00  0.00     0.184 HD
ENDROOT
BRANCH  10  12
HETATM   12  C   UNL     1      41.159 -15.383   4.079  1.00  0.00     0.256 C 
HETATM   13  N   UNL     1      42.393 -15.880   3.722  1.00  0.00    -0.323 N 
HETATM   14  H   UNL     1      42.932 -15.344   3.053  1.00  0.00     0.169 HD
HETATM   15  O   UNL     1      40.395 -15.824   4.928  1.00  0.00    -0.267 OA
BRANCH  13  16
HETATM   16  C   UNL     1      42.986 -17.079   4.171  1.00  0.00     0.035 A 
HETATM   17  C   UNL     1      43.170 -17.402   5.517  1.00  0.00     0.029 A 
HETATM   18  C   UNL     1      43.746 -18.623   5.884  1.00  0.00     0.002 A 
HETATM   19  C   UNL     1      44.138 -19.534   4.907  1.00  0.00     0.000 A 
HETATM   20  C   UNL     1      43.961 -19.223   3.563  1.00  0.00     0.002 A 
HETATM   21  C   UNL     1      43.392 -18.000   3.196  1.00  0.00     0.029 A 
ENDBRANCH  13  16
ENDBRANCH  10  12
BRANCH   9  22
HETATM   22  C   UNL     1      42.190 -12.443   4.585  1.00  0.00    -0.028 A 
HETATM   23  C   UNL     1      43.058 -12.068   3.545  1.00  0.00     0.012 A 
HETATM   24  C   UNL     1      44.353 -11.622   3.821  1.00  0.00     0.037 A 
HETATM   25  C   UNL     1      44.784 -11.543   5.140  1.00  0.00     0.065 A 
HETATM   26  C   UNL     1      43.942 -11.898   6.185  1.00  0.00     0.037 A 
HETATM   27  C   UNL     1      42.649 -12.345   5.912  1.00  0.00     0.012 A 
BRANCH  25  28
HETATM   28  O   UNL     1      46.040 -11.115   5.453  1.00  0.00    -0.361 OA
HETATM   29  H   UNL     1      46.593 -11.890   5.644  1.00  0.00     0.217 HD
ENDBRANCH  25  28
ENDBRANCH   9  22
BRANCH   7  30
HETATM   30  C   UNL     1      37.969  -8.962   3.595  1.00  0.00     0.014 A 
HETATM   31  C   UNL     1      37.402  -8.252   2.525  1.00  0.00     0.017 A 
HETATM   32  C   UNL     1      36.649  -7.096   2.755  1.00  0.00     0.025 A 
HETATM   33  C   UNL     1      36.456  -6.645   4.058  1.00  0.00     0.034 A 
HETATM   34 CL   UNL     1      35.540  -5.216   4.342  1.00  0.00    -0.084 Cl
HETATM   35  C   UNL     1      37.005  -7.340   5.133  1.00  0.00     0.025 A 
HETATM   36  C   UNL     1      37.758  -8.495   4.901  1.00  0.00     0.017 A 
ENDBRANCH   7  30
TORSDOF 5
ENDMDL
MODEL 6
REMARK VINA RESULT:      -8.1      2.526      4.766
REMARK  5 active torsions:
REMARK  status: ('A' for Active; 'I' for Inactive)
REMARK    1  A    between atoms: C_7  and  C_8 
REMARK    2  A    between atoms: C_16  and  C_17 
REMARK    3  A    between atoms: C_20  and  O_21 
REMARK    4  A    between atoms: C_24  and  C_25 
REMARK       I    between atoms: C_25  and  N_26 
REMARK    5  A    between atoms: N_26  and  C_27 
ROOT
HETATM    1  C   UNL     1      41.600  -9.759   3.905  1.00  0.00     0.070 C 
HETATM    2  C   UNL     1      41.513 -11.135   3.294  1.00  0.00     0.037 C 
HETATM    3  N   UNL     1      42.641 -11.940   3.467  1.00  0.00    -0.192 N 
HETATM    4  C   UNL     1      42.596 -13.280   3.314  1.00  0.00     0.726 A 
HETATM    5  N   UNL     1      41.515 -13.853   2.708  1.00  0.00    -0.083 N 
HETATM    6  N   UNL     1      41.556 -15.196   2.787  1.00  0.00    -0.135 NA
HETATM    7  C   UNL     1      42.728 -15.388   3.421  1.00  0.00     0.199 A 
HETATM    8  N   UNL     1      43.404 -14.219   3.734  1.00  0.00    -0.041 NA
HETATM    9  C   UNL     1      40.368 -13.092   2.199  1.00  0.00     0.202 C 
HETATM   10  C   UNL     1      40.412 -11.648   2.689  1.00  0.00     0.062 C 
HETATM   11  H   UNL     1      43.388 -11.565   4.046  1.00  0.00     0.184 HD
ENDROOT
BRANCH  10  12
HETATM   12  C   UNL     1      39.105 -10.948   2.569  1.00  0.00     0.256 C 
HETATM   13  N   UNL     1      38.850 -10.446   1.313  1.00  0.00    -0.323 N 
HETATM   14  H   UNL     1      39.536 -10.633   0.592  1.00  0.00     0.169 HD
HETATM   15  O   UNL     1      38.372 -10.913   3.550  1.00  0.00    -0.267 OA
BRANCH  13  16
HETATM   16  C   UNL     1      37.739  -9.670   0.919  1.00  0.00     0.035 A 
HETATM   17  C   UNL     1      36.491 -10.205   0.591  1.00  0.00     0.029 A 
HETATM   18  C   UNL     1      35.430  -9.368   0.232  1.00  0.00     0.002 A 
HETATM   19  C   UNL     1      35.606  -7.988   0.202  1.00  0.00     0.000 A 
HETATM   20  C   UNL     1      36.844  -7.443   0.526  1.00  0.00     0.002 A 
HETATM   21  C   UNL     1      37.907  -8.280   0.878  1.00  0.00     0.029 A 
ENDBRANCH  13  16
ENDBRANCH  10  12
BRANCH   9  22
HETATM   22  C   UNL     1      40.304 -13.169   0.675  1.00  0.00    -0.028 A 
HETATM   23  C   UNL     1      40.994 -12.217  -0.096  1.00  0.00     0.012 A 
HETATM   24  C   UNL     1      40.972 -12.277  -1.492  1.00  0.00     0.037 A 
HETATM   25  C   UNL     1      40.265 -13.294  -2.123  1.00  0.00     0.065 A 
HETATM   26  C   UNL     1      39.585 -14.251  -1.383  1.00  0.00     0.037 A 
HETATM   27  C   UNL     1      39.605 -14.194   0.011  1.00  0.00     0.012 A 
BRANCH  25  28
HETATM   28  O   UNL     1      40.216 -13.389  -3.482  1.00  0.00    -0.361 OA
HETATM   29  H   UNL     1      40.353 -12.504  -3.859  1.00  0.00     0.217 HD
ENDBRANCH  25  28
ENDBRANCH   9  22
BRANCH   7  30
HETATM   30  C   UNL     1      43.223 -16.702   3.826  1.00  0.00     0.014 A 
HETATM   31  C   UNL     1      43.453 -17.709   2.875  1.00  0.00     0.017 A 
HETATM   32  C   UNL     1      43.886 -18.979   3.271  1.00  0.00     0.025 A 
HETATM   33  C   UNL     1      44.094 -19.248   4.621  1.00  0.00     0.034 A 
HETATM   34 CL   UNL     1      44.616 -20.813   5.111  1.00  0.00    -0.084 Cl
HETATM   35  C   UNL     1      43.879 -18.259   5.579  1.00  0.00     0.025 A 
HETATM   36  C   UNL     1      43.445 -16.990   5.181  1.00  0.00     0.017 A 
ENDBRANCH   7  30
TORSDOF 5
ENDMDL
MODEL 7
REMARK VINA RESULT:      -8.0     17.602     20.728
REMARK  5 active torsions:
REMARK  status: ('A' for Active; 'I' for Inactive)
REMARK    1  A    between atoms: C_7  and  C_8 
REMARK    2  A    between atoms: C_16  and  C_17 
REMARK    3  A    between atoms: C_20  and  O_21 
REMARK    4  A    between atoms: C_24  and  C_25 
REMARK       I    between atoms: C_25  and  N_26 
REMARK    5  A    between atoms: N_26  and  C_27 
ROOT
HETATM    1  C   UNL     1      46.595 -28.098   0.818  1.00  0.00     0.070 C 
HETATM    2  C   UNL     1      47.660 -29.161   0.914  1.00  0.00     0.037 C 
HETATM    3  N   UNL     1      48.617 -28.964   1.912  1.00  0.00    -0.192 N 
HETATM    4  C   UNL     1      49.397 -29.966   2.366  1.00  0.00     0.726 A 
HETATM    5  N   UNL     1      49.471 -31.134   1.662  1.00  0.00    -0.083 N 
HETATM    6  N   UNL     1      50.156 -32.077   2.336  1.00  0.00    -0.135 NA
HETATM    7  C   UNL     1      50.521 -31.399   3.440  1.00  0.00     0.199 A 
HETATM    8  N   UNL     1      50.088 -30.084   3.471  1.00  0.00    -0.041 NA
HETATM    9  C   UNL     1      48.739 -31.381   0.415  1.00  0.00     0.202 C 
HETATM   10  C   UNL     1      47.690 -30.300   0.176  1.00  0.00     0.062 C 
HETATM   11  H   UNL     1      48.476 -28.170   2.532  1.00  0.00     0.184 HD
ENDROOT
BRANCH  10  12
HETATM   12  C   UNL     1      46.654 -30.696  -0.815  1.00  0.00     0.256 C 
HETATM   13  N   UNL     1      46.753 -30.042  -2.022  1.00  0.00    -0.323 N 
HETATM   14  H   UNL     1      47.528 -29.401  -2.139  1.00  0.00     0.169 HD
HETATM   15  O   UNL     1      45.854 -31.568  -0.503  1.00  0.00    -0.267 OA
BRANCH  13  16
HETATM   16  C   UNL     1      45.871 -30.148  -3.119  1.00  0.00     0.035 A 
HETATM   17  C   UNL     1      46.099 -30.967  -4.227  1.00  0.00     0.029 A 
HETATM   18  C   UNL     1      45.165 -31.035  -5.266  1.00  0.00     0.002 A 
HETATM   19  C   UNL     1      43.991 -30.290  -5.203  1.00  0.00     0.000 A 
HETATM   20  C   UNL     1      43.753 -29.470  -4.104  1.00  0.00     0.002 A 
HETATM   21  C   UNL     1      44.690 -29.396  -3.070  1.00  0.00     0.029 A 
ENDBRANCH  13  16
ENDBRANCH  10  12
BRANCH   9  22
HETATM   22  C   UNL     1      49.706 -31.499  -0.762  1.00  0.00    -0.028 A 
HETATM   23  C   UNL     1      49.796 -32.713  -1.466  1.00  0.00     0.012 A 
HETATM   24  C   UNL     1      50.655 -32.842  -2.560  1.00  0.00     0.037 A 
HETATM   25  C   UNL     1      51.424 -31.755  -2.959  1.00  0.00     0.065 A 
HETATM   26  C   UNL     1      51.345 -30.544  -2.286  1.00  0.00     0.037 A 
HETATM   27  C   UNL     1      50.488 -30.412  -1.193  1.00  0.00     0.012 A 
BRANCH  25  28
HETATM   28  O   UNL     1      52.277 -31.838  -4.020  1.00  0.00    -0.361 OA
HETATM   29  H   UNL     1      52.977 -31.175  -3.907  1.00  0.00     0.217 HD
ENDBRANCH  25  28
ENDBRANCH   9  22
BRANCH   7  30
HETATM   30  C   UNL     1      51.243 -32.004   4.558  1.00  0.00     0.014 A 
HETATM   31  C   UNL     1      51.751 -31.211   5.600  1.00  0.00     0.017 A 
HETATM   32  C   UNL     1      52.478 -31.788   6.646  1.00  0.00     0.025 A 
HETATM   33  C   UNL     1      52.699 -33.163   6.658  1.00  0.00     0.034 A 
HETATM   34 CL   UNL     1      53.603 -33.873   7.938  1.00  0.00    -0.084 Cl
HETATM   35  C   UNL     1      52.197 -33.967   5.637  1.00  0.00     0.025 A 
HETATM   36  C   UNL     1      51.471 -33.388   4.591  1.00  0.00     0.017 A 
ENDBRANCH   7  30
TORSDOF 5
ENDMDL
MODEL 8
REMARK VINA RESULT:      -8.0      3.364      4.833
REMARK  5 active torsions:
REMARK  status: ('A' for Active; 'I' for Inactive)
REMARK    1  A    between atoms: C_7  and  C_8 
REMARK    2  A    between atoms: C_16  and  C_17 
REMARK    3  A    between atoms: C_20  and  O_21 
REMARK    4  A    between atoms: C_24  and  C_25 
REMARK       I    between atoms: C_25  and  N_26 
REMARK    5  A    between atoms: N_26  and  C_27 
ROOT
HETATM    1  C   UNL     1      38.888 -11.531   6.643  1.00  0.00     0.070 C 
HETATM    2  C   UNL     1      40.195 -12.113   6.166  1.00  0.00     0.037 C 
HETATM    3  N   UNL     1      40.350 -13.486   6.368  1.00  0.00    -0.192 N 
HETATM    4  C   UNL     1      41.266 -14.212   5.693  1.00  0.00     0.726 A 
HETATM    5  N   UNL     1      42.257 -13.572   5.005  1.00  0.00    -0.083 N 
HETATM    6  N   UNL     1      42.978 -14.432   4.261  1.00  0.00    -0.135 NA
HETATM    7  C   UNL     1      42.400 -15.605   4.578  1.00  0.00     0.199 A 
HETATM    8  N   UNL     1      41.356 -15.499   5.483  1.00  0.00    -0.041 NA
HETATM    9  C   UNL     1      42.398 -12.113   4.946  1.00  0.00     0.202 C 
HETATM   10  C   UNL     1      41.153 -11.423   5.496  1.00  0.00     0.062 C 
HETATM   11  H   UNL     1      39.551 -13.987   6.747  1.00  0.00     0.184 HD
ENDROOT
BRANCH  10  12
HETATM   12  C   UNL     1      41.047  -9.996   5.093  1.00  0.00     0.256 C 
HETATM   13  N   UNL     1      40.270  -9.784   3.977  1.00  0.00    -0.323 N 
HETATM   14  H   UNL     1      39.816 -10.592   3.569  1.00  0.00     0.169 HD
HETATM   15  O   UNL     1      41.604  -9.153   5.785  1.00  0.00    -0.267 OA
BRANCH  13  16
HETATM   16  C   UNL     1      40.051  -8.556   3.316  1.00  0.00     0.035 A 
HETATM   17  C   UNL     1      39.334  -7.491   3.866  1.00  0.00     0.029 A 
HETATM   18  C   UNL     1      39.179  -6.295   3.157  1.00  0.00     0.002 A 
HETATM   19  C   UNL     1      39.747  -6.152   1.894  1.00  0.00     0.000 A 
HETATM   20  C   UNL     1      40.463  -7.206   1.336  1.00  0.00     0.002 A 
HETATM   21  C   UNL     1      40.611  -8.404   2.041  1.00  0.00     0.029 A 
ENDBRANCH  13  16
ENDBRANCH  10  12
BRANCH   9  22
HETATM   22  C   UNL     1      43.662 -11.664   5.676  1.00  0.00    -0.028 A 
HETATM   23  C   UNL     1      43.623 -11.463   7.068  1.00  0.00     0.012 A 
HETATM   24  C   UNL     1      44.770 -11.074   7.765  1.00  0.00     0.037 A 
HETATM   25  C   UNL     1      45.962 -10.891   7.075  1.00  0.00     0.065 A 
HETATM   26  C   UNL     1      46.028 -11.093   5.703  1.00  0.00     0.037 A 
HETATM   27  C   UNL     1      44.884 -11.481   5.004  1.00  0.00     0.012 A 
BRANCH  25  28
HETATM   28  O   UNL     1      47.104 -10.510   7.716  1.00  0.00    -0.361 OA
HETATM   29  H   UNL     1      47.312  -9.596   7.462  1.00  0.00     0.217 HD
ENDBRANCH  25  28
ENDBRANCH   9  22
BRANCH   7  30
HETATM   30  C   UNL     1      42.772 -16.881   3.970  1.00  0.00     0.014 A 
HETATM   31  C   UNL     1      43.580 -17.799   4.659  1.00  0.00     0.017 A 
HETATM   32  C   UNL     1      43.969 -19.000   4.058  1.00  0.00     0.025 A 
HETATM   33  C   UNL     1      43.550 -19.291   2.762  1.00  0.00     0.034 A 
HETATM   34 CL   UNL     1      44.038 -20.763   2.016  1.00  0.00    -0.084 Cl
HETATM   35  C   UNL     1      42.742 -18.396   2.064  1.00  0.00     0.025 A 
HETATM   36  C   UNL     1      42.354 -17.195   2.667  1.00  0.00     0.017 A 
ENDBRANCH   7  30
TORSDOF 5
ENDMDL
MODEL 9
REMARK VINA RESULT:      -7.7     18.099     20.769
REMARK  5 active torsions:
REMARK  status: ('A' for Active; 'I' for Inactive)
REMARK    1  A    between atoms: C_7  and  C_8 
REMARK    2  A    between atoms: C_16  and  C_17 
REMARK    3  A    between atoms: C_20  and  O_21 
REMARK    4  A    between atoms: C_24  and  C_25 
REMARK       I    between atoms: C_25  and  N_26 
REMARK    5  A    between atoms: N_26  and  C_27 
ROOT
HETATM    1  C   UNL     1      47.765 -29.380   2.930  1.00  0.00     0.070 C 
HETATM    2  C   UNL     1      48.089 -29.933   1.565  1.00  0.00     0.037 C 
HETATM    3  N   UNL     1      49.355 -29.612   1.073  1.00  0.00    -0.192 N 
HETATM    4  C   UNL     1      49.932 -30.306   0.069  1.00  0.00     0.726 A 
HETATM    5  N   UNL     1      49.174 -31.157  -0.683  1.00  0.00    -0.083 N 
HETATM    6  N   UNL     1      49.933 -31.884  -1.525  1.00  0.00    -0.135 NA
HETATM    7  C   UNL     1      51.158 -31.390  -1.269  1.00  0.00     0.199 A 
HETATM    8  N   UNL     1      51.181 -30.393  -0.307  1.00  0.00    -0.041 NA
HETATM    9  C   UNL     1      47.739 -31.377  -0.468  1.00  0.00     0.202 C 
HETATM   10  C   UNL     1      47.288 -30.768   0.856  1.00  0.00     0.062 C 
HETATM   11  H   UNL     1      49.975 -29.102   1.697  1.00  0.00     0.184 HD
ENDROOT
BRANCH  10  12
HETATM   12  C   UNL     1      45.982 -31.298   1.330  1.00  0.00     0.256 C 
HETATM   13  N   UNL     1      44.925 -30.435   1.148  1.00  0.00    -0.323 N 
HETATM   14  H   UNL     1      45.119 -29.559   0.679  1.00  0.00     0.169 HD
HETATM   15  O   UNL     1      45.948 -32.433   1.789  1.00  0.00    -0.267 OA
BRANCH  13  16
HETATM   16  C   UNL     1      43.591 -30.627   1.568  1.00  0.00     0.035 A 
HETATM   17  C   UNL     1      42.714 -31.543   0.985  1.00  0.00     0.029 A 
HETATM   18  C   UNL     1      41.411 -31.692   1.474  1.00  0.00     0.002 A 
HETATM   19  C   UNL     1      40.977 -30.928   2.553  1.00  0.00     0.000 A 
HETATM   20  C   UNL     1      41.842 -30.011   3.142  1.00  0.00     0.002 A 
HETATM   21  C   UNL     1      43.141 -29.858   2.649  1.00  0.00     0.029 A 
ENDBRANCH  13  16
ENDBRANCH  10  12
BRANCH   9  22
HETATM   22  C   UNL     1      46.930 -30.835  -1.644  1.00  0.00    -0.028 A 
HETATM   23  C   UNL     1      46.901 -29.450  -1.886  1.00  0.00     0.012 A 
HETATM   24  C   UNL     1      46.187 -28.928  -2.969  1.00  0.00     0.037 A 
HETATM   25  C   UNL     1      45.503 -29.791  -3.817  1.00  0.00     0.065 A 
HETATM   26  C   UNL     1      45.524 -31.162  -3.604  1.00  0.00     0.037 A 
HETATM   27  C   UNL     1      46.236 -31.686  -2.524  1.00  0.00     0.012 A 
BRANCH  25  28
HETATM   28  O   UNL     1      44.792 -29.324  -4.883  1.00  0.00    -0.361 OA
HETATM   29  H   UNL     1      43.845 -29.405  -4.683  1.00  0.00     0.217 HD
ENDBRANCH  25  28
ENDBRANCH   9  22
BRANCH   7  30
HETATM   30  C   UNL     1      52.381 -31.903  -1.883  1.00  0.00     0.014 A 
HETATM   31  C   UNL     1      52.559 -31.867  -3.275  1.00  0.00     0.017 A 
HETATM   32  C   UNL     1      53.712 -32.398  -3.862  1.00  0.00     0.025 A 
HETATM   33  C   UNL     1      54.696 -32.967  -3.059  1.00  0.00     0.034 A 
HETATM   34 CL   UNL     1      56.110 -33.632  -3.780  1.00  0.00    -0.084 Cl
HETATM   35  C   UNL     1      54.542 -33.007  -1.674  1.00  0.00     0.025 A 
HETATM   36  C   UNL     1      53.388 -32.476  -1.090  1.00  0.00     0.017 A 
ENDBRANCH   7  30
TORSDOF 5
ENDMDL
MODEL 10
REMARK VINA RESULT:      -7.6      9.504     12.995
REMARK  5 active torsions:
REMARK  status: ('A' for Active; 'I' for Inactive)
REMARK    1  A    between atoms: C_7  and  C_8 
REMARK    2  A    between atoms: C_16  and  C_17 
REMARK    3  A    between atoms: C_20  and  O_21 
REMARK    4  A    between atoms: C_24  and  C_25 
REMARK       I    between atoms: C_25  and  N_26 
REMARK    5  A    between atoms: N_26  and  C_27 
ROOT
HETATM    1  C   UNL     1      39.131 -10.063   9.813  1.00  0.00     0.070 C 
HETATM    2  C   UNL     1      39.707  -8.919  10.610  1.00  0.00     0.037 C 
HETATM    3  N   UNL     1      38.981  -8.553  11.744  1.00  0.00    -0.192 N 
HETATM    4  C   UNL     1      39.526  -7.824  12.740  1.00  0.00     0.726 A 
HETATM    5  N   UNL     1      40.714  -7.183  12.533  1.00  0.00    -0.083 N 
HETATM    6  N   UNL     1      41.191  -6.644  13.671  1.00  0.00    -0.135 NA
HETATM    7  C   UNL     1      40.212  -6.954  14.541  1.00  0.00     0.199 A 
HETATM    8  N   UNL     1      39.158  -7.660  13.985  1.00  0.00    -0.041 NA
HETATM    9  C   UNL     1      41.459  -7.235  11.270  1.00  0.00     0.202 C 
HETATM   10  C   UNL     1      40.891  -8.309  10.348  1.00  0.00     0.062 C 
HETATM   11  H   UNL     1      38.175  -9.127  11.979  1.00  0.00     0.184 HD
ENDROOT
BRANCH  10  12
HETATM   12  C   UNL     1      41.825  -8.700   9.258  1.00  0.00     0.256 C 
HETATM   13  N   UNL     1      42.918  -9.420   9.686  1.00  0.00    -0.323 N 
HETATM   14  H   UNL     1      42.963  -9.650  10.671  1.00  0.00     0.169 HD
HETATM   15  O   UNL     1      41.535  -8.397   8.108  1.00  0.00    -0.267 OA
BRANCH  13  16
HETATM   16  C   UNL     1      44.007  -9.855   8.901  1.00  0.00     0.035 A 
HETATM   17  C   UNL     1      44.008 -11.037   8.158  1.00  0.00     0.029 A 
HETATM   18  C   UNL     1      45.120 -11.391   7.385  1.00  0.00     0.002 A 
HETATM   19  C   UNL     1      46.237 -10.562   7.345  1.00  0.00     0.000 A 
HETATM   20  C   UNL     1      46.247  -9.382   8.082  1.00  0.00     0.002 A 
HETATM   21  C   UNL     1      45.140  -9.032   8.860  1.00  0.00     0.029 A 
ENDBRANCH  13  16
ENDBRANCH  10  12
BRANCH   9  22
HETATM   22  C   UNL     1      41.475  -5.864  10.598  1.00  0.00    -0.028 A 
HETATM   23  C   UNL     1      42.573  -5.009  10.795  1.00  0.00     0.012 A 
HETATM   24  C   UNL     1      42.625  -3.758  10.174  1.00  0.00     0.037 A 
HETATM   25  C   UNL     1      41.580  -3.360   9.348  1.00  0.00     0.065 A 
HETATM   26  C   UNL     1      40.490  -4.190   9.131  1.00  0.00     0.037 A 
HETATM   27  C   UNL     1      40.435  -5.440   9.750  1.00  0.00     0.012 A 
BRANCH  25  28
HETATM   28  O   UNL     1      41.589  -2.147   8.725  1.00  0.00    -0.361 OA
HETATM   29  H   UNL     1      42.502  -1.815   8.707  1.00  0.00     0.217 HD
ENDBRANCH  25  28
ENDBRANCH   9  22
BRANCH   7  30
HETATM   30  C   UNL     1      40.274  -6.653  15.970  1.00  0.00     0.014 A 
HETATM   31  C   UNL     1      39.945  -5.376  16.452  1.00  0.00     0.017 A 
HETATM   32  C   UNL     1      40.047  -5.079  17.815  1.00  0.00     0.025 A 
HETATM   33  C   UNL     1      40.478  -6.060  18.705  1.00  0.00     0.034 A 
HETATM   34 CL   UNL     1      40.616  -5.693  20.380  1.00  0.00    -0.084 Cl
HETATM   35  C   UNL     1      40.803  -7.335  18.247  1.00  0.00     0.025 A 
HETATM   36  C   UNL     1      40.700  -7.629  16.884  1.00  0.00     0.017 A 
ENDBRANCH   7  30
TORSDOF 5
ENDMDL
