MODEL 1
REMARK VINA RESULT:      -9.5      0.000      0.000
REMARK  7 active torsions:
REMARK  status: ('A' for Active; 'I' for Inactive)
REMARK    1  A    between atoms: C_7  and  C_8 
REMARK    2  A    between atoms: C_11  and  N_12 
REMARK       I    between atoms: N_12  and  C_13 
REMARK    3  A    between atoms: C_13  and  C_14 
REMARK    4  A    between atoms: C_14  and  N_15 
REMARK    5  A    between atoms: N_15  and  C_16 
REMARK    6  A    between atoms: C_17  and  O_18 
REMARK    7  A    between atoms: C_22  and  N_23 
REMARK       I    between atoms: N_23  and  C_24 
ROOT
HETATM    1  N   UNL     1      43.442 -12.356   3.592  1.00  0.00    -0.325 N 
HETATM    2  C   UNL     1      42.740 -13.362   3.001  1.00  0.00     0.244 C 
HETATM    3  O   UNL     1      43.283 -13.844   1.992  1.00  0.00    -0.271 OA
HETATM    4  H   UNL     1      44.322 -12.245   3.100  1.00  0.00     0.169 HD
ENDROOT
BRANCH   2   5
HETATM    5  C   UNL     1      41.376 -13.888   3.469  1.00  0.00     0.170 C 
HETATM    6  C   UNL     1      40.455 -14.175   2.278  1.00  0.00     0.042 C 
BRANCH   5   7
HETATM    7  N   UNL     1      41.366 -15.055   4.359  1.00  0.00    -0.375 N 
HETATM    8  H   UNL     1      40.428 -15.437   4.494  1.00  0.00     0.160 HD
BRANCH   7   9
HETATM    9  C   UNL     1      42.294 -16.084   4.484  1.00  0.00     0.064 A 
HETATM   10  C   UNL     1      43.204 -16.014   5.570  1.00  0.00     0.094 A 
HETATM   11  C   UNL     1      44.257 -16.922   5.675  1.00  0.00     0.041 A 
HETATM   12  C   UNL     1      44.441 -17.901   4.694  1.00  0.00     0.032 A 
HETATM   13  C   UNL     1      43.571 -17.984   3.611  1.00  0.00     0.037 A 
HETATM   14  C   UNL     1      42.484 -17.097   3.540  1.00  0.00     0.061 A 
BRANCH  10  15
HETATM   15  O   UNL     1      42.949 -15.003   6.474  1.00  0.00    -0.354 OA
HETATM   16  C   UNL     1      43.005 -15.344   7.853  1.00  0.00     0.210 C 
ENDBRANCH  10  15
BRANCH  13  17
HETATM   17  N   UNL     1      43.686 -18.924   2.571  1.00  0.00    -0.327 N 
HETATM   18  C   UNL     1      43.703 -20.287   2.550  1.00  0.00     0.218 C 
HETATM   19  C   UNL     1      43.798 -21.086   3.818  1.00  0.00     0.117 C 
HETATM   20  O   UNL     1      43.689 -20.857   1.456  1.00  0.00    -0.274 OA
HETATM   21  H   UNL     1      43.819 -18.546   1.638  1.00  0.00     0.169 HD
ENDBRANCH  13  17
ENDBRANCH   7   9
ENDBRANCH   5   7
ENDBRANCH   2   5
BRANCH   1  22
HETATM   22  C   UNL     1      43.296 -11.553   4.731  1.00  0.00     0.034 A 
HETATM   23  C   UNL     1      42.402 -10.502   4.894  1.00  0.00     0.030 A 
HETATM   24  C   UNL     1      42.286  -9.838   6.130  1.00  0.00     0.016 A 
HETATM   25  C   UNL     1      43.084 -10.194   7.225  1.00  0.00    -0.000 A 
HETATM   26  C   UNL     1      44.034 -11.204   7.029  1.00  0.00     0.016 A 
HETATM   27  C   UNL     1      44.137 -11.871   5.805  1.00  0.00     0.030 A 
BRANCH  25  28
HETATM   28  C   UNL     1      42.977  -9.581   8.564  1.00  0.00     0.109 A 
HETATM   29  N   UNL     1      42.250  -8.510   8.814  1.00  0.00    -0.240 NA
HETATM   30  C   UNL     1      42.403  -8.109  10.128  1.00  0.00     0.075 A 
HETATM   31  C   UNL     1      43.261  -8.894  10.894  1.00  0.00     0.036 A 
HETATM   32  C   UNL     1      41.785  -6.995  10.727  1.00  0.00     0.033 A 
HETATM   33  C   UNL     1      43.527  -8.603  12.245  1.00  0.00     0.028 A 
HETATM   34  S   UNL     1      43.867 -10.172   9.916  1.00  0.00    -0.067 SA
HETATM   35  C   UNL     1      42.910  -7.484  12.827  1.00  0.00    -0.061 A 
HETATM   36  C   UNL     1      43.168  -7.132  14.264  1.00  0.00     0.048 C 
HETATM   37  C   UNL     1      42.043  -6.693  12.069  1.00  0.00     0.009 A 
ENDBRANCH  25  28
ENDBRANCH   1  22
TORSDOF 7
ENDMDL
MODEL 2
REMARK VINA RESULT:      -9.4      1.773      3.963
REMARK  7 active torsions:
REMARK  status: ('A' for Active; 'I' for Inactive)
REMARK    1  A    between atoms: C_7  and  C_8 
REMARK    2  A    between atoms: C_11  and  N_12 
REMARK       I    between atoms: N_12  and  C_13 
REMARK    3  A    between atoms: C_13  and  C_14 
REMARK    4  A    between atoms: C_14  and  N_15 
REMARK    5  A    between atoms: N_15  and  C_16 
REMARK    6  A    between atoms: C_17  and  O_18 
REMARK    7  A    between atoms: C_22  and  N_23 
REMARK       I    between atoms: N_23  and  C_24 
ROOT
HETATM    1  N   UNL     1      41.696 -12.873   1.533  1.00  0.00    -0.325 N 
HETATM    2  C   UNL     1      41.241 -14.046   1.012  1.00  0.00     0.244 C 
HETATM    3  O   UNL     1      40.982 -14.003  -0.202  1.00  0.00    -0.271 OA
HETATM    4  H   UNL     1      41.787 -12.201   0.780  1.00  0.00     0.169 HD
ENDROOT
BRANCH   2   5
HETATM    5  C   UNL     1      41.015 -15.342   1.804  1.00  0.00     0.170 C 
HETATM    6  C   UNL     1      39.776 -16.090   1.300  1.00  0.00     0.042 C 
BRANCH   5   7
HETATM    7  N   UNL     1      42.131 -16.291   1.888  1.00  0.00    -0.375 N 
HETATM    8  H   UNL     1      42.717 -16.283   1.051  1.00  0.00     0.160 HD
BRANCH   7   9
HETATM    9  C   UNL     1      42.913 -16.648   2.982  1.00  0.00     0.064 A 
HETATM   10  C   UNL     1      43.360 -17.992   3.054  1.00  0.00     0.094 A 
HETATM   11  C   UNL     1      44.016 -18.463   4.191  1.00  0.00     0.041 A 
HETATM   12  C   UNL     1      44.219 -17.617   5.286  1.00  0.00     0.032 A 
HETATM   13  C   UNL     1      43.778 -16.299   5.248  1.00  0.00     0.037 A 
HETATM   14  C   UNL     1      43.163 -15.819   4.079  1.00  0.00     0.061 A 
BRANCH  10  15
HETATM   15  O   UNL     1      43.097 -18.751   1.932  1.00  0.00    -0.354 OA
HETATM   16  C   UNL     1      43.369 -20.143   2.018  1.00  0.00     0.210 C 
ENDBRANCH  10  15
BRANCH  13  17
HETATM   17  N   UNL     1      43.924 -15.381   6.304  1.00  0.00    -0.327 N 
HETATM   18  C   UNL     1      43.027 -14.720   7.089  1.00  0.00     0.218 C 
HETATM   19  C   UNL     1      41.557 -14.735   6.778  1.00  0.00     0.117 C 
HETATM   20  O   UNL     1      43.454 -14.059   8.039  1.00  0.00    -0.274 OA
HETATM   21  H   UNL     1      44.875 -15.109   6.532  1.00  0.00     0.169 HD
ENDBRANCH  13  17
ENDBRANCH   7   9
ENDBRANCH   5   7
ENDBRANCH   2   5
BRANCH   1  22
HETATM   22  C   UNL     1      42.154 -12.431   2.781  1.00  0.00     0.034 A 
HETATM   23  C   UNL     1      43.476 -12.209   3.147  1.00  0.00     0.030 A 
HETATM   24  C   UNL     1      43.795 -11.666   4.406  1.00  0.00     0.016 A 
HETATM   25  C   UNL     1      42.797 -11.356   5.339  1.00  0.00    -0.000 A 
HETATM   26  C   UNL     1      41.474 -11.652   4.990  1.00  0.00     0.016 A 
HETATM   27  C   UNL     1      41.159 -12.180   3.734  1.00  0.00     0.030 A 
BRANCH  25  28
HETATM   28  C   UNL     1      43.054 -10.732   6.653  1.00  0.00     0.109 A 
HETATM   29  N   UNL     1      44.186 -10.876   7.313  1.00  0.00    -0.240 NA
HETATM   30  C   UNL     1      44.116 -10.255   8.547  1.00  0.00     0.075 A 
HETATM   31  C   UNL     1      42.907  -9.622   8.827  1.00  0.00     0.036 A 
HETATM   32  C   UNL     1      45.139 -10.226   9.513  1.00  0.00     0.033 A 
HETATM   33  C   UNL     1      42.681  -8.960  10.048  1.00  0.00     0.028 A 
HETATM   34  S   UNL     1      41.853  -9.817   7.482  1.00  0.00    -0.067 SA
HETATM   35  C   UNL     1      43.708  -8.946  11.006  1.00  0.00    -0.061 A 
HETATM   36  C   UNL     1      43.511  -8.254  12.325  1.00  0.00     0.048 C 
HETATM   37  C   UNL     1      44.926  -9.571  10.732  1.00  0.00     0.009 A 
ENDBRANCH  25  28
ENDBRANCH   1  22
TORSDOF 7
ENDMDL
MODEL 3
REMARK VINA RESULT:      -9.4      4.071     10.210
REMARK  7 active torsions:
REMARK  status: ('A' for Active; 'I' for Inactive)
REMARK    1  A    between atoms: C_7  and  C_8 
REMARK    2  A    between atoms: C_11  and  N_12 
REMARK       I    between atoms: N_12  and  C_13 
REMARK    3  A    between atoms: C_13  and  C_14 
REMARK    4  A    between atoms: C_14  and  N_15 
REMARK    5  A    between atoms: N_15  and  C_16 
REMARK    6  A    between atoms: C_17  and  O_18 
REMARK    7  A    between atoms: C_22  and  N_23 
REMARK       I    between atoms: N_23  and  C_24 
ROOT
HETATM    1  N   UNL     1      40.004 -10.138   6.720  1.00  0.00    -0.325 N 
HETATM    2  C   UNL     1      40.392  -8.888   7.095  1.00  0.00     0.244 C 
HETATM    3  O   UNL     1      39.501  -8.215   7.640  1.00  0.00    -0.271 OA
HETATM    4  H   UNL     1      39.049 -10.285   7.027  1.00  0.00     0.169 HD
ENDROOT
BRANCH   2   5
HETATM    5  C   UNL     1      41.786  -8.285   6.871  1.00  0.00     0.170 C 
HETATM    6  C   UNL     1      41.739  -7.151   5.841  1.00  0.00     0.042 C 
BRANCH   5   7
HETATM    7  N   UNL     1      42.522  -7.814   8.050  1.00  0.00    -0.375 N 
HETATM    8  H   UNL     1      42.298  -6.847   8.292  1.00  0.00     0.160 HD
BRANCH   7   9
HETATM    9  C   UNL     1      42.873  -8.499   9.209  1.00  0.00     0.064 A 
HETATM   10  C   UNL     1      44.250  -8.758   9.422  1.00  0.00     0.094 A 
HETATM   11  C   UNL     1      44.666  -9.569  10.479  1.00  0.00     0.041 A 
HETATM   12  C   UNL     1      43.723 -10.155  11.328  1.00  0.00     0.032 A 
HETATM   13  C   UNL     1      42.364  -9.929  11.133  1.00  0.00     0.037 A 
HETATM   14  C   UNL     1      41.957  -9.071  10.098  1.00  0.00     0.061 A 
BRANCH  10  15
HETATM   15  O   UNL     1      45.100  -8.150   8.522  1.00  0.00    -0.354 OA
HETATM   16  C   UNL     1      46.171  -8.934   8.015  1.00  0.00     0.210 C 
ENDBRANCH  10  15
BRANCH  13  17
HETATM   17  N   UNL     1      41.345 -10.487  11.925  1.00  0.00    -0.327 N 
HETATM   18  C   UNL     1      40.792 -10.122  13.117  1.00  0.00     0.218 C 
HETATM   19  C   UNL     1      41.395  -9.033  13.957  1.00  0.00     0.117 C 
HETATM   20  O   UNL     1      39.806 -10.745  13.522  1.00  0.00    -0.274 OA
HETATM   21  H   UNL     1      40.940 -11.354  11.589  1.00  0.00     0.169 HD
ENDBRANCH  13  17
ENDBRANCH   7   9
ENDBRANCH   5   7
ENDBRANCH   2   5
BRANCH   1  22
HETATM   22  C   UNL     1      40.617 -11.257   6.140  1.00  0.00     0.034 A 
HETATM   23  C   UNL     1      41.982 -11.496   6.043  1.00  0.00     0.030 A 
HETATM   24  C   UNL     1      42.467 -12.711   5.524  1.00  0.00     0.016 A 
HETATM   25  C   UNL     1      41.595 -13.706   5.063  1.00  0.00    -0.000 A 
HETATM   26  C   UNL     1      40.223 -13.425   5.095  1.00  0.00     0.016 A 
HETATM   27  C   UNL     1      39.744 -12.223   5.624  1.00  0.00     0.030 A 
BRANCH  25  28
HETATM   28  C   UNL     1      42.030 -15.024   4.560  1.00  0.00     0.109 A 
HETATM   29  N   UNL     1      42.885 -15.797   5.200  1.00  0.00    -0.240 NA
HETATM   30  C   UNL     1      43.174 -16.928   4.459  1.00  0.00     0.075 A 
HETATM   31  C   UNL     1      42.521 -17.018   3.232  1.00  0.00     0.036 A 
HETATM   32  C   UNL     1      44.059 -17.956   4.836  1.00  0.00     0.033 A 
HETATM   33  C   UNL     1      42.725 -18.104   2.360  1.00  0.00     0.028 A 
HETATM   34  S   UNL     1      41.514 -15.638   3.035  1.00  0.00    -0.067 SA
HETATM   35  C   UNL     1      43.617 -19.118   2.746  1.00  0.00    -0.061 A 
HETATM   36  C   UNL     1      43.868 -20.295   1.846  1.00  0.00     0.048 C 
HETATM   37  C   UNL     1      44.271 -19.041   3.977  1.00  0.00     0.009 A 
ENDBRANCH  25  28
ENDBRANCH   1  22
TORSDOF 7
ENDMDL
MODEL 4
REMARK VINA RESULT:      -9.3      3.979     11.116
REMARK  7 active torsions:
REMARK  status: ('A' for Active; 'I' for Inactive)
REMARK    1  A    between atoms: C_7  and  C_8 
REMARK    2  A    between atoms: C_11  and  N_12 
REMARK       I    between atoms: N_12  and  C_13 
REMARK    3  A    between atoms: C_13  and  C_14 
REMARK    4  A    between atoms: C_14  and  N_15 
REMARK    5  A    between atoms: N_15  and  C_16 
REMARK    6  A    between atoms: C_17  and  O_18 
REMARK    7  A    between atoms: C_22  and  N_23 
REMARK       I    between atoms: N_23  and  C_24 
ROOT
HETATM    1  N   UNL     1      43.481  -9.668   7.502  1.00  0.00    -0.325 N 
HETATM    2  C   UNL     1      43.642  -9.138   8.747  1.00  0.00     0.244 C 
HETATM    3  O   UNL     1      43.755  -7.901   8.768  1.00  0.00    -0.271 OA
HETATM    4  H   UNL     1      43.428  -8.907   6.834  1.00  0.00     0.169 HD
ENDROOT
BRANCH   2   5
HETATM    5  C   UNL     1      43.714  -9.943  10.052  1.00  0.00     0.170 C 
HETATM    6  C   UNL     1      44.434  -9.152  11.150  1.00  0.00     0.042 C 
BRANCH   5   7
HETATM    7  N   UNL     1      42.457 -10.465  10.600  1.00  0.00    -0.375 N 
HETATM    8  H   UNL     1      42.535 -11.438  10.902  1.00  0.00     0.160 HD
BRANCH   7   9
HETATM    9  C   UNL     1      41.495  -9.827  11.377  1.00  0.00     0.064 A 
HETATM   10  C   UNL     1      40.433  -9.178  10.698  1.00  0.00     0.094 A 
HETATM   11  C   UNL     1      39.518  -8.390  11.397  1.00  0.00     0.041 A 
HETATM   12  C   UNL     1      39.653  -8.215  12.777  1.00  0.00     0.032 A 
HETATM   13  C   UNL     1      40.693  -8.829  13.467  1.00  0.00     0.037 A 
HETATM   14  C   UNL     1      41.580  -9.660  12.763  1.00  0.00     0.061 A 
BRANCH  10  15
HETATM   15  O   UNL     1      40.395  -9.398   9.336  1.00  0.00    -0.354 OA
HETATM   16  C   UNL     1      40.045  -8.293   8.514  1.00  0.00     0.210 C 
ENDBRANCH  10  15
BRANCH  13  17
HETATM   17  N   UNL     1      40.916  -8.698  14.849  1.00  0.00    -0.327 N 
HETATM   18  C   UNL     1      41.619  -7.798  15.594  1.00  0.00     0.218 C 
HETATM   19  C   UNL     1      42.527  -6.790  14.948  1.00  0.00     0.117 C 
HETATM   20  O   UNL     1      41.534  -7.860  16.823  1.00  0.00    -0.274 OA
HETATM   21  H   UNL     1      40.517  -9.421  15.438  1.00  0.00     0.169 HD
ENDBRANCH  13  17
ENDBRANCH   7   9
ENDBRANCH   5   7
ENDBRANCH   2   5
BRANCH   1  22
HETATM   22  C   UNL     1      43.269 -10.945   6.965  1.00  0.00     0.034 A 
HETATM   23  C   UNL     1      42.112 -11.401   6.347  1.00  0.00     0.030 A 
HETATM   24  C   UNL     1      42.064 -12.679   5.758  1.00  0.00     0.016 A 
HETATM   25  C   UNL     1      43.168 -13.541   5.800  1.00  0.00    -0.000 A 
HETATM   26  C   UNL     1      44.304 -13.101   6.490  1.00  0.00     0.016 A 
HETATM   27  C   UNL     1      44.353 -11.827   7.062  1.00  0.00     0.030 A 
BRANCH  25  28
HETATM   28  C   UNL     1      43.207 -14.870   5.156  1.00  0.00     0.109 A 
HETATM   29  N   UNL     1      43.687 -15.947   5.747  1.00  0.00    -0.240 NA
HETATM   30  C   UNL     1      43.677 -17.025   4.883  1.00  0.00     0.075 A 
HETATM   31  C   UNL     1      43.174 -16.765   3.610  1.00  0.00     0.036 A 
HETATM   32  C   UNL     1      44.132 -18.324   5.181  1.00  0.00     0.033 A 
HETATM   33  C   UNL     1      43.113 -17.760   2.617  1.00  0.00     0.028 A 
HETATM   34  S   UNL     1      42.697 -15.114   3.529  1.00  0.00    -0.067 SA
HETATM   35  C   UNL     1      43.578 -19.048   2.926  1.00  0.00    -0.061 A 
HETATM   36  C   UNL     1      43.537 -20.141   1.897  1.00  0.00     0.048 C 
HETATM   37  C   UNL     1      44.078 -19.322   4.201  1.00  0.00     0.009 A 
ENDBRANCH  25  28
ENDBRANCH   1  22
TORSDOF 7
ENDMDL
MODEL 5
REMARK VINA RESULT:      -9.1      3.539     10.181
REMARK  7 active torsions:
REMARK  status: ('A' for Active; 'I' for Inactive)
REMARK    1  A    between atoms: C_7  and  C_8 
REMARK    2  A    between atoms: C_11  and  N_12 
REMARK       I    between atoms: N_12  and  C_13 
REMARK    3  A    between atoms: C_13  and  C_14 
REMARK    4  A    between atoms: C_14  and  N_15 
REMARK    5  A    between atoms: N_15  and  C_16 
REMARK    6  A    between atoms: C_17  and  O_18 
REMARK    7  A    between atoms: C_22  and  N_23 
REMARK       I    between atoms: N_23  and  C_24 
ROOT
HETATM    1  N   UNL     1      41.579  -9.259   4.879  1.00  0.00    -0.325 N 
HETATM    2  C   UNL     1      41.317  -8.379   5.885  1.00  0.00     0.244 C 
HETATM    3  O   UNL     1      41.262  -7.191   5.527  1.00  0.00    -0.271 OA
HETATM    4  H   UNL     1      41.619  -8.746   4.005  1.00  0.00     0.169 HD
ENDROOT
BRANCH   2   5
HETATM    5  C   UNL     1      41.122  -8.751   7.362  1.00  0.00     0.170 C 
HETATM    6  C   UNL     1      39.668  -9.144   7.646  1.00  0.00     0.042 C 
BRANCH   5   7
HETATM    7  N   UNL     1      42.003  -9.779   7.927  1.00  0.00    -0.375 N 
HETATM    8  H   UNL     1      42.479 -10.327   7.207  1.00  0.00     0.160 HD
BRANCH   7   9
HETATM    9  C   UNL     1      42.805  -9.735   9.063  1.00  0.00     0.064 A 
HETATM   10  C   UNL     1      44.196  -9.947   8.889  1.00  0.00     0.094 A 
HETATM   11  C   UNL     1      45.040 -10.070   9.993  1.00  0.00     0.041 A 
HETATM   12  C   UNL     1      44.517 -10.006  11.288  1.00  0.00     0.032 A 
HETATM   13  C   UNL     1      43.154  -9.812  11.487  1.00  0.00     0.037 A 
HETATM   14  C   UNL     1      42.319  -9.640  10.371  1.00  0.00     0.061 A 
BRANCH  10  15
HETATM   15  O   UNL     1      44.612 -10.012   7.575  1.00  0.00    -0.354 OA
HETATM   16  C   UNL     1      45.448 -11.105   7.217  1.00  0.00     0.210 C 
ENDBRANCH  10  15
BRANCH  13  17
HETATM   17  N   UNL     1      42.537  -9.751  12.750  1.00  0.00    -0.327 N 
HETATM   18  C   UNL     1      42.408  -8.755  13.671  1.00  0.00     0.218 C 
HETATM   19  C   UNL     1      43.163  -7.463  13.536  1.00  0.00     0.117 C 
HETATM   20  O   UNL     1      41.692  -8.955  14.656  1.00  0.00    -0.274 OA
HETATM   21  H   UNL     1      42.124 -10.614  13.089  1.00  0.00     0.169 HD
ENDBRANCH  13  17
ENDBRANCH   7   9
ENDBRANCH   5   7
ENDBRANCH   2   5
BRANCH   1  22
HETATM   22  C   UNL     1      41.688 -10.650   4.754  1.00  0.00     0.034 A 
HETATM   23  C   UNL     1      40.659 -11.576   4.875  1.00  0.00     0.030 A 
HETATM   24  C   UNL     1      40.885 -12.943   4.626  1.00  0.00     0.016 A 
HETATM   25  C   UNL     1      42.155 -13.419   4.276  1.00  0.00    -0.000 A 
HETATM   26  C   UNL     1      43.202 -12.489   4.230  1.00  0.00     0.016 A 
HETATM   27  C   UNL     1      42.972 -11.131   4.465  1.00  0.00     0.030 A 
BRANCH  25  28
HETATM   28  C   UNL     1      42.452 -14.828   3.947  1.00  0.00     0.109 A 
HETATM   29  N   UNL     1      43.219 -15.599   4.691  1.00  0.00    -0.240 NA
HETATM   30  C   UNL     1      43.391 -16.837   4.100  1.00  0.00     0.075 A 
HETATM   31  C   UNL     1      42.736 -17.011   2.883  1.00  0.00     0.036 A 
HETATM   32  C   UNL     1      44.162 -17.896   4.615  1.00  0.00     0.033 A 
HETATM   33  C   UNL     1      42.828 -18.213   2.155  1.00  0.00     0.028 A 
HETATM   34  S   UNL     1      41.879 -15.570   2.501  1.00  0.00    -0.067 SA
HETATM   35  C   UNL     1      43.607 -19.258   2.677  1.00  0.00    -0.061 A 
HETATM   36  C   UNL     1      43.737 -20.556   1.934  1.00  0.00     0.048 C 
HETATM   37  C   UNL     1      44.263 -19.095   3.900  1.00  0.00     0.009 A 
ENDBRANCH  25  28
ENDBRANCH   1  22
TORSDOF 7
ENDMDL
MODEL 6
REMARK VINA RESULT:      -8.9      1.374      1.926
REMARK  7 active torsions:
REMARK  status: ('A' for Active; 'I' for Inactive)
REMARK    1  A    between atoms: C_7  and  C_8 
REMARK    2  A    between atoms: C_11  and  N_12 
REMARK       I    between atoms: N_12  and  C_13 
REMARK    3  A    between atoms: C_13  and  C_14 
REMARK    4  A    between atoms: C_14  and  N_15 
REMARK    5  A    between atoms: N_15  and  C_16 
REMARK    6  A    between atoms: C_17  and  O_18 
REMARK    7  A    between atoms: C_22  and  N_23 
REMARK       I    between atoms: N_23  and  C_24 
ROOT
HETATM    1  N   UNL     1      41.633 -12.527   2.111  1.00  0.00    -0.325 N 
HETATM    2  C   UNL     1      41.051 -13.657   1.623  1.00  0.00     0.244 C 
HETATM    3  O   UNL     1      41.291 -13.883   0.425  1.00  0.00    -0.271 OA
HETATM    4  H   UNL     1      42.209 -12.121   1.381  1.00  0.00     0.169 HD
ENDROOT
BRANCH   2   5
HETATM    5  C   UNL     1      40.142 -14.604   2.420  1.00  0.00     0.170 C 
HETATM    6  C   UNL     1      39.665 -15.774   1.552  1.00  0.00     0.042 C 
BRANCH   5   7
HETATM    7  N   UNL     1      40.660 -15.140   3.684  1.00  0.00    -0.375 N 
HETATM    8  H   UNL     1      39.916 -15.384   4.341  1.00  0.00     0.160 HD
BRANCH   7   9
HETATM    9  C   UNL     1      41.754 -15.968   3.915  1.00  0.00     0.064 A 
HETATM   10  C   UNL     1      42.677 -15.567   4.914  1.00  0.00     0.094 A 
HETATM   11  C   UNL     1      43.873 -16.260   5.097  1.00  0.00     0.041 A 
HETATM   12  C   UNL     1      44.186 -17.350   4.278  1.00  0.00     0.032 A 
HETATM   13  C   UNL     1      43.305 -17.757   3.282  1.00  0.00     0.037 A 
HETATM   14  C   UNL     1      42.080 -17.084   3.137  1.00  0.00     0.061 A 
BRANCH  10  15
HETATM   15  O   UNL     1      42.287 -14.472   5.657  1.00  0.00    -0.354 OA
HETATM   16  C   UNL     1      42.905 -14.299   6.925  1.00  0.00     0.210 C 
ENDBRANCH  10  15
BRANCH  13  17
HETATM   17  N   UNL     1      43.541 -18.829   2.403  1.00  0.00    -0.327 N 
HETATM   18  C   UNL     1      43.662 -20.174   2.591  1.00  0.00     0.218 C 
HETATM   19  C   UNL     1      43.756 -20.763   3.970  1.00  0.00     0.117 C 
HETATM   20  O   UNL     1      43.745 -20.901   1.598  1.00  0.00    -0.274 OA
HETATM   21  H   UNL     1      43.689 -18.586   1.429  1.00  0.00     0.169 HD
ENDBRANCH  13  17
ENDBRANCH   7   9
ENDBRANCH   5   7
ENDBRANCH   2   5
BRANCH   1  22
HETATM   22  C   UNL     1      41.712 -11.884   3.353  1.00  0.00     0.034 A 
HETATM   23  C   UNL     1      40.657 -11.628   4.221  1.00  0.00     0.030 A 
HETATM   24  C   UNL     1      40.888 -11.062   5.489  1.00  0.00     0.016 A 
HETATM   25  C   UNL     1      42.179 -10.714   5.907  1.00  0.00    -0.000 A 
HETATM   26  C   UNL     1      43.226 -10.907   4.997  1.00  0.00     0.016 A 
HETATM   27  C   UNL     1      42.996 -11.481   3.744  1.00  0.00     0.030 A 
BRANCH  25  28
HETATM   28  C   UNL     1      42.501 -10.170   7.242  1.00  0.00     0.109 A 
HETATM   29  N   UNL     1      43.575 -10.515   7.925  1.00  0.00    -0.240 NA
HETATM   30  C   UNL     1      43.576  -9.918   9.172  1.00  0.00     0.075 A 
HETATM   31  C   UNL     1      42.483  -9.098   9.440  1.00  0.00     0.036 A 
HETATM   32  C   UNL     1      44.563 -10.081  10.162  1.00  0.00     0.033 A 
HETATM   33  C   UNL     1      42.338  -8.433  10.672  1.00  0.00     0.028 A 
HETATM   34  S   UNL     1      41.447  -9.084   8.067  1.00  0.00    -0.067 SA
HETATM   35  C   UNL     1      43.326  -8.611  11.653  1.00  0.00    -0.061 A 
HETATM   36  C   UNL     1      43.212  -7.924  12.984  1.00  0.00     0.048 C 
HETATM   37  C   UNL     1      44.430  -9.426  11.392  1.00  0.00     0.009 A 
ENDBRANCH  25  28
ENDBRANCH   1  22
TORSDOF 7
ENDMDL
MODEL 7
REMARK VINA RESULT:      -8.8      2.624      4.212
REMARK  7 active torsions:
REMARK  status: ('A' for Active; 'I' for Inactive)
REMARK    1  A    between atoms: C_7  and  C_8 
REMARK    2  A    between atoms: C_11  and  N_12 
REMARK       I    between atoms: N_12  and  C_13 
REMARK    3  A    between atoms: C_13  and  C_14 
REMARK    4  A    between atoms: C_14  and  N_15 
REMARK    5  A    between atoms: N_15  and  C_16 
REMARK    6  A    between atoms: C_17  and  O_18 
REMARK    7  A    between atoms: C_22  and  N_23 
REMARK       I    between atoms: N_23  and  C_24 
ROOT
HETATM    1  N   UNL     1      45.569 -10.277   7.686  1.00  0.00    -0.325 N 
HETATM    2  C   UNL     1      45.197 -11.110   6.675  1.00  0.00     0.244 C 
HETATM    3  O   UNL     1      46.144 -11.612   6.048  1.00  0.00    -0.271 OA
HETATM    4  H   UNL     1      46.581 -10.286   7.754  1.00  0.00     0.169 HD
ENDROOT
BRANCH   2   5
HETATM    5  C   UNL     1      43.749 -11.425   6.271  1.00  0.00     0.170 C 
HETATM    6  C   UNL     1      43.609 -11.522   4.748  1.00  0.00     0.042 C 
BRANCH   5   7
HETATM    7  N   UNL     1      43.116 -12.603   6.875  1.00  0.00    -0.375 N 
HETATM    8  H   UNL     1      42.542 -12.367   7.687  1.00  0.00     0.160 HD
BRANCH   7   9
HETATM    9  C   UNL     1      42.590 -13.738   6.265  1.00  0.00     0.064 A 
HETATM   10  C   UNL     1      41.189 -13.776   6.054  1.00  0.00     0.094 A 
HETATM   11  C   UNL     1      40.570 -14.937   5.591  1.00  0.00     0.041 A 
HETATM   12  C   UNL     1      41.327 -16.088   5.351  1.00  0.00     0.032 A 
HETATM   13  C   UNL     1      42.702 -16.083   5.563  1.00  0.00     0.037 A 
HETATM   14  C   UNL     1      43.323 -14.895   5.982  1.00  0.00     0.061 A 
BRANCH  10  15
HETATM   15  O   UNL     1      40.528 -12.597   6.335  1.00  0.00    -0.354 OA
HETATM   16  C   UNL     1      39.369 -12.309   5.565  1.00  0.00     0.210 C 
ENDBRANCH  10  15
BRANCH  13  17
HETATM   17  N   UNL     1      43.540 -17.195   5.365  1.00  0.00    -0.327 N 
HETATM   18  C   UNL     1      43.962 -17.851   4.246  1.00  0.00     0.218 C 
HETATM   19  C   UNL     1      43.367 -17.556   2.898  1.00  0.00     0.117 C 
HETATM   20  O   UNL     1      44.812 -18.736   4.370  1.00  0.00    -0.274 OA
HETATM   21  H   UNL     1      43.894 -17.645   6.203  1.00  0.00     0.169 HD
ENDBRANCH  13  17
ENDBRANCH   7   9
ENDBRANCH   5   7
ENDBRANCH   2   5
BRANCH   1  22
HETATM   22  C   UNL     1      44.916  -9.534   8.679  1.00  0.00     0.034 A 
HETATM   23  C   UNL     1      44.178  -8.372   8.492  1.00  0.00     0.030 A 
HETATM   24  C   UNL     1      43.486  -7.777   9.564  1.00  0.00     0.016 A 
HETATM   25  C   UNL     1      43.539  -8.318  10.855  1.00  0.00    -0.000 A 
HETATM   26  C   UNL     1      44.346  -9.447  11.048  1.00  0.00     0.016 A 
HETATM   27  C   UNL     1      45.022 -10.043   9.980  1.00  0.00     0.030 A 
BRANCH  25  28
HETATM   28  C   UNL     1      42.795  -7.781  12.012  1.00  0.00     0.109 A 
HETATM   29  N   UNL     1      43.299  -7.710  13.228  1.00  0.00    -0.240 NA
HETATM   30  C   UNL     1      42.354  -7.247  14.124  1.00  0.00     0.075 A 
HETATM   31  C   UNL     1      41.107  -6.954  13.577  1.00  0.00     0.036 A 
HETATM   32  C   UNL     1      42.549  -7.065  15.507  1.00  0.00     0.033 A 
HETATM   33  C   UNL     1      40.040  -6.486  14.366  1.00  0.00     0.028 A 
HETATM   34  S   UNL     1      41.155  -7.266  11.886  1.00  0.00    -0.067 SA
HETATM   35  C   UNL     1      40.247  -6.317  15.745  1.00  0.00    -0.061 A 
HETATM   36  C   UNL     1      39.137  -5.824  16.628  1.00  0.00     0.048 C 
HETATM   37  C   UNL     1      41.495  -6.602  16.303  1.00  0.00     0.009 A 
ENDBRANCH  25  28
ENDBRANCH   1  22
TORSDOF 7
ENDMDL
MODEL 8
REMARK VINA RESULT:      -8.8      3.908     11.313
REMARK  7 active torsions:
REMARK  status: ('A' for Active; 'I' for Inactive)
REMARK    1  A    between atoms: C_7  and  C_8 
REMARK    2  A    between atoms: C_11  and  N_12 
REMARK       I    between atoms: N_12  and  C_13 
REMARK    3  A    between atoms: C_13  and  C_14 
REMARK    4  A    between atoms: C_14  and  N_15 
REMARK    5  A    between atoms: N_15  and  C_16 
REMARK    6  A    between atoms: C_17  and  O_18 
REMARK    7  A    between atoms: C_22  and  N_23 
REMARK       I    between atoms: N_23  and  C_24 
ROOT
HETATM    1  N   UNL     1      43.483  -9.707   7.611  1.00  0.00    -0.325 N 
HETATM    2  C   UNL     1      43.428  -9.180   8.865  1.00  0.00     0.244 C 
HETATM    3  O   UNL     1      43.649  -7.958   8.920  1.00  0.00    -0.271 OA
HETATM    4  H   UNL     1      43.643  -8.953   6.952  1.00  0.00     0.169 HD
ENDROOT
BRANCH   2   5
HETATM    5  C   UNL     1      43.149  -9.972  10.150  1.00  0.00     0.170 C 
HETATM    6  C   UNL     1      44.075  -9.526  11.287  1.00  0.00     0.042 C 
BRANCH   5   7
HETATM    7  N   UNL     1      41.770  -9.991  10.652  1.00  0.00    -0.375 N 
HETATM    8  H   UNL     1      41.634 -10.675  11.400  1.00  0.00     0.160 HD
BRANCH   7   9
HETATM    9  C   UNL     1      40.877  -8.939  10.835  1.00  0.00     0.064 A 
HETATM   10  C   UNL     1      39.821  -8.810   9.899  1.00  0.00     0.094 A 
HETATM   11  C   UNL     1      38.979  -7.698   9.925  1.00  0.00     0.041 A 
HETATM   12  C   UNL     1      39.184  -6.685  10.866  1.00  0.00     0.032 A 
HETATM   13  C   UNL     1      40.221  -6.779  11.787  1.00  0.00     0.037 A 
HETATM   14  C   UNL     1      41.033  -7.926  11.786  1.00  0.00     0.061 A 
BRANCH  10  15
HETATM   15  O   UNL     1      39.711  -9.852   9.001  1.00  0.00    -0.354 OA
HETATM   16  C   UNL     1      39.398  -9.515   7.656  1.00  0.00     0.210 C 
ENDBRANCH  10  15
BRANCH  13  17
HETATM   17  N   UNL     1      40.512  -5.804  12.758  1.00  0.00    -0.327 N 
HETATM   18  C   UNL     1      40.031  -5.570  14.012  1.00  0.00     0.218 C 
HETATM   19  C   UNL     1      38.830  -6.306  14.537  1.00  0.00     0.117 C 
HETATM   20  O   UNL     1      40.572  -4.698  14.696  1.00  0.00    -0.274 OA
HETATM   21  H   UNL     1      41.189  -5.095  12.493  1.00  0.00     0.169 HD
ENDBRANCH  13  17
ENDBRANCH   7   9
ENDBRANCH   5   7
ENDBRANCH   2   5
BRANCH   1  22
HETATM   22  C   UNL     1      43.270 -10.965   7.031  1.00  0.00     0.034 A 
HETATM   23  C   UNL     1      42.181 -11.346   6.256  1.00  0.00     0.030 A 
HETATM   24  C   UNL     1      42.138 -12.614   5.648  1.00  0.00     0.016 A 
HETATM   25  C   UNL     1      43.173 -13.542   5.824  1.00  0.00    -0.000 A 
HETATM   26  C   UNL     1      44.230 -13.177   6.667  1.00  0.00     0.016 A 
HETATM   27  C   UNL     1      44.277 -11.912   7.259  1.00  0.00     0.030 A 
BRANCH  25  28
HETATM   28  C   UNL     1      43.220 -14.866   5.172  1.00  0.00     0.109 A 
HETATM   29  N   UNL     1      43.656 -15.955   5.774  1.00  0.00    -0.240 NA
HETATM   30  C   UNL     1      43.667 -17.027   4.902  1.00  0.00     0.075 A 
HETATM   31  C   UNL     1      43.225 -16.749   3.610  1.00  0.00     0.036 A 
HETATM   32  C   UNL     1      44.089 -18.335   5.208  1.00  0.00     0.033 A 
HETATM   33  C   UNL     1      43.193 -17.735   2.607  1.00  0.00     0.028 A 
HETATM   34  S   UNL     1      42.778 -15.090   3.521  1.00  0.00    -0.067 SA
HETATM   35  C   UNL     1      43.624 -19.033   2.926  1.00  0.00    -0.061 A 
HETATM   36  C   UNL     1      43.610 -20.118   1.887  1.00  0.00     0.048 C 
HETATM   37  C   UNL     1      44.062 -19.325   4.219  1.00  0.00     0.009 A 
ENDBRANCH  25  28
ENDBRANCH   1  22
TORSDOF 7
ENDMDL
MODEL 9
REMARK VINA RESULT:      -8.4      4.826      7.496
REMARK  7 active torsions:
REMARK  status: ('A' for Active; 'I' for Inactive)
REMARK    1  A    between atoms: C_7  and  C_8 
REMARK    2  A    between atoms: C_11  and  N_12 
REMARK       I    between atoms: N_12  and  C_13 
REMARK    3  A    between atoms: C_13  and  C_14 
REMARK    4  A    between atoms: C_14  and  N_15 
REMARK    5  A    between atoms: N_15  and  C_16 
REMARK    6  A    between atoms: C_17  and  O_18 
REMARK    7  A    between atoms: C_22  and  N_23 
REMARK       I    between atoms: N_23  and  C_24 
ROOT
HETATM    1  N   UNL     1      40.216 -14.226   5.684  1.00  0.00    -0.325 N 
HETATM    2  C   UNL     1      40.997 -15.032   6.457  1.00  0.00     0.244 C 
HETATM    3  O   UNL     1      40.389 -15.970   6.999  1.00  0.00    -0.271 OA
HETATM    4  H   UNL     1      39.277 -14.609   5.667  1.00  0.00     0.169 HD
ENDROOT
BRANCH   2   5
HETATM    5  C   UNL     1      42.500 -14.840   6.704  1.00  0.00     0.170 C 
HETATM    6  C   UNL     1      42.951 -15.578   7.969  1.00  0.00     0.042 C 
BRANCH   5   7
HETATM    7  N   UNL     1      43.418 -15.183   5.612  1.00  0.00    -0.375 N 
HETATM    8  H   UNL     1      44.313 -15.542   5.949  1.00  0.00     0.160 HD
BRANCH   7   9
HETATM    9  C   UNL     1      43.147 -15.746   4.368  1.00  0.00     0.064 A 
HETATM   10  C   UNL     1      43.529 -17.096   4.165  1.00  0.00     0.094 A 
HETATM   11  C   UNL     1      43.432 -17.681   2.902  1.00  0.00     0.041 A 
HETATM   12  C   UNL     1      42.975 -16.930   1.814  1.00  0.00     0.032 A 
HETATM   13  C   UNL     1      42.607 -15.600   1.982  1.00  0.00     0.037 A 
HETATM   14  C   UNL     1      42.661 -15.034   3.267  1.00  0.00     0.061 A 
BRANCH  10  15
HETATM   15  O   UNL     1      43.983 -17.746   5.294  1.00  0.00    -0.354 OA
HETATM   16  C   UNL     1      44.028 -19.166   5.247  1.00  0.00     0.210 C 
ENDBRANCH  10  15
BRANCH  13  17
HETATM   17  N   UNL     1      42.152 -14.765   0.946  1.00  0.00    -0.327 N 
HETATM   18  C   UNL     1      40.927 -14.573   0.379  1.00  0.00     0.218 C 
HETATM   19  C   UNL     1      39.770 -15.478   0.696  1.00  0.00     0.117 C 
HETATM   20  O   UNL     1      40.797 -13.666  -0.447  1.00  0.00    -0.274 OA
HETATM   21  H   UNL     1      42.857 -14.202   0.481  1.00  0.00     0.169 HD
ENDBRANCH  13  17
ENDBRANCH   7   9
ENDBRANCH   5   7
ENDBRANCH   2   5
BRANCH   1  22
HETATM   22  C   UNL     1      40.417 -13.113   4.857  1.00  0.00     0.034 A 
HETATM   23  C   UNL     1      41.284 -12.054   5.092  1.00  0.00     0.030 A 
HETATM   24  C   UNL     1      41.466 -11.044   4.128  1.00  0.00     0.016 A 
HETATM   25  C   UNL     1      40.762 -11.057   2.917  1.00  0.00    -0.000 A 
HETATM   26  C   UNL     1      39.834 -12.089   2.722  1.00  0.00     0.016 A 
HETATM   27  C   UNL     1      39.666 -13.097   3.675  1.00  0.00     0.030 A 
BRANCH  25  28
HETATM   28  C   UNL     1      40.944 -10.064   1.839  1.00  0.00     0.109 A 
HETATM   29  N   UNL     1      41.675 -10.287   0.765  1.00  0.00    -0.240 NA
HETATM   30  C   UNL     1      41.737  -9.158  -0.029  1.00  0.00     0.075 A 
HETATM   31  C   UNL     1      41.033  -8.054   0.449  1.00  0.00     0.036 A 
HETATM   32  C   UNL     1      42.443  -9.040  -1.241  1.00  0.00     0.033 A 
HETATM   33  C   UNL     1      41.014  -6.829  -0.243  1.00  0.00     0.028 A 
HETATM   34  S   UNL     1      40.273  -8.480   1.932  1.00  0.00    -0.067 SA
HETATM   35  C   UNL     1      41.730  -6.724  -1.446  1.00  0.00    -0.061 A 
HETATM   36  C   UNL     1      41.742  -5.435  -2.217  1.00  0.00     0.048 C 
HETATM   37  C   UNL     1      42.433  -7.826  -1.938  1.00  0.00     0.009 A 
ENDBRANCH  25  28
ENDBRANCH   1  22
TORSDOF 7
ENDMDL
MODEL 10
REMARK VINA RESULT:      -8.4      4.170     11.060
REMARK  7 active torsions:
REMARK  status: ('A' for Active; 'I' for Inactive)
REMARK    1  A    between atoms: C_7  and  C_8 
REMARK    2  A    between atoms: C_11  and  N_12 
REMARK       I    between atoms: N_12  and  C_13 
REMARK    3  A    between atoms: C_13  and  C_14 
REMARK    4  A    between atoms: C_14  and  N_15 
REMARK    5  A    between atoms: N_15  and  C_16 
REMARK    6  A    between atoms: C_17  and  O_18 
REMARK    7  A    between atoms: C_22  and  N_23 
REMARK       I    between atoms: N_23  and  C_24 
ROOT
HETATM    1  N   UNL     1      43.703  -9.276   7.869  1.00  0.00    -0.325 N 
HETATM    2  C   UNL     1      43.416  -8.657   9.048  1.00  0.00     0.244 C 
HETATM    3  O   UNL     1      43.807  -7.480   9.119  1.00  0.00    -0.271 OA
HETATM    4  H   UNL     1      44.141  -8.602   7.251  1.00  0.00     0.169 HD
ENDROOT
BRANCH   2   5
HETATM    5  C   UNL     1      42.699  -9.306  10.240  1.00  0.00     0.170 C 
HETATM    6  C   UNL     1      43.553 -10.418  10.861  1.00  0.00     0.042 C 
BRANCH   5   7
HETATM    7  N   UNL     1      42.231  -8.423  11.315  1.00  0.00    -0.375 N 
HETATM    8  H   UNL     1      42.975  -7.830  11.689  1.00  0.00     0.160 HD
BRANCH   7   9
HETATM    9  C   UNL     1      41.015  -7.761  11.453  1.00  0.00     0.064 A 
HETATM   10  C   UNL     1      40.086  -8.289  12.386  1.00  0.00     0.094 A 
HETATM   11  C   UNL     1      38.793  -7.774  12.471  1.00  0.00     0.041 A 
HETATM   12  C   UNL     1      38.390  -6.743  11.617  1.00  0.00     0.032 A 
HETATM   13  C   UNL     1      39.276  -6.216  10.683  1.00  0.00     0.037 A 
HETATM   14  C   UNL     1      40.591  -6.706  10.639  1.00  0.00     0.061 A 
BRANCH  10  15
HETATM   15  O   UNL     1      40.573  -9.314  13.171  1.00  0.00    -0.354 OA
HETATM   16  C   UNL     1      39.876 -10.552  13.119  1.00  0.00     0.210 C 
ENDBRANCH  10  15
BRANCH  13  17
HETATM   17  N   UNL     1      38.955  -5.191   9.775  1.00  0.00    -0.327 N 
HETATM   18  C   UNL     1      38.434  -5.197   8.515  1.00  0.00     0.218 C 
HETATM   19  C   UNL     1      38.278  -6.475   7.741  1.00  0.00     0.117 C 
HETATM   20  O   UNL     1      38.138  -4.117   7.996  1.00  0.00    -0.274 OA
HETATM   21  H   UNL     1      39.174  -4.245  10.071  1.00  0.00     0.169 HD
ENDBRANCH  13  17
ENDBRANCH   7   9
ENDBRANCH   5   7
ENDBRANCH   2   5
BRANCH   1  22
HETATM   22  C   UNL     1      43.446 -10.528   7.294  1.00  0.00     0.034 A 
HETATM   23  C   UNL     1      42.299 -10.905   6.608  1.00  0.00     0.030 A 
HETATM   24  C   UNL     1      42.209 -12.167   5.990  1.00  0.00     0.016 A 
HETATM   25  C   UNL     1      43.258 -13.092   6.070  1.00  0.00    -0.000 A 
HETATM   26  C   UNL     1      44.379 -12.732   6.827  1.00  0.00     0.016 A 
HETATM   27  C   UNL     1      44.471 -11.474   7.428  1.00  0.00     0.030 A 
BRANCH  25  28
HETATM   28  C   UNL     1      43.255 -14.409   5.401  1.00  0.00     0.109 A 
HETATM   29  N   UNL     1      43.730 -15.505   5.958  1.00  0.00    -0.240 NA
HETATM   30  C   UNL     1      43.677 -16.567   5.075  1.00  0.00     0.075 A 
HETATM   31  C   UNL     1      43.144 -16.273   3.822  1.00  0.00     0.036 A 
HETATM   32  C   UNL     1      44.116 -17.879   5.336  1.00  0.00     0.033 A 
HETATM   33  C   UNL     1      43.038 -17.248   2.813  1.00  0.00     0.028 A 
HETATM   34  S   UNL     1      42.696 -14.613   3.784  1.00  0.00    -0.067 SA
HETATM   35  C   UNL     1      43.487 -18.551   3.085  1.00  0.00    -0.061 A 
HETATM   36  C   UNL     1      43.397 -19.623   2.037  1.00  0.00     0.048 C 
HETATM   37  C   UNL     1      44.016 -18.857   4.341  1.00  0.00     0.009 A 
ENDBRANCH  25  28
ENDBRANCH   1  22
TORSDOF 7
ENDMDL
