MODEL 1
REMARK VINA RESULT:      -8.1      0.000      0.000
REMARK  2 active torsions:
REMARK  status: ('A' for Active; 'I' for Inactive)
REMARK    1  A    between atoms: C_4  and  C_5 
REMARK    2  A    between atoms: C_10  and  C_11 
ROOT
HETATM    1  C   UNL     1      42.246 -14.452   4.886  1.00  0.00     0.224 C 
HETATM    2  N   UNL     1      42.190 -15.720   5.633  1.00  0.00    -0.359 N 
HETATM    3  C   UNL     1      42.339 -15.610   7.084  1.00  0.00     0.152 C 
HETATM    4  C   UNL     1      42.862 -16.784   4.991  1.00  0.00     0.047 A 
HETATM    5  C   UNL     1      42.945 -16.824   3.586  1.00  0.00     0.058 A 
HETATM    6  C   UNL     1      42.318 -15.736   2.814  1.00  0.00     0.255 C 
HETATM    7  O   UNL     1      42.258 -15.746   1.590  1.00  0.00    -0.268 OA
HETATM    8  N   UNL     1      41.797 -14.710   3.544  1.00  0.00    -0.331 N 
HETATM    9  C   UNL     1      43.427 -17.871   5.679  1.00  0.00     0.030 A 
HETATM   10  C   UNL     1      44.069 -18.919   5.002  1.00  0.00     0.002 A 
HETATM   11  C   UNL     1      44.149 -18.918   3.614  1.00  0.00     0.001 A 
HETATM   12  C   UNL     1      43.580 -17.870   2.900  1.00  0.00     0.019 A 
HETATM   13  H   UNL     1      41.501 -13.926   2.982  1.00  0.00     0.165 HD
ENDROOT
BRANCH   1  14
HETATM   14  C   UNL     1      41.403 -13.314   5.394  1.00  0.00     0.034 A 
HETATM   15  C   UNL     1      41.838 -12.100   5.999  1.00  0.00     0.122 A 
HETATM   16  N   UNL     1      40.808 -11.299   6.313  1.00  0.00    -0.172 NA
HETATM   17  N   UNL     1      39.726 -12.000   5.948  1.00  0.00    -0.288 N 
HETATM   18  H   UNL     1      38.811 -11.589   6.105  1.00  0.00     0.188 HD
HETATM   19  C   UNL     1      40.021 -13.209   5.404  1.00  0.00     0.123 A 
BRANCH  15  20
HETATM   20  C   UNL     1      43.250 -11.710   6.305  1.00  0.00     0.106 A 
HETATM   21  O   UNL     1      43.694 -11.273   7.523  1.00  0.00    -0.313 OA
HETATM   22  C   UNL     1      45.023 -11.002   7.405  1.00  0.00     0.050 A 
HETATM   23  C   UNL     1      45.705 -10.505   8.615  1.00  0.00     0.076 C 
HETATM   24  C   UNL     1      45.445 -11.259   6.119  1.00  0.00     0.035 A 
HETATM   25  C   UNL     1      44.305 -11.711   5.412  1.00  0.00     0.042 A 
ENDBRANCH  15  20
ENDBRANCH   1  14
TORSDOF 2
ENDMDL
MODEL 2
REMARK VINA RESULT:      -7.9      3.199      5.919
REMARK  2 active torsions:
REMARK  status: ('A' for Active; 'I' for Inactive)
REMARK    1  A    between atoms: C_4  and  C_5 
REMARK    2  A    between atoms: C_10  and  C_11 
ROOT
HETATM    1  C   UNL     1      41.207 -13.668   2.854  1.00  0.00     0.224 C 
HETATM    2  N   UNL     1      40.123 -14.120   1.965  1.00  0.00    -0.359 N 
HETATM    3  C   UNL     1      39.637 -15.480   2.195  1.00  0.00     0.152 C 
HETATM    4  C   UNL     1      40.284 -13.706   0.624  1.00  0.00     0.047 A 
HETATM    5  C   UNL     1      40.950 -12.501   0.329  1.00  0.00     0.058 A 
HETATM    6  C   UNL     1      41.467 -11.693   1.448  1.00  0.00     0.255 C 
HETATM    7  O   UNL     1      41.970 -10.587   1.285  1.00  0.00    -0.268 OA
HETATM    8  N   UNL     1      41.351 -12.246   2.687  1.00  0.00    -0.331 N 
HETATM    9  C   UNL     1      39.761 -14.412  -0.473  1.00  0.00     0.030 A 
HETATM   10  C   UNL     1      39.925 -13.957  -1.790  1.00  0.00     0.002 A 
HETATM   11  C   UNL     1      40.604 -12.771  -2.046  1.00  0.00     0.001 A 
HETATM   12  C   UNL     1      41.114 -12.034  -0.983  1.00  0.00     0.019 A 
HETATM   13  H   UNL     1      41.836 -11.730   3.405  1.00  0.00     0.165 HD
ENDROOT
BRANCH   1  14
HETATM   14  C   UNL     1      41.029 -13.897   4.331  1.00  0.00     0.034 A 
HETATM   15  C   UNL     1      41.608 -14.917   5.138  1.00  0.00     0.122 A 
HETATM   16  N   UNL     1      41.244 -14.805   6.425  1.00  0.00    -0.172 NA
HETATM   17  N   UNL     1      40.416 -13.751   6.440  1.00  0.00    -0.288 N 
HETATM   18  H   UNL     1      39.998 -13.480   7.325  1.00  0.00     0.188 HD
HETATM   19  C   UNL     1      40.245 -13.178   5.220  1.00  0.00     0.123 A 
BRANCH  15  20
HETATM   20  C   UNL     1      42.498 -16.026   4.674  1.00  0.00     0.106 A 
HETATM   21  O   UNL     1      42.255 -16.821   3.587  1.00  0.00    -0.313 OA
HETATM   22  C   UNL     1      43.274 -17.719   3.496  1.00  0.00     0.050 A 
HETATM   23  C   UNL     1      43.204 -18.686   2.383  1.00  0.00     0.076 C 
HETATM   24  C   UNL     1      44.177 -17.515   4.517  1.00  0.00     0.035 A 
HETATM   25  C   UNL     1      43.675 -16.429   5.275  1.00  0.00     0.042 A 
ENDBRANCH  15  20
ENDBRANCH   1  14
TORSDOF 2
ENDMDL
MODEL 3
REMARK VINA RESULT:      -7.9      1.672      2.422
REMARK  2 active torsions:
REMARK  status: ('A' for Active; 'I' for Inactive)
REMARK    1  A    between atoms: C_4  and  C_5 
REMARK    2  A    between atoms: C_10  and  C_11 
ROOT
HETATM    1  C   UNL     1      41.283 -14.161   5.796  1.00  0.00     0.224 C 
HETATM    2  N   UNL     1      42.118 -14.557   4.649  1.00  0.00    -0.359 N 
HETATM    3  C   UNL     1      41.583 -14.226   3.328  1.00  0.00     0.152 C 
HETATM    4  C   UNL     1      42.726 -15.823   4.803  1.00  0.00     0.047 A 
HETATM    5  C   UNL     1      43.062 -16.296   6.086  1.00  0.00     0.058 A 
HETATM    6  C   UNL     1      42.765 -15.441   7.250  1.00  0.00     0.255 C 
HETATM    7  O   UNL     1      43.114 -15.732   8.388  1.00  0.00    -0.268 OA
HETATM    8  N   UNL     1      42.079 -14.294   6.987  1.00  0.00    -0.331 N 
HETATM    9  C   UNL     1      43.079 -16.651   3.723  1.00  0.00     0.030 A 
HETATM   10  C   UNL     1      43.699 -17.893   3.918  1.00  0.00     0.002 A 
HETATM   11  C   UNL     1      44.001 -18.338   5.200  1.00  0.00     0.001 A 
HETATM   12  C   UNL     1      43.688 -17.534   6.291  1.00  0.00     0.019 A 
HETATM   13  H   UNL     1      41.777 -13.807   7.817  1.00  0.00     0.165 HD
ENDROOT
BRANCH   1  14
HETATM   14  C   UNL     1      40.749 -12.755   5.808  1.00  0.00     0.034 A 
HETATM   15  C   UNL     1      41.474 -11.540   5.965  1.00  0.00     0.122 A 
HETATM   16  N   UNL     1      40.672 -10.465   5.904  1.00  0.00    -0.172 NA
HETATM   17  N   UNL     1      39.446 -10.981   5.746  1.00  0.00    -0.288 N 
HETATM   18  H   UNL     1      38.659 -10.342   5.687  1.00  0.00     0.188 HD
HETATM   19  C   UNL     1      39.432 -12.338   5.691  1.00  0.00     0.123 A 
BRANCH  15  20
HETATM   20  C   UNL     1      42.945 -11.402   6.201  1.00  0.00     0.106 A 
HETATM   21  O   UNL     1      43.516 -11.035   7.390  1.00  0.00    -0.313 OA
HETATM   22  C   UNL     1      44.865 -11.005   7.208  1.00  0.00     0.050 A 
HETATM   23  C   UNL     1      45.679 -10.621   8.377  1.00  0.00     0.076 C 
HETATM   24  C   UNL     1      45.175 -11.349   5.910  1.00  0.00     0.035 A 
HETATM   25  C   UNL     1      43.941 -11.601   5.264  1.00  0.00     0.042 A 
ENDBRANCH  15  20
ENDBRANCH   1  14
TORSDOF 2
ENDMDL
MODEL 4
REMARK VINA RESULT:      -7.8      1.927      2.746
REMARK  2 active torsions:
REMARK  status: ('A' for Active; 'I' for Inactive)
REMARK    1  A    between atoms: C_4  and  C_5 
REMARK    2  A    between atoms: C_10  and  C_11 
ROOT
HETATM    1  C   UNL     1      41.095 -15.097   3.807  1.00  0.00     0.224 C 
HETATM    2  N   UNL     1      42.253 -15.552   3.020  1.00  0.00    -0.359 N 
HETATM    3  C   UNL     1      42.116 -15.449   1.567  1.00  0.00     0.152 C 
HETATM    4  C   UNL     1      42.862 -16.720   3.532  1.00  0.00     0.047 A 
HETATM    5  C   UNL     1      42.829 -16.987   4.914  1.00  0.00     0.058 A 
HETATM    6  C   UNL     1      42.151 -16.024   5.800  1.00  0.00     0.255 C 
HETATM    7  O   UNL     1      42.163 -16.129   7.021  1.00  0.00    -0.268 OA
HETATM    8  N   UNL     1      41.507 -14.995   5.182  1.00  0.00    -0.331 N 
HETATM    9  C   UNL     1      43.567 -17.639   2.737  1.00  0.00     0.030 A 
HETATM   10  C   UNL     1      44.173 -18.778   3.288  1.00  0.00     0.002 A 
HETATM   11  C   UNL     1      44.107 -19.020   4.655  1.00  0.00     0.001 A 
HETATM   12  C   UNL     1      43.437 -18.119   5.476  1.00  0.00     0.019 A 
HETATM   13  H   UNL     1      40.945 -14.438   5.806  1.00  0.00     0.165 HD
ENDROOT
BRANCH   1  14
HETATM   14  C   UNL     1      40.499 -13.762   3.451  1.00  0.00     0.034 A 
HETATM   15  C   UNL     1      41.080 -12.471   3.606  1.00  0.00     0.122 A 
HETATM   16  N   UNL     1      40.268 -11.499   3.161  1.00  0.00    -0.172 NA
HETATM   17  N   UNL     1      39.168 -12.151   2.760  1.00  0.00    -0.288 N 
HETATM   18  H   UNL     1      38.395 -11.606   2.390  1.00  0.00     0.188 HD
HETATM   19  C   UNL     1      39.247 -13.498   2.918  1.00  0.00     0.123 A 
BRANCH  15  20
HETATM   20  C   UNL     1      42.414 -12.158   4.206  1.00  0.00     0.106 A 
HETATM   21  O   UNL     1      42.720 -12.273   5.535  1.00  0.00    -0.313 OA
HETATM   22  C   UNL     1      44.015 -11.885   5.696  1.00  0.00     0.050 A 
HETATM   23  C   UNL     1      44.550 -11.926   7.070  1.00  0.00     0.076 C 
HETATM   24  C   UNL     1      44.553 -11.517   4.482  1.00  0.00     0.035 A 
HETATM   25  C   UNL     1      43.522 -11.690   3.526  1.00  0.00     0.042 A 
ENDBRANCH  15  20
ENDBRANCH   1  14
TORSDOF 2
ENDMDL
MODEL 5
REMARK VINA RESULT:      -7.7      2.738      5.257
REMARK  2 active torsions:
REMARK  status: ('A' for Active; 'I' for Inactive)
REMARK    1  A    between atoms: C_4  and  C_5 
REMARK    2  A    between atoms: C_10  and  C_11 
ROOT
HETATM    1  C   UNL     1      42.713 -16.072   4.453  1.00  0.00     0.224 C 
HETATM    2  N   UNL     1      43.575 -16.847   3.545  1.00  0.00    -0.359 N 
HETATM    3  C   UNL     1      43.437 -16.542   2.121  1.00  0.00     0.152 C 
HETATM    4  C   UNL     1      43.700 -18.207   3.907  1.00  0.00     0.047 A 
HETATM    5  C   UNL     1      43.615 -18.591   5.259  1.00  0.00     0.058 A 
HETATM    6  C   UNL     1      43.397 -17.543   6.274  1.00  0.00     0.255 C 
HETATM    7  O   UNL     1      43.411 -17.778   7.477  1.00  0.00    -0.268 OA
HETATM    8  N   UNL     1      43.182 -16.286   5.796  1.00  0.00    -0.331 N 
HETATM    9  C   UNL     1      43.963 -19.234   2.985  1.00  0.00     0.030 A 
HETATM   10  C   UNL     1      44.099 -20.571   3.388  1.00  0.00     0.002 A 
HETATM   11  C   UNL     1      43.992 -20.917   4.730  1.00  0.00     0.001 A 
HETATM   12  C   UNL     1      43.755 -19.923   5.674  1.00  0.00     0.019 A 
HETATM   13  H   UNL     1      42.903 -15.627   6.507  1.00  0.00     0.165 HD
ENDROOT
BRANCH   1  14
HETATM   14  C   UNL     1      42.671 -14.581   4.260  1.00  0.00     0.034 A 
HETATM   15  C   UNL     1      41.952 -13.841   3.278  1.00  0.00     0.122 A 
HETATM   16  N   UNL     1      42.131 -12.518   3.415  1.00  0.00    -0.172 NA
HETATM   17  N   UNL     1      42.981 -12.409   4.446  1.00  0.00    -0.288 N 
HETATM   18  H   UNL     1      43.277 -11.480   4.729  1.00  0.00     0.188 HD
HETATM   19  C   UNL     1      43.342 -13.605   4.980  1.00  0.00     0.123 A 
BRANCH  15  20
HETATM   20  C   UNL     1      41.103 -14.403   2.182  1.00  0.00     0.106 A 
HETATM   21  O   UNL     1      41.040 -13.906   0.908  1.00  0.00    -0.313 OA
HETATM   22  C   UNL     1      40.153 -14.668   0.211  1.00  0.00     0.050 A 
HETATM   23  C   UNL     1      39.928 -14.295  -1.199  1.00  0.00     0.076 C 
HETATM   24  C   UNL     1      39.637 -15.655   1.022  1.00  0.00     0.035 A 
HETATM   25  C   UNL     1      40.246 -15.482   2.289  1.00  0.00     0.042 A 
ENDBRANCH  15  20
ENDBRANCH   1  14
TORSDOF 2
ENDMDL
MODEL 6
REMARK VINA RESULT:      -7.7      3.947      6.613
REMARK  2 active torsions:
REMARK  status: ('A' for Active; 'I' for Inactive)
REMARK    1  A    between atoms: C_4  and  C_5 
REMARK    2  A    between atoms: C_10  and  C_11 
ROOT
HETATM    1  C   UNL     1      39.872 -13.048   1.589  1.00  0.00     0.224 C 
HETATM    2  N   UNL     1      40.949 -12.274   0.949  1.00  0.00    -0.359 N 
HETATM    3  C   UNL     1      41.381 -11.073   1.665  1.00  0.00     0.152 C 
HETATM    4  C   UNL     1      40.820 -12.180  -0.455  1.00  0.00     0.047 A 
HETATM    5  C   UNL     1      40.203 -13.218  -1.180  1.00  0.00     0.058 A 
HETATM    6  C   UNL     1      39.702 -14.390  -0.440  1.00  0.00     0.255 C 
HETATM    7  O   UNL     1      39.243 -15.378  -1.003  1.00  0.00    -0.268 OA
HETATM    8  N   UNL     1      39.782 -14.318   0.918  1.00  0.00    -0.331 N 
HETATM    9  C   UNL     1      41.330 -11.111  -1.211  1.00  0.00     0.030 A 
HETATM   10  C   UNL     1      41.198 -11.065  -2.606  1.00  0.00     0.002 A 
HETATM   11  C   UNL     1      40.567 -12.099  -3.289  1.00  0.00     0.001 A 
HETATM   12  C   UNL     1      40.072 -13.184  -2.576  1.00  0.00     0.019 A 
HETATM   13  H   UNL     1      39.308 -15.072   1.390  1.00  0.00     0.165 HD
ENDROOT
BRANCH   1  14
HETATM   14  C   UNL     1      40.023 -13.362   3.052  1.00  0.00     0.034 A 
HETATM   15  C   UNL     1      40.902 -14.300   3.664  1.00  0.00     0.122 A 
HETATM   16  N   UNL     1      40.782 -14.302   5.001  1.00  0.00    -0.172 NA
HETATM   17  N   UNL     1      39.817 -13.405   5.244  1.00  0.00    -0.288 N 
HETATM   18  H   UNL     1      39.540 -13.245   6.208  1.00  0.00     0.188 HD
HETATM   19  C   UNL     1      39.323 -12.822   4.121  1.00  0.00     0.123 A 
BRANCH  15  20
HETATM   20  C   UNL     1      41.849 -15.224   2.966  1.00  0.00     0.106 A 
HETATM   21  O   UNL     1      41.808 -16.590   3.039  1.00  0.00    -0.313 OA
HETATM   22  C   UNL     1      42.834 -17.075   2.288  1.00  0.00     0.050 A 
HETATM   23  C   UNL     1      42.977 -18.542   2.236  1.00  0.00     0.076 C 
HETATM   24  C   UNL     1      43.543 -16.035   1.727  1.00  0.00     0.035 A 
HETATM   25  C   UNL     1      42.911 -14.846   2.166  1.00  0.00     0.042 A 
ENDBRANCH  15  20
ENDBRANCH   1  14
TORSDOF 2
ENDMDL
MODEL 7
REMARK VINA RESULT:      -7.7      2.043      6.464
REMARK  2 active torsions:
REMARK  status: ('A' for Active; 'I' for Inactive)
REMARK    1  A    between atoms: C_4  and  C_5 
REMARK    2  A    between atoms: C_10  and  C_11 
ROOT
HETATM    1  C   UNL     1      42.636 -14.051   5.636  1.00  0.00     0.224 C 
HETATM    2  N   UNL     1      41.371 -13.369   5.959  1.00  0.00    -0.359 N 
HETATM    3  C   UNL     1      40.202 -14.235   6.111  1.00  0.00     0.152 C 
HETATM    4  C   UNL     1      41.191 -12.153   5.263  1.00  0.00     0.047 A 
HETATM    5  C   UNL     1      42.307 -11.379   4.888  1.00  0.00     0.058 A 
HETATM    6  C   UNL     1      43.651 -11.870   5.241  1.00  0.00     0.255 C 
HETATM    7  O   UNL     1      44.666 -11.212   5.041  1.00  0.00    -0.268 OA
HETATM    8  N   UNL     1      43.705 -13.105   5.812  1.00  0.00    -0.331 N 
HETATM    9  C   UNL     1      39.930 -11.616   4.953  1.00  0.00     0.030 A 
HETATM   10  C   UNL     1      39.794 -10.395   4.276  1.00  0.00     0.002 A 
HETATM   11  C   UNL     1      40.918  -9.665   3.905  1.00  0.00     0.001 A 
HETATM   12  C   UNL     1      42.182 -10.154   4.217  1.00  0.00     0.019 A 
HETATM   13  H   UNL     1      44.643 -13.462   5.913  1.00  0.00     0.165 HD
ENDROOT
BRANCH   1  14
HETATM   14  C   UNL     1      43.003 -15.253   6.464  1.00  0.00     0.034 A 
HETATM   15  C   UNL     1      43.319 -16.567   6.014  1.00  0.00     0.122 A 
HETATM   16  N   UNL     1      43.620 -17.387   7.034  1.00  0.00    -0.172 NA
HETATM   17  N   UNL     1      43.466 -16.623   8.124  1.00  0.00    -0.288 N 
HETATM   18  H   UNL     1      43.631 -17.044   9.033  1.00  0.00     0.188 HD
HETATM   19  C   UNL     1      43.091 -15.347   7.844  1.00  0.00     0.123 A 
BRANCH  15  20
HETATM   20  C   UNL     1      43.309 -17.053   4.600  1.00  0.00     0.106 A 
HETATM   21  O   UNL     1      43.493 -18.355   4.218  1.00  0.00    -0.313 OA
HETATM   22  C   UNL     1      43.433 -18.399   2.859  1.00  0.00     0.050 A 
HETATM   23  C   UNL     1      43.616 -19.723   2.234  1.00  0.00     0.076 C 
HETATM   24  C   UNL     1      43.215 -17.136   2.354  1.00  0.00     0.035 A 
HETATM   25  C   UNL     1      43.138 -16.272   3.473  1.00  0.00     0.042 A 
ENDBRANCH  15  20
ENDBRANCH   1  14
TORSDOF 2
ENDMDL
MODEL 8
REMARK VINA RESULT:      -7.6      3.207      4.466
REMARK  2 active torsions:
REMARK  status: ('A' for Active; 'I' for Inactive)
REMARK    1  A    between atoms: C_4  and  C_5 
REMARK    2  A    between atoms: C_10  and  C_11 
ROOT
HETATM    1  C   UNL     1      40.962 -15.546   3.401  1.00  0.00     0.224 C 
HETATM    2  N   UNL     1      42.415 -15.488   3.634  1.00  0.00    -0.359 N 
HETATM    3  C   UNL     1      43.254 -16.002   2.551  1.00  0.00     0.152 C 
HETATM    4  C   UNL     1      42.789 -15.818   4.956  1.00  0.00     0.047 A 
HETATM    5  C   UNL     1      41.916 -15.548   6.027  1.00  0.00     0.058 A 
HETATM    6  C   UNL     1      40.616 -14.919   5.732  1.00  0.00     0.255 C 
HETATM    7  O   UNL     1      39.841 -14.561   6.612  1.00  0.00    -0.268 OA
HETATM    8  N   UNL     1      40.320 -14.749   4.413  1.00  0.00    -0.331 N 
HETATM    9  C   UNL     1      44.037 -16.367   5.295  1.00  0.00     0.030 A 
HETATM   10  C   UNL     1      44.377 -16.663   6.623  1.00  0.00     0.002 A 
HETATM   11  C   UNL     1      43.484 -16.400   7.655  1.00  0.00     0.001 A 
HETATM   12  C   UNL     1      42.248 -15.834   7.359  1.00  0.00     0.019 A 
HETATM   13  H   UNL     1      39.373 -14.444   4.248  1.00  0.00     0.165 HD
ENDROOT
BRANCH   1  14
HETATM   14  C   UNL     1      40.453 -15.031   2.082  1.00  0.00     0.034 A 
HETATM   15  C   UNL     1      40.432 -13.687   1.612  1.00  0.00     0.122 A 
HETATM   16  N   UNL     1      39.922 -13.597   0.374  1.00  0.00    -0.172 NA
HETATM   17  N   UNL     1      39.588 -14.857   0.065  1.00  0.00    -0.288 N 
HETATM   18  H   UNL     1      39.162 -15.034  -0.840  1.00  0.00     0.188 HD
HETATM   19  C   UNL     1      39.873 -15.750   1.049  1.00  0.00     0.123 A 
BRANCH  15  20
HETATM   20  C   UNL     1      40.879 -12.472   2.362  1.00  0.00     0.106 A 
HETATM   21  O   UNL     1      40.152 -11.840   3.334  1.00  0.00    -0.313 OA
HETATM   22  C   UNL     1      40.879 -10.773   3.766  1.00  0.00     0.050 A 
HETATM   23  C   UNL     1      40.268  -9.942   4.820  1.00  0.00     0.076 C 
HETATM   24  C   UNL     1      42.072 -10.705   3.079  1.00  0.00     0.035 A 
HETATM   25  C   UNL     1      42.070 -11.795   2.176  1.00  0.00     0.042 A 
ENDBRANCH  15  20
ENDBRANCH   1  14
TORSDOF 2
ENDMDL
MODEL 9
REMARK VINA RESULT:      -7.6      2.322      3.911
REMARK  2 active torsions:
REMARK  status: ('A' for Active; 'I' for Inactive)
REMARK    1  A    between atoms: C_4  and  C_5 
REMARK    2  A    between atoms: C_10  and  C_11 
ROOT
HETATM    1  C   UNL     1      43.711 -15.928   5.043  1.00  0.00     0.224 C 
HETATM    2  N   UNL     1      43.268 -17.176   5.685  1.00  0.00    -0.359 N 
HETATM    3  C   UNL     1      43.493 -17.265   7.128  1.00  0.00     0.152 C 
HETATM    4  C   UNL     1      43.532 -18.332   4.916  1.00  0.00     0.047 A 
HETATM    5  C   UNL     1      43.551 -18.258   3.510  1.00  0.00     0.058 A 
HETATM    6  C   UNL     1      43.290 -16.954   2.872  1.00  0.00     0.255 C 
HETATM    7  O   UNL     1      43.190 -16.823   1.657  1.00  0.00    -0.268 OA
HETATM    8  N   UNL     1      43.158 -15.893   3.715  1.00  0.00    -0.331 N 
HETATM    9  C   UNL     1      43.733 -19.606   5.474  1.00  0.00     0.030 A 
HETATM   10  C   UNL     1      43.973 -20.732   4.674  1.00  0.00     0.002 A 
HETATM   11  C   UNL     1      44.003 -20.620   3.288  1.00  0.00     0.001 A 
HETATM   12  C   UNL     1      43.785 -19.379   2.700  1.00  0.00     0.019 A 
HETATM   13  H   UNL     1      43.117 -15.004   3.240  1.00  0.00     0.165 HD
ENDROOT
BRANCH   1  14
HETATM   14  C   UNL     1      43.306 -14.634   5.696  1.00  0.00     0.034 A 
HETATM   15  C   UNL     1      42.314 -13.706   5.268  1.00  0.00     0.122 A 
HETATM   16  N   UNL     1      42.204 -12.666   6.109  1.00  0.00    -0.172 NA
HETATM   17  N   UNL     1      43.135 -12.901   7.044  1.00  0.00    -0.288 N 
HETATM   18  H   UNL     1      43.246 -12.225   7.792  1.00  0.00     0.188 HD
HETATM   19  C   UNL     1      43.826 -14.054   6.842  1.00  0.00     0.123 A 
BRANCH  15  20
HETATM   20  C   UNL     1      41.478 -13.800   4.030  1.00  0.00     0.106 A 
HETATM   21  O   UNL     1      41.910 -13.491   2.769  1.00  0.00    -0.313 OA
HETATM   22  C   UNL     1      40.868 -13.685   1.916  1.00  0.00     0.050 A 
HETATM   23  C   UNL     1      41.120 -13.400   0.491  1.00  0.00     0.076 C 
HETATM   24  C   UNL     1      39.760 -14.116   2.614  1.00  0.00     0.035 A 
HETATM   25  C   UNL     1      40.153 -14.186   3.972  1.00  0.00     0.042 A 
ENDBRANCH  15  20
ENDBRANCH   1  14
TORSDOF 2
ENDMDL
MODEL 10
REMARK VINA RESULT:      -7.3      2.639      3.575
REMARK  2 active torsions:
REMARK  status: ('A' for Active; 'I' for Inactive)
REMARK    1  A    between atoms: C_4  and  C_5 
REMARK    2  A    between atoms: C_10  and  C_11 
ROOT
HETATM    1  C   UNL     1      41.878 -14.584   4.295  1.00  0.00     0.224 C 
HETATM    2  N   UNL     1      42.443 -15.660   5.126  1.00  0.00    -0.359 N 
HETATM    3  C   UNL     1      43.200 -15.227   6.301  1.00  0.00     0.152 C 
HETATM    4  C   UNL     1      42.970 -16.735   4.376  1.00  0.00     0.047 A 
HETATM    5  C   UNL     1      42.420 -17.060   3.121  1.00  0.00     0.058 A 
HETATM    6  C   UNL     1      41.291 -16.255   2.620  1.00  0.00     0.255 C 
HETATM    7  O   UNL     1      40.692 -16.532   1.587  1.00  0.00    -0.268 OA
HETATM    8  N   UNL     1      40.943 -15.178   3.378  1.00  0.00    -0.331 N 
HETATM    9  C   UNL     1      44.007 -17.566   4.834  1.00  0.00     0.030 A 
HETATM   10  C   UNL     1      44.489 -18.636   4.066  1.00  0.00     0.002 A 
HETATM   11  C   UNL     1      43.934 -18.918   2.823  1.00  0.00     0.001 A 
HETATM   12  C   UNL     1      42.890 -18.131   2.348  1.00  0.00     0.019 A 
HETATM   13  H   UNL     1      40.263 -14.578   2.937  1.00  0.00     0.165 HD
ENDROOT
BRANCH   1  14
HETATM   14  C   UNL     1      41.127 -13.488   5.002  1.00  0.00     0.034 A 
HETATM   15  C   UNL     1      40.720 -12.226   4.485  1.00  0.00     0.122 A 
HETATM   16  N   UNL     1      40.048 -11.503   5.395  1.00  0.00    -0.172 NA
HETATM   17  N   UNL     1      40.052 -12.273   6.491  1.00  0.00    -0.288 N 
HETATM   18  H   UNL     1      39.603 -11.919   7.330  1.00  0.00     0.188 HD
HETATM   19  C   UNL     1      40.689 -13.461   6.317  1.00  0.00     0.123 A 
BRANCH  15  20
HETATM   20  C   UNL     1      40.997 -11.691   3.115  1.00  0.00     0.106 A 
HETATM   21  O   UNL     1      40.697 -12.338   1.947  1.00  0.00    -0.313 OA
HETATM   22  C   UNL     1      41.111 -11.548   0.919  1.00  0.00     0.050 A 
HETATM   23  C   UNL     1      40.887 -12.067  -0.444  1.00  0.00     0.076 C 
HETATM   24  C   UNL     1      41.681 -10.393   1.410  1.00  0.00     0.035 A 
HETATM   25  C   UNL     1      41.610 -10.488   2.821  1.00  0.00     0.042 A 
ENDBRANCH  15  20
ENDBRANCH   1  14
TORSDOF 2
ENDMDL
