MODEL 1
REMARK VINA RESULT:      -9.1      0.000      0.000
REMARK  2 active torsions:
REMARK  status: ('A' for Active; 'I' for Inactive)
REMARK    1  A    between atoms: C_3  and  C_4 
REMARK    2  A    between atoms: N_10  and  C_11 
ROOT
HETATM    1  C   UNL     1      43.654 -12.325   6.905  1.00  0.00     0.049 A 
HETATM    2  N   UNL     1      44.239 -13.571   6.797  1.00  0.00    -0.344 N 
HETATM    3  C   UNL     1      43.652 -14.591   6.102  1.00  0.00     0.119 A 
HETATM    4  C   UNL     1      42.458 -14.424   5.508  1.00  0.00     0.123 A 
HETATM    5  C   UNL     1      42.162 -15.667   4.779  1.00  0.00     0.280 A 
HETATM    6  O   UNL     1      41.165 -15.866   4.110  1.00  0.00    -0.265 OA
HETATM    7  N   UNL     1      43.263 -16.505   5.017  1.00  0.00    -0.236 N 
HETATM    8  N   UNL     1      44.178 -15.848   5.870  1.00  0.00    -0.179 NA
HETATM    9  C   UNL     1      41.756 -13.141   5.594  1.00  0.00     0.193 A 
HETATM   10  O   UNL     1      40.662 -12.925   5.089  1.00  0.00    -0.287 OA
HETATM   11  C   UNL     1      42.458 -12.058   6.345  1.00  0.00     0.086 A 
HETATM   12  H   UNL     1      45.132 -13.736   7.246  1.00  0.00     0.167 HD
HETATM   13  H   UNL     1      45.107 -15.772   5.456  1.00  0.00     0.155 HD
ENDROOT
BRANCH   1  14
HETATM   14  C   UNL     1      44.378 -11.276   7.656  1.00  0.00     0.012 A 
HETATM   15  C   UNL     1      43.810 -10.789   8.848  1.00  0.00     0.015 A 
HETATM   16  C   UNL     1      44.451  -9.798   9.597  1.00  0.00     0.001 A 
HETATM   17  C   UNL     1      45.670  -9.281   9.172  1.00  0.00     0.002 A 
HETATM   18  C   UNL     1      46.252  -9.753   7.996  1.00  0.00     0.025 A 
HETATM   19  C   UNL     1      45.613 -10.743   7.240  1.00  0.00     0.046 A 
HETATM   20 CL   UNL     1      46.400 -11.259   5.787  1.00  0.00    -0.083 Cl
ENDBRANCH   1  14
BRANCH   7  21
HETATM   21  C   UNL     1      43.511 -17.822   4.572  1.00  0.00     0.055 A 
HETATM   22  C   UNL     1      43.771 -18.859   5.481  1.00  0.00     0.034 A 
HETATM   23  C   UNL     1      44.001 -20.166   5.035  1.00  0.00     0.044 A 
HETATM   24  C   UNL     1      43.973 -20.442   3.676  1.00  0.00     0.116 A 
HETATM   25  F   UNL     1      44.189 -21.693   3.249  1.00  0.00    -0.206 F 
HETATM   26  C   UNL     1      43.725 -19.436   2.753  1.00  0.00     0.044 A 
HETATM   27  C   UNL     1      43.497 -18.130   3.201  1.00  0.00     0.034 A 
ENDBRANCH   7  21
TORSDOF 2
ENDMDL
MODEL 2
REMARK VINA RESULT:      -9.0      5.782      8.685
REMARK  2 active torsions:
REMARK  status: ('A' for Active; 'I' for Inactive)
REMARK    1  A    between atoms: C_3  and  C_4 
REMARK    2  A    between atoms: N_10  and  C_11 
ROOT
HETATM    1  C   UNL     1      42.733 -16.495   2.584  1.00  0.00     0.049 A 
HETATM    2  N   UNL     1      41.590 -16.436   1.810  1.00  0.00    -0.344 N 
HETATM    3  C   UNL     1      41.118 -15.259   1.302  1.00  0.00     0.119 A 
HETATM    4  C   UNL     1      41.743 -14.096   1.557  1.00  0.00     0.123 A 
HETATM    5  C   UNL     1      41.040 -13.053   0.794  1.00  0.00     0.280 A 
HETATM    6  O   UNL     1      41.344 -11.875   0.775  1.00  0.00    -0.265 OA
HETATM    7  N   UNL     1      40.006 -13.723   0.120  1.00  0.00    -0.236 N 
HETATM    8  N   UNL     1      40.032 -15.093   0.463  1.00  0.00    -0.179 NA
HETATM    9  C   UNL     1      42.947 -14.066   2.390  1.00  0.00     0.193 A 
HETATM   10  O   UNL     1      43.558 -13.043   2.672  1.00  0.00    -0.287 OA
HETATM   11  C   UNL     1      43.430 -15.386   2.896  1.00  0.00     0.086 A 
HETATM   12  H   UNL     1      41.086 -17.291   1.611  1.00  0.00     0.167 HD
HETATM   13  H   UNL     1      40.124 -15.695  -0.356  1.00  0.00     0.155 HD
ENDROOT
BRANCH   1  14
HETATM   14  C   UNL     1      43.181 -17.819   3.067  1.00  0.00     0.012 A 
HETATM   15  C   UNL     1      43.152 -18.906   2.175  1.00  0.00     0.015 A 
HETATM   16  C   UNL     1      43.564 -20.180   2.579  1.00  0.00     0.001 A 
HETATM   17  C   UNL     1      44.017 -20.387   3.878  1.00  0.00     0.002 A 
HETATM   18  C   UNL     1      44.059 -19.321   4.776  1.00  0.00     0.025 A 
HETATM   19  C   UNL     1      43.644 -18.045   4.378  1.00  0.00     0.046 A 
HETATM   20 CL   UNL     1      43.715 -16.786   5.563  1.00  0.00    -0.083 Cl
ENDBRANCH   1  14
BRANCH   7  21
HETATM   21  C   UNL     1      39.014 -13.215  -0.746  1.00  0.00     0.055 A 
HETATM   22  C   UNL     1      38.375 -11.994  -0.484  1.00  0.00     0.034 A 
HETATM   23  C   UNL     1      37.403 -11.488  -1.355  1.00  0.00     0.044 A 
HETATM   24  C   UNL     1      37.063 -12.203  -2.494  1.00  0.00     0.116 A 
HETATM   25  F   UNL     1      36.136 -11.718  -3.329  1.00  0.00    -0.206 F 
HETATM   26  C   UNL     1      37.672 -13.417  -2.776  1.00  0.00     0.044 A 
HETATM   27  C   UNL     1      38.643 -13.922  -1.904  1.00  0.00     0.034 A 
ENDBRANCH   7  21
TORSDOF 2
ENDMDL
MODEL 3
REMARK VINA RESULT:      -8.7      5.164      6.827
REMARK  2 active torsions:
REMARK  status: ('A' for Active; 'I' for Inactive)
REMARK    1  A    between atoms: C_3  and  C_4 
REMARK    2  A    between atoms: N_10  and  C_11 
ROOT
HETATM    1  C   UNL     1      40.780 -12.774   0.261  1.00  0.00     0.049 A 
HETATM    2  N   UNL     1      41.729 -13.767   0.408  1.00  0.00    -0.344 N 
HETATM    3  C   UNL     1      41.769 -14.576   1.509  1.00  0.00     0.119 A 
HETATM    4  C   UNL     1      40.890 -14.419   2.513  1.00  0.00     0.123 A 
HETATM    5  C   UNL     1      41.148 -15.495   3.482  1.00  0.00     0.280 A 
HETATM    6  O   UNL     1      40.525 -15.673   4.513  1.00  0.00    -0.265 OA
HETATM    7  N   UNL     1      42.213 -16.232   2.941  1.00  0.00    -0.236 N 
HETATM    8  N   UNL     1      42.625 -15.639   1.726  1.00  0.00    -0.179 NA
HETATM    9  C   UNL     1      39.866 -13.374   2.450  1.00  0.00     0.193 A 
HETATM   10  O   UNL     1      39.043 -13.169   3.333  1.00  0.00    -0.287 OA
HETATM   11  C   UNL     1      39.855 -12.538   1.212  1.00  0.00     0.086 A 
HETATM   12  H   UNL     1      42.417 -13.902  -0.323  1.00  0.00     0.167 HD
HETATM   13  H   UNL     1      42.582 -16.292   0.943  1.00  0.00     0.155 HD
ENDROOT
BRANCH   1  14
HETATM   14  C   UNL     1      40.799 -11.966  -0.977  1.00  0.00     0.012 A 
HETATM   15  C   UNL     1      41.168 -10.611  -0.891  1.00  0.00     0.015 A 
HETATM   16  C   UNL     1      41.203  -9.801  -2.030  1.00  0.00     0.001 A 
HETATM   17  C   UNL     1      40.876 -10.332  -3.273  1.00  0.00     0.002 A 
HETATM   18  C   UNL     1      40.514 -11.674  -3.382  1.00  0.00     0.025 A 
HETATM   19  C   UNL     1      40.473 -12.488  -2.244  1.00  0.00     0.046 A 
HETATM   20 CL   UNL     1      39.997 -14.137  -2.469  1.00  0.00    -0.083 Cl
ENDBRANCH   1  14
BRANCH   7  21
HETATM   21  C   UNL     1      42.880 -17.367   3.451  1.00  0.00     0.055 A 
HETATM   22  C   UNL     1      43.195 -18.457   2.625  1.00  0.00     0.034 A 
HETATM   23  C   UNL     1      43.870 -19.573   3.133  1.00  0.00     0.044 A 
HETATM   24  C   UNL     1      44.231 -19.607   4.472  1.00  0.00     0.116 A 
HETATM   25  F   UNL     1      44.878 -20.673   4.957  1.00  0.00    -0.206 F 
HETATM   26  C   UNL     1      43.925 -18.548   5.314  1.00  0.00     0.044 A 
HETATM   27  C   UNL     1      43.251 -17.433   4.805  1.00  0.00     0.034 A 
ENDBRANCH   7  21
TORSDOF 2
ENDMDL
MODEL 4
REMARK VINA RESULT:      -8.7      1.246      1.411
REMARK  2 active torsions:
REMARK  status: ('A' for Active; 'I' for Inactive)
REMARK    1  A    between atoms: C_3  and  C_4 
REMARK    2  A    between atoms: N_10  and  C_11 
ROOT
HETATM    1  C   UNL     1      43.451 -11.545   7.219  1.00  0.00     0.049 A 
HETATM    2  N   UNL     1      43.795 -12.881   7.166  1.00  0.00    -0.344 N 
HETATM    3  C   UNL     1      43.439 -13.681   6.117  1.00  0.00     0.119 A 
HETATM    4  C   UNL     1      42.713 -13.197   5.095  1.00  0.00     0.123 A 
HETATM    5  C   UNL     1      42.587 -14.279   4.106  1.00  0.00     0.280 A 
HETATM    6  O   UNL     1      42.003 -14.189   3.041  1.00  0.00    -0.265 OA
HETATM    7  N   UNL     1      43.283 -15.366   4.658  1.00  0.00    -0.236 N 
HETATM    8  N   UNL     1      43.786 -15.005   5.928  1.00  0.00    -0.179 NA
HETATM    9  C   UNL     1      42.285 -11.796   5.083  1.00  0.00     0.193 A 
HETATM   10  O   UNL     1      41.612 -11.293   4.192  1.00  0.00    -0.287 OA
HETATM   11  C   UNL     1      42.725 -10.965   6.244  1.00  0.00     0.086 A 
HETATM   12  H   UNL     1      44.329 -13.283   7.928  1.00  0.00     0.167 HD
HETATM   13  H   UNL     1      44.799 -15.117   5.988  1.00  0.00     0.155 HD
ENDROOT
BRANCH   1  14
HETATM   14  C   UNL     1      43.905 -10.752   8.383  1.00  0.00     0.012 A 
HETATM   15  C   UNL     1      42.949 -10.343   9.332  1.00  0.00     0.015 A 
HETATM   16  C   UNL     1      43.322  -9.592  10.450  1.00  0.00     0.001 A 
HETATM   17  C   UNL     1      44.655  -9.242  10.643  1.00  0.00     0.002 A 
HETATM   18  C   UNL     1      45.618  -9.643   9.717  1.00  0.00     0.025 A 
HETATM   19  C   UNL     1      45.249 -10.392   8.594  1.00  0.00     0.046 A 
HETATM   20 CL   UNL     1      46.508 -10.831   7.490  1.00  0.00    -0.083 Cl
ENDBRANCH   1  14
BRANCH   7  21
HETATM   21  C   UNL     1      43.481 -16.667   4.147  1.00  0.00     0.055 A 
HETATM   22  C   UNL     1      44.068 -17.673   4.928  1.00  0.00     0.034 A 
HETATM   23  C   UNL     1      44.247 -18.966   4.421  1.00  0.00     0.044 A 
HETATM   24  C   UNL     1      43.842 -19.258   3.128  1.00  0.00     0.116 A 
HETATM   25  F   UNL     1      44.010 -20.495   2.644  1.00  0.00    -0.206 F 
HETATM   26  C   UNL     1      43.265 -18.281   2.328  1.00  0.00     0.044 A 
HETATM   27  C   UNL     1      43.087 -16.990   2.836  1.00  0.00     0.034 A 
ENDBRANCH   7  21
TORSDOF 2
ENDMDL
MODEL 5
REMARK VINA RESULT:      -8.7      3.429      8.122
REMARK  2 active torsions:
REMARK  status: ('A' for Active; 'I' for Inactive)
REMARK    1  A    between atoms: C_3  and  C_4 
REMARK    2  A    between atoms: N_10  and  C_11 
ROOT
HETATM    1  C   UNL     1      42.986 -16.934   4.353  1.00  0.00     0.049 A 
HETATM    2  N   UNL     1      43.908 -16.204   5.077  1.00  0.00    -0.344 N 
HETATM    3  C   UNL     1      43.669 -14.916   5.466  1.00  0.00     0.119 A 
HETATM    4  C   UNL     1      42.524 -14.296   5.135  1.00  0.00     0.123 A 
HETATM    5  C   UNL     1      42.548 -12.974   5.780  1.00  0.00     0.280 A 
HETATM    6  O   UNL     1      41.660 -12.144   5.710  1.00  0.00    -0.265 OA
HETATM    7  N   UNL     1      43.769 -12.923   6.472  1.00  0.00    -0.236 N 
HETATM    8  N   UNL     1      44.485 -14.120   6.249  1.00  0.00    -0.179 NA
HETATM    9  C   UNL     1      41.503 -14.989   4.346  1.00  0.00     0.193 A 
HETATM   10  O   UNL     1      40.444 -14.481   4.000  1.00  0.00    -0.287 OA
HETATM   11  C   UNL     1      41.809 -16.402   3.972  1.00  0.00     0.086 A 
HETATM   12  H   UNL     1      44.789 -16.636   5.330  1.00  0.00     0.167 HD
HETATM   13  H   UNL     1      44.717 -14.600   7.119  1.00  0.00     0.155 HD
ENDROOT
BRANCH   1  14
HETATM   14  C   UNL     1      43.323 -18.330   4.000  1.00  0.00     0.012 A 
HETATM   15  C   UNL     1      43.391 -18.683   2.640  1.00  0.00     0.015 A 
HETATM   16  C   UNL     1      43.704 -19.989   2.250  1.00  0.00     0.001 A 
HETATM   17  C   UNL     1      43.960 -20.961   3.211  1.00  0.00     0.002 A 
HETATM   18  C   UNL     1      43.903 -20.631   4.565  1.00  0.00     0.025 A 
HETATM   19  C   UNL     1      43.586 -19.326   4.960  1.00  0.00     0.046 A 
HETATM   20 CL   UNL     1      43.523 -19.010   6.661  1.00  0.00    -0.083 Cl
ENDBRANCH   1  14
BRANCH   7  21
HETATM   21  C   UNL     1      44.322 -11.888   7.256  1.00  0.00     0.055 A 
HETATM   22  C   UNL     1      43.640 -11.378   8.371  1.00  0.00     0.034 A 
HETATM   23  C   UNL     1      44.200 -10.362   9.154  1.00  0.00     0.044 A 
HETATM   24  C   UNL     1      45.446  -9.848   8.825  1.00  0.00     0.116 A 
HETATM   25  F   UNL     1      45.983  -8.879   9.575  1.00  0.00    -0.206 F 
HETATM   26  C   UNL     1      46.141 -10.328   7.724  1.00  0.00     0.044 A 
HETATM   27  C   UNL     1      45.580 -11.343   6.941  1.00  0.00     0.034 A 
ENDBRANCH   7  21
TORSDOF 2
ENDMDL
MODEL 6
REMARK VINA RESULT:      -8.4      4.456      8.568
REMARK  2 active torsions:
REMARK  status: ('A' for Active; 'I' for Inactive)
REMARK    1  A    between atoms: C_3  and  C_4 
REMARK    2  A    between atoms: N_10  and  C_11 
ROOT
HETATM    1  C   UNL     1      42.503 -13.155   4.041  1.00  0.00     0.049 A 
HETATM    2  N   UNL     1      42.981 -13.050   5.332  1.00  0.00    -0.344 N 
HETATM    3  C   UNL     1      42.918 -11.881   6.036  1.00  0.00     0.119 A 
HETATM    4  C   UNL     1      42.401 -10.770   5.485  1.00  0.00     0.123 A 
HETATM    5  C   UNL     1      42.398  -9.733   6.528  1.00  0.00     0.280 A 
HETATM    6  O   UNL     1      41.983  -8.597   6.386  1.00  0.00    -0.265 OA
HETATM    7  N   UNL     1      42.942 -10.352   7.665  1.00  0.00    -0.236 N 
HETATM    8  N   UNL     1      43.299 -11.682   7.350  1.00  0.00    -0.179 NA
HETATM    9  C   UNL     1      41.894 -10.787   4.111  1.00  0.00     0.193 A 
HETATM   10  O   UNL     1      41.423  -9.810   3.543  1.00  0.00    -0.287 OA
HETATM   11  C   UNL     1      41.967 -12.099   3.400  1.00  0.00     0.086 A 
HETATM   12  H   UNL     1      43.391 -13.865   5.773  1.00  0.00     0.167 HD
HETATM   13  H   UNL     1      42.838 -12.360   7.958  1.00  0.00     0.155 HD
ENDROOT
BRANCH   1  14
HETATM   14  C   UNL     1      42.591 -14.470   3.368  1.00  0.00     0.012 A 
HETATM   15  C   UNL     1      43.366 -14.576   2.198  1.00  0.00     0.015 A 
HETATM   16  C   UNL     1      43.483 -15.794   1.522  1.00  0.00     0.001 A 
HETATM   17  C   UNL     1      42.834 -16.925   2.004  1.00  0.00     0.002 A 
HETATM   18  C   UNL     1      42.065 -16.843   3.165  1.00  0.00     0.025 A 
HETATM   19  C   UNL     1      41.941 -15.625   3.844  1.00  0.00     0.046 A 
HETATM   20 CL   UNL     1      40.954 -15.610   5.266  1.00  0.00    -0.083 Cl
ENDBRANCH   1  14
BRANCH   7  21
HETATM   21  C   UNL     1      43.186  -9.825   8.952  1.00  0.00     0.055 A 
HETATM   22  C   UNL     1      44.476  -9.820   9.503  1.00  0.00     0.034 A 
HETATM   23  C   UNL     1      44.714  -9.283  10.773  1.00  0.00     0.044 A 
HETATM   24  C   UNL     1      43.661  -8.750  11.502  1.00  0.00     0.116 A 
HETATM   25  F   UNL     1      43.888  -8.233  12.716  1.00  0.00    -0.206 F 
HETATM   26  C   UNL     1      42.373  -8.748  10.986  1.00  0.00     0.044 A 
HETATM   27  C   UNL     1      42.136  -9.286   9.717  1.00  0.00     0.034 A 
ENDBRANCH   7  21
TORSDOF 2
ENDMDL
MODEL 7
REMARK VINA RESULT:      -8.4      5.524      9.349
REMARK  2 active torsions:
REMARK  status: ('A' for Active; 'I' for Inactive)
REMARK    1  A    between atoms: C_3  and  C_4 
REMARK    2  A    between atoms: N_10  and  C_11 
ROOT
HETATM    1  C   UNL     1      44.036 -11.533   6.268  1.00  0.00     0.049 A 
HETATM    2  N   UNL     1      43.187 -11.303   7.333  1.00  0.00    -0.344 N 
HETATM    3  C   UNL     1      43.628 -10.764   8.509  1.00  0.00     0.119 A 
HETATM    4  C   UNL     1      44.924 -10.454   8.683  1.00  0.00     0.123 A 
HETATM    5  C   UNL     1      45.040  -9.817  10.004  1.00  0.00     0.280 A 
HETATM    6  O   UNL     1      46.073  -9.392  10.489  1.00  0.00    -0.265 OA
HETATM    7  N   UNL     1      43.735  -9.806  10.524  1.00  0.00    -0.236 N 
HETATM    8  N   UNL     1      42.859 -10.428   9.607  1.00  0.00    -0.179 NA
HETATM    9  C   UNL     1      45.896 -10.689   7.614  1.00  0.00     0.193 A 
HETATM   10  O   UNL     1      47.092 -10.442   7.710  1.00  0.00    -0.287 OA
HETATM   11  C   UNL     1      45.352 -11.256   6.344  1.00  0.00     0.086 A 
HETATM   12  H   UNL     1      42.206 -11.540   7.241  1.00  0.00     0.167 HD
HETATM   13  H   UNL     1      42.093  -9.814   9.327  1.00  0.00     0.155 HD
ENDROOT
BRANCH   1  14
HETATM   14  C   UNL     1      43.462 -12.096   5.026  1.00  0.00     0.012 A 
HETATM   15  C   UNL     1      43.249 -11.235   3.933  1.00  0.00     0.015 A 
HETATM   16  C   UNL     1      42.709 -11.713   2.736  1.00  0.00     0.001 A 
HETATM   17  C   UNL     1      42.378 -13.057   2.608  1.00  0.00     0.002 A 
HETATM   18  C   UNL     1      42.586 -13.929   3.677  1.00  0.00     0.025 A 
HETATM   19  C   UNL     1      43.123 -13.454   4.879  1.00  0.00     0.046 A 
HETATM   20 CL   UNL     1      43.333 -14.602   6.158  1.00  0.00    -0.083 Cl
ENDBRANCH   1  14
BRANCH   7  21
HETATM   21  C   UNL     1      43.260  -9.325  11.763  1.00  0.00     0.055 A 
HETATM   22  C   UNL     1      43.652  -8.070  12.254  1.00  0.00     0.034 A 
HETATM   23  C   UNL     1      43.165  -7.591  13.476  1.00  0.00     0.044 A 
HETATM   24  C   UNL     1      42.283  -8.366  14.215  1.00  0.00     0.116 A 
HETATM   25  F   UNL     1      41.815  -7.907  15.382  1.00  0.00    -0.206 F 
HETATM   26  C   UNL     1      41.883  -9.614  13.758  1.00  0.00     0.044 A 
HETATM   27  C   UNL     1      42.371 -10.091  12.538  1.00  0.00     0.034 A 
ENDBRANCH   7  21
TORSDOF 2
ENDMDL
MODEL 8
REMARK VINA RESULT:      -8.0      3.969      4.922
REMARK  2 active torsions:
REMARK  status: ('A' for Active; 'I' for Inactive)
REMARK    1  A    between atoms: C_3  and  C_4 
REMARK    2  A    between atoms: N_10  and  C_11 
ROOT
HETATM    1  C   UNL     1      43.841 -11.913   6.219  1.00  0.00     0.049 A 
HETATM    2  N   UNL     1      43.388 -11.617   4.948  1.00  0.00    -0.344 N 
HETATM    3  C   UNL     1      42.829 -12.564   4.138  1.00  0.00     0.119 A 
HETATM    4  C   UNL     1      42.717 -13.840   4.543  1.00  0.00     0.123 A 
HETATM    5  C   UNL     1      41.997 -14.566   3.486  1.00  0.00     0.280 A 
HETATM    6  O   UNL     1      41.703 -15.747   3.522  1.00  0.00    -0.265 OA
HETATM    7  N   UNL     1      41.733 -13.607   2.494  1.00  0.00    -0.236 N 
HETATM    8  N   UNL     1      42.281 -12.365   2.884  1.00  0.00    -0.179 NA
HETATM    9  C   UNL     1      43.195 -14.246   5.867  1.00  0.00     0.193 A 
HETATM   10  O   UNL     1      43.136 -15.392   6.294  1.00  0.00    -0.287 OA
HETATM   11  C   UNL     1      43.774 -13.162   6.717  1.00  0.00     0.086 A 
HETATM   12  H   UNL     1      43.472 -10.667   4.605  1.00  0.00     0.167 HD
HETATM   13  H   UNL     1      41.578 -11.626   2.919  1.00  0.00     0.155 HD
ENDROOT
BRANCH   1  14
HETATM   14  C   UNL     1      44.408 -10.815   7.032  1.00  0.00     0.012 A 
HETATM   15  C   UNL     1      45.805 -10.746   7.190  1.00  0.00     0.015 A 
HETATM   16  C   UNL     1      46.394  -9.730   7.948  1.00  0.00     0.001 A 
HETATM   17  C   UNL     1      45.599  -8.764   8.557  1.00  0.00     0.002 A 
HETATM   18  C   UNL     1      44.214  -8.811   8.409  1.00  0.00     0.025 A 
HETATM   19  C   UNL     1      43.619  -9.829   7.653  1.00  0.00     0.046 A 
HETATM   20 CL   UNL     1      41.891  -9.818   7.536  1.00  0.00    -0.083 Cl
ENDBRANCH   1  14
BRANCH   7  21
HETATM   21  C   UNL     1      41.077 -13.748   1.252  1.00  0.00     0.055 A 
HETATM   22  C   UNL     1      41.107 -12.722   0.295  1.00  0.00     0.034 A 
HETATM   23  C   UNL     1      40.468 -12.873  -0.942  1.00  0.00     0.044 A 
HETATM   24  C   UNL     1      39.793 -14.051  -1.226  1.00  0.00     0.116 A 
HETATM   25  F   UNL     1      39.184 -14.197  -2.410  1.00  0.00    -0.206 F 
HETATM   26  C   UNL     1      39.740 -15.079  -0.296  1.00  0.00     0.044 A 
HETATM   27  C   UNL     1      40.378 -14.927   0.939  1.00  0.00     0.034 A 
ENDBRANCH   7  21
TORSDOF 2
ENDMDL
MODEL 9
REMARK VINA RESULT:      -7.9      2.363      3.094
REMARK  2 active torsions:
REMARK  status: ('A' for Active; 'I' for Inactive)
REMARK    1  A    between atoms: C_3  and  C_4 
REMARK    2  A    between atoms: N_10  and  C_11 
ROOT
HETATM    1  C   UNL     1      41.506 -12.058   5.074  1.00  0.00     0.049 A 
HETATM    2  N   UNL     1      41.720 -13.373   5.438  1.00  0.00    -0.344 N 
HETATM    3  C   UNL     1      42.053 -14.334   4.525  1.00  0.00     0.119 A 
HETATM    4  C   UNL     1      42.164 -14.036   3.219  1.00  0.00     0.123 A 
HETATM    5  C   UNL     1      42.620 -15.257   2.536  1.00  0.00     0.280 A 
HETATM    6  O   UNL     1      42.843 -15.351   1.343  1.00  0.00    -0.265 OA
HETATM    7  N   UNL     1      42.743 -16.222   3.549  1.00  0.00    -0.236 N 
HETATM    8  N   UNL     1      42.357 -15.657   4.785  1.00  0.00    -0.179 NA
HETATM    9  C   UNL     1      41.930 -12.671   2.744  1.00  0.00     0.193 A 
HETATM   10  O   UNL     1      42.001 -12.333   1.569  1.00  0.00    -0.287 OA
HETATM   11  C   UNL     1      41.594 -11.659   3.791  1.00  0.00     0.086 A 
HETATM   12  H   UNL     1      41.629 -13.636   6.412  1.00  0.00     0.167 HD
HETATM   13  H   UNL     1      43.097 -15.718   5.486  1.00  0.00     0.155 HD
ENDROOT
BRANCH   1  14
HETATM   14  C   UNL     1      41.176 -11.084   6.137  1.00  0.00     0.012 A 
HETATM   15  C   UNL     1      39.821 -10.824   6.414  1.00  0.00     0.015 A 
HETATM   16  C   UNL     1      39.452  -9.913   7.408  1.00  0.00     0.001 A 
HETATM   17  C   UNL     1      40.429  -9.251   8.144  1.00  0.00     0.002 A 
HETATM   18  C   UNL     1      41.778  -9.498   7.890  1.00  0.00     0.025 A 
HETATM   19  C   UNL     1      42.152 -10.407   6.893  1.00  0.00     0.046 A 
HETATM   20 CL   UNL     1      43.848 -10.640   6.634  1.00  0.00    -0.083 Cl
ENDBRANCH   1  14
BRANCH   7  21
HETATM   21  C   UNL     1      43.135 -17.575   3.466  1.00  0.00     0.055 A 
HETATM   22  C   UNL     1      42.860 -18.342   2.324  1.00  0.00     0.034 A 
HETATM   23  C   UNL     1      43.264 -19.680   2.241  1.00  0.00     0.044 A 
HETATM   24  C   UNL     1      43.944 -20.259   3.302  1.00  0.00     0.116 A 
HETATM   25  F   UNL     1      44.333 -21.538   3.222  1.00  0.00    -0.206 F 
HETATM   26  C   UNL     1      44.223 -19.528   4.448  1.00  0.00     0.044 A 
HETATM   27  C   UNL     1      43.818 -18.191   4.529  1.00  0.00     0.034 A 
ENDBRANCH   7  21
TORSDOF 2
ENDMDL
MODEL 10
REMARK VINA RESULT:      -7.9      6.366      8.974
REMARK  2 active torsions:
REMARK  status: ('A' for Active; 'I' for Inactive)
REMARK    1  A    between atoms: C_3  and  C_4 
REMARK    2  A    between atoms: N_10  and  C_11 
ROOT
HETATM    1  C   UNL     1      41.663 -15.285   2.505  1.00  0.00     0.049 A 
HETATM    2  N   UNL     1      41.807 -14.800   1.220  1.00  0.00    -0.344 N 
HETATM    3  C   UNL     1      41.104 -13.719   0.768  1.00  0.00     0.119 A 
HETATM    4  C   UNL     1      40.217 -13.093   1.560  1.00  0.00     0.123 A 
HETATM    5  C   UNL     1      39.713 -11.933   0.809  1.00  0.00     0.280 A 
HETATM    6  O   UNL     1      38.901 -11.127   1.226  1.00  0.00    -0.265 OA
HETATM    7  N   UNL     1      40.378 -11.977  -0.427  1.00  0.00    -0.236 N 
HETATM    8  N   UNL     1      41.221 -13.110  -0.467  1.00  0.00    -0.179 NA
HETATM    9  C   UNL     1      39.983 -13.557   2.929  1.00  0.00     0.193 A 
HETATM   10  O   UNL     1      39.182 -13.042   3.699  1.00  0.00    -0.287 OA
HETATM   11  C   UNL     1      40.799 -14.726   3.375  1.00  0.00     0.086 A 
HETATM   12  H   UNL     1      42.456 -15.258   0.591  1.00  0.00     0.167 HD
HETATM   13  H   UNL     1      42.194 -12.862  -0.647  1.00  0.00     0.155 HD
ENDROOT
BRANCH   1  14
HETATM   14  C   UNL     1      42.487 -16.443   2.911  1.00  0.00     0.012 A 
HETATM   15  C   UNL     1      42.477 -17.594   2.101  1.00  0.00     0.015 A 
HETATM   16  C   UNL     1      43.237 -18.718   2.438  1.00  0.00     0.001 A 
HETATM   17  C   UNL     1      44.023 -18.710   3.586  1.00  0.00     0.002 A 
HETATM   18  C   UNL     1      44.051 -17.578   4.400  1.00  0.00     0.025 A 
HETATM   19  C   UNL     1      43.289 -16.451   4.068  1.00  0.00     0.046 A 
HETATM   20 CL   UNL     1      43.372 -15.098   5.145  1.00  0.00    -0.083 Cl
ENDBRANCH   1  14
BRANCH   7  21
HETATM   21  C   UNL     1      40.274 -11.116  -1.541  1.00  0.00     0.055 A 
HETATM   22  C   UNL     1      39.197 -11.211  -2.436  1.00  0.00     0.034 A 
HETATM   23  C   UNL     1      39.091 -10.345  -3.530  1.00  0.00     0.044 A 
HETATM   24  C   UNL     1      40.065  -9.378  -3.737  1.00  0.00     0.116 A 
HETATM   25  F   UNL     1      39.962  -8.548  -4.782  1.00  0.00    -0.206 F 
HETATM   26  C   UNL     1      41.145  -9.265  -2.874  1.00  0.00     0.044 A 
HETATM   27  C   UNL     1      41.250 -10.132  -1.781  1.00  0.00     0.034 A 
ENDBRANCH   7  21
TORSDOF 2
ENDMDL
