MODEL 1
REMARK VINA RESULT:      -9.2      0.000      0.000
REMARK  5 active torsions:
REMARK  status: ('A' for Active; 'I' for Inactive)
REMARK    1  A    between atoms: C_4  and  N_5 
REMARK    2  A    between atoms: C_9  and  C_10 
REMARK    3  A    between atoms: C_13  and  O_14 
REMARK    4  A    between atoms: C_17  and  C_18 
REMARK       I    between atoms: C_18  and  N_19 
REMARK    5  A    between atoms: N_19  and  C_20 
ROOT
HETATM    1  N   UNL     1      42.921 -12.476   6.368  1.00  0.00    -0.292 N 
HETATM    2  C   UNL     1      41.711 -11.871   5.959  1.00  0.00     0.179 C 
HETATM    3  S   UNL     1      41.294 -10.242   5.999  1.00  0.00    -0.040 SA
HETATM    4  N   UNL     1      40.745 -12.707   5.471  1.00  0.00    -0.354 N 
HETATM    5  C   UNL     1      41.002 -14.011   4.902  1.00  0.00     0.158 C 
HETATM    6  C   UNL     1      42.226 -14.605   5.525  1.00  0.00     0.060 C 
HETATM    7  C   UNL     1      43.140 -13.866   6.199  1.00  0.00     0.030 C 
HETATM    8  C   UNL     1      44.403 -14.462   6.792  1.00  0.00     0.070 C 
HETATM    9  H   UNL     1      39.925 -12.224   5.124  1.00  0.00     0.163 HD
ENDROOT
BRANCH   6  10
HETATM   10  C   UNL     1      42.343 -16.082   5.314  1.00  0.00     0.257 C 
HETATM   11  N   UNL     1      43.481 -16.458   4.634  1.00  0.00    -0.306 N 
HETATM   12  H   UNL     1      44.154 -15.758   4.363  1.00  0.00     0.170 HD
HETATM   13  O   UNL     1      41.481 -16.823   5.767  1.00  0.00    -0.267 OA
BRANCH  11  14
HETATM   14  C   UNL     1      43.667 -17.727   4.110  1.00  0.00     0.160 A 
HETATM   15  N   UNL     1      44.075 -18.801   4.792  1.00  0.00    -0.110 NA
HETATM   16  O   UNL     1      44.032 -19.862   3.913  1.00  0.00    -0.216 OA
HETATM   17  C   UNL     1      43.593 -19.429   2.706  1.00  0.00     0.078 A 
HETATM   18  C   UNL     1      43.429 -20.459   1.666  1.00  0.00     0.079 C 
HETATM   19  C   UNL     1      43.382 -18.074   2.766  1.00  0.00     0.087 A 
ENDBRANCH  11  14
ENDBRANCH   6  10
BRANCH   5  20
HETATM   20  C   UNL     1      41.000 -13.907   3.384  1.00  0.00    -0.031 A 
HETATM   21  C   UNL     1      41.714 -12.905   2.706  1.00  0.00     0.012 A 
HETATM   22  C   UNL     1      41.682 -12.823   1.311  1.00  0.00     0.037 A 
HETATM   23  C   UNL     1      40.926 -13.737   0.586  1.00  0.00     0.065 A 
HETATM   24  C   UNL     1      40.201 -14.728   1.233  1.00  0.00     0.037 A 
HETATM   25  C   UNL     1      40.236 -14.813   2.627  1.00  0.00     0.012 A 
BRANCH  23  26
HETATM   26  O   UNL     1      40.870 -13.695  -0.775  1.00  0.00    -0.361 OA
HETATM   27  H   UNL     1      40.056 -13.233  -1.033  1.00  0.00     0.217 HD
ENDBRANCH  23  26
ENDBRANCH   5  20
BRANCH   1  28
HETATM   28  C   UNL     1      43.868 -11.666   7.092  1.00  0.00     0.048 A 
HETATM   29  C   UNL     1      43.579 -11.358   8.435  1.00  0.00     0.037 A 
HETATM   30  C   UNL     1      44.443 -10.566   9.200  1.00  0.00    -0.060 A 
HETATM   31  C   UNL     1      44.093 -10.220  10.617  1.00  0.00     0.048 C 
HETATM   32  C   UNL     1      45.639 -10.130   8.629  1.00  0.00     0.007 A 
HETATM   33  C   UNL     1      45.938 -10.431   7.298  1.00  0.00     0.009 A 
HETATM   34  C   UNL     1      45.050 -11.177   6.504  1.00  0.00    -0.035 A 
HETATM   35  C   UNL     1      45.415 -11.388   5.061  1.00  0.00     0.050 C 
ENDBRANCH   1  28
TORSDOF 5
ENDMDL
MODEL 2
REMARK VINA RESULT:      -9.0      3.424      7.397
REMARK  5 active torsions:
REMARK  status: ('A' for Active; 'I' for Inactive)
REMARK    1  A    between atoms: C_4  and  N_5 
REMARK    2  A    between atoms: C_9  and  C_10 
REMARK    3  A    between atoms: C_13  and  O_14 
REMARK    4  A    between atoms: C_17  and  C_18 
REMARK       I    between atoms: C_18  and  N_19 
REMARK    5  A    between atoms: N_19  and  C_20 
ROOT
HETATM    1  N   UNL     1      41.965 -15.283   3.792  1.00  0.00    -0.292 N 
HETATM    2  C   UNL     1      40.777 -15.263   4.556  1.00  0.00     0.179 C 
HETATM    3  S   UNL     1      40.306 -16.315   5.781  1.00  0.00    -0.040 SA
HETATM    4  N   UNL     1      39.884 -14.267   4.269  1.00  0.00    -0.354 N 
HETATM    5  C   UNL     1      40.231 -13.013   3.640  1.00  0.00     0.158 C 
HETATM    6  C   UNL     1      41.415 -13.204   2.744  1.00  0.00     0.060 C 
HETATM    7  C   UNL     1      42.243 -14.272   2.839  1.00  0.00     0.030 C 
HETATM    8  C   UNL     1      43.469 -14.442   1.960  1.00  0.00     0.070 C 
HETATM    9  H   UNL     1      39.082 -14.248   4.887  1.00  0.00     0.163 HD
ENDROOT
BRANCH   6  10
HETATM   10  C   UNL     1      41.596 -12.095   1.756  1.00  0.00     0.257 C 
HETATM   11  N   UNL     1      40.751 -12.173   0.671  1.00  0.00    -0.306 N 
HETATM   12  H   UNL     1      40.068 -12.913   0.623  1.00  0.00     0.170 HD
HETATM   13  O   UNL     1      42.417 -11.217   1.985  1.00  0.00    -0.267 OA
BRANCH  11  14
HETATM   14  C   UNL     1      40.915 -11.410  -0.474  1.00  0.00     0.160 A 
HETATM   15  N   UNL     1      41.280 -11.870  -1.674  1.00  0.00    -0.110 NA
HETATM   16  O   UNL     1      41.227 -10.797  -2.538  1.00  0.00    -0.216 OA
HETATM   17  C   UNL     1      40.824  -9.694  -1.860  1.00  0.00     0.078 A 
HETATM   18  C   UNL     1      40.654  -8.468  -2.658  1.00  0.00     0.079 C 
HETATM   19  C   UNL     1      40.648 -10.020  -0.538  1.00  0.00     0.087 A 
ENDBRANCH  11  14
ENDBRANCH   6  10
BRANCH   5  20
HETATM   20  C   UNL     1      40.356 -11.934   4.705  1.00  0.00    -0.031 A 
HETATM   21  C   UNL     1      41.534 -11.758   5.450  1.00  0.00     0.012 A 
HETATM   22  C   UNL     1      41.617 -10.768   6.434  1.00  0.00     0.037 A 
HETATM   23  C   UNL     1      40.517  -9.955   6.685  1.00  0.00     0.065 A 
HETATM   24  C   UNL     1      39.338 -10.118   5.972  1.00  0.00     0.037 A 
HETATM   25  C   UNL     1      39.256 -11.104   4.986  1.00  0.00     0.012 A 
BRANCH  23  26
HETATM   26  O   UNL     1      40.556  -8.977   7.633  1.00  0.00    -0.361 OA
HETATM   27  H   UNL     1      41.484  -8.817   7.869  1.00  0.00     0.217 HD
ENDBRANCH  23  26
ENDBRANCH   5  20
BRANCH   1  28
HETATM   28  C   UNL     1      42.820 -16.438   3.907  1.00  0.00     0.048 A 
HETATM   29  C   UNL     1      42.662 -17.470   2.962  1.00  0.00     0.037 A 
HETATM   30  C   UNL     1      43.445 -18.629   3.016  1.00  0.00    -0.060 A 
HETATM   31  C   UNL     1      43.229 -19.731   2.021  1.00  0.00     0.048 C 
HETATM   32  C   UNL     1      44.439 -18.725   3.990  1.00  0.00     0.007 A 
HETATM   33  C   UNL     1      44.607 -17.707   4.931  1.00  0.00     0.009 A 
HETATM   34  C   UNL     1      43.788 -16.565   4.921  1.00  0.00    -0.035 A 
HETATM   35  C   UNL     1      43.987 -15.556   6.018  1.00  0.00     0.050 C 
ENDBRANCH   1  28
TORSDOF 5
ENDMDL
MODEL 3
REMARK VINA RESULT:      -8.8      3.385      8.256
REMARK  5 active torsions:
REMARK  status: ('A' for Active; 'I' for Inactive)
REMARK    1  A    between atoms: C_4  and  N_5 
REMARK    2  A    between atoms: C_9  and  C_10 
REMARK    3  A    between atoms: C_13  and  O_14 
REMARK    4  A    between atoms: C_17  and  C_18 
REMARK       I    between atoms: C_18  and  N_19 
REMARK    5  A    between atoms: N_19  and  C_20 
ROOT
HETATM    1  N   UNL     1      41.246 -13.799   2.385  1.00  0.00    -0.292 N 
HETATM    2  C   UNL     1      42.389 -14.566   2.703  1.00  0.00     0.179 C 
HETATM    3  S   UNL     1      43.489 -15.284   1.651  1.00  0.00    -0.040 SA
HETATM    4  N   UNL     1      42.643 -14.761   4.033  1.00  0.00    -0.354 N 
HETATM    5  C   UNL     1      42.168 -13.900   5.092  1.00  0.00     0.158 C 
HETATM    6  C   UNL     1      40.875 -13.262   4.687  1.00  0.00     0.060 C 
HETATM    7  C   UNL     1      40.458 -13.200   3.400  1.00  0.00     0.030 C 
HETATM    8  C   UNL     1      39.169 -12.515   2.986  1.00  0.00     0.070 C 
HETATM    9  H   UNL     1      43.509 -15.254   4.214  1.00  0.00     0.163 HD
ENDROOT
BRANCH   6  10
HETATM   10  C   UNL     1      40.110 -12.691   5.839  1.00  0.00     0.257 C 
HETATM   11  N   UNL     1      40.200 -11.320   5.941  1.00  0.00    -0.306 N 
HETATM   12  H   UNL     1      40.719 -10.801   5.249  1.00  0.00     0.170 HD
HETATM   13  O   UNL     1      39.458 -13.438   6.556  1.00  0.00    -0.267 OA
BRANCH  11  14
HETATM   14  C   UNL     1      39.790 -10.614   7.060  1.00  0.00     0.160 A 
HETATM   15  N   UNL     1      38.659 -10.819   7.742  1.00  0.00    -0.110 NA
HETATM   16  O   UNL     1      38.695  -9.968   8.825  1.00  0.00    -0.216 OA
HETATM   17  C   UNL     1      39.849  -9.255   8.799  1.00  0.00     0.078 A 
HETATM   18  C   UNL     1      40.072  -8.338   9.930  1.00  0.00     0.079 C 
HETATM   19  C   UNL     1      40.562  -9.600   7.678  1.00  0.00     0.087 A 
ENDBRANCH  11  14
ENDBRANCH   6  10
BRANCH   5  20
HETATM   20  C   UNL     1      43.285 -12.956   5.511  1.00  0.00    -0.031 A 
HETATM   21  C   UNL     1      43.935 -12.117   4.590  1.00  0.00     0.012 A 
HETATM   22  C   UNL     1      44.969 -11.270   5.000  1.00  0.00     0.037 A 
HETATM   23  C   UNL     1      45.366 -11.266   6.332  1.00  0.00     0.065 A 
HETATM   24  C   UNL     1      44.749 -12.094   7.259  1.00  0.00     0.037 A 
HETATM   25  C   UNL     1      43.712 -12.937   6.851  1.00  0.00     0.012 A 
BRANCH  23  26
HETATM   26  O   UNL     1      46.367 -10.454   6.774  1.00  0.00    -0.361 OA
HETATM   27  H   UNL     1      46.347 -10.444   7.744  1.00  0.00     0.217 HD
ENDBRANCH  23  26
ENDBRANCH   5  20
BRANCH   1  28
HETATM   28  C   UNL     1      40.821 -13.762   1.009  1.00  0.00     0.048 A 
HETATM   29  C   UNL     1      41.117 -12.607   0.259  1.00  0.00     0.037 A 
HETATM   30  C   UNL     1      40.726 -12.489  -1.079  1.00  0.00    -0.060 A 
HETATM   31  C   UNL     1      41.020 -11.233  -1.844  1.00  0.00     0.048 C 
HETATM   32  C   UNL     1      40.084 -13.568  -1.689  1.00  0.00     0.007 A 
HETATM   33  C   UNL     1      39.786 -14.719  -0.957  1.00  0.00     0.009 A 
HETATM   34  C   UNL     1      40.124 -14.824   0.403  1.00  0.00    -0.035 A 
HETATM   35  C   UNL     1      39.696 -16.067   1.133  1.00  0.00     0.050 C 
ENDBRANCH   1  28
TORSDOF 5
ENDMDL
MODEL 4
REMARK VINA RESULT:      -8.6      3.132      6.049
REMARK  5 active torsions:
REMARK  status: ('A' for Active; 'I' for Inactive)
REMARK    1  A    between atoms: C_4  and  N_5 
REMARK    2  A    between atoms: C_9  and  C_10 
REMARK    3  A    between atoms: C_13  and  O_14 
REMARK    4  A    between atoms: C_17  and  C_18 
REMARK       I    between atoms: C_18  and  N_19 
REMARK    5  A    between atoms: N_19  and  C_20 
ROOT
HETATM    1  N   UNL     1      41.354 -12.055   4.084  1.00  0.00    -0.292 N 
HETATM    2  C   UNL     1      42.746 -12.222   4.261  1.00  0.00     0.179 C 
HETATM    3  S   UNL     1      43.695 -11.754   5.569  1.00  0.00    -0.040 SA
HETATM    4  N   UNL     1      43.421 -12.837   3.242  1.00  0.00    -0.354 N 
HETATM    5  C   UNL     1      42.814 -13.724   2.277  1.00  0.00     0.158 C 
HETATM    6  C   UNL     1      41.380 -13.348   2.071  1.00  0.00     0.060 C 
HETATM    7  C   UNL     1      40.691 -12.575   2.944  1.00  0.00     0.030 C 
HETATM    8  C   UNL     1      39.225 -12.230   2.758  1.00  0.00     0.070 C 
HETATM    9  H   UNL     1      44.401 -12.999   3.442  1.00  0.00     0.163 HD
ENDROOT
BRANCH   6  10
HETATM   10  C   UNL     1      40.788 -13.924   0.823  1.00  0.00     0.257 C 
HETATM   11  N   UNL     1      41.011 -13.160  -0.302  1.00  0.00    -0.306 N 
HETATM   12  H   UNL     1      41.562 -12.319  -0.232  1.00  0.00     0.170 HD
HETATM   13  O   UNL     1      40.207 -14.999   0.876  1.00  0.00    -0.267 OA
BRANCH  11  14
HETATM   14  C   UNL     1      40.349 -13.366  -1.501  1.00  0.00     0.160 A 
HETATM   15  N   UNL     1      40.745 -12.925  -2.698  1.00  0.00    -0.110 NA
HETATM   16  O   UNL     1      39.852 -13.430  -3.618  1.00  0.00    -0.216 OA
HETATM   17  C   UNL     1      38.922 -14.181  -2.976  1.00  0.00     0.078 A 
HETATM   18  C   UNL     1      37.925 -14.849  -3.830  1.00  0.00     0.079 C 
HETATM   19  C   UNL     1      39.170 -14.142  -1.626  1.00  0.00     0.087 A 
ENDBRANCH  11  14
ENDBRANCH   6  10
BRANCH   5  20
HETATM   20  C   UNL     1      43.083 -15.166   2.681  1.00  0.00    -0.031 A 
HETATM   21  C   UNL     1      43.323 -16.173   1.730  1.00  0.00     0.012 A 
HETATM   22  C   UNL     1      43.551 -17.493   2.129  1.00  0.00     0.037 A 
HETATM   23  C   UNL     1      43.530 -17.816   3.481  1.00  0.00     0.065 A 
HETATM   24  C   UNL     1      43.281 -16.843   4.439  1.00  0.00     0.037 A 
HETATM   25  C   UNL     1      43.058 -15.522   4.042  1.00  0.00     0.012 A 
BRANCH  23  26
HETATM   26  O   UNL     1      43.750 -19.090   3.913  1.00  0.00    -0.361 OA
HETATM   27  H   UNL     1      44.600 -19.111   4.382  1.00  0.00     0.217 HD
ENDBRANCH  23  26
ENDBRANCH   5  20
BRANCH   1  28
HETATM   28  C   UNL     1      40.652 -11.218   5.023  1.00  0.00     0.048 A 
HETATM   29  C   UNL     1      40.733  -9.822   4.851  1.00  0.00     0.037 A 
HETATM   30  C   UNL     1      40.090  -8.943   5.729  1.00  0.00    -0.060 A 
HETATM   31  C   UNL     1      40.225  -7.461   5.546  1.00  0.00     0.048 C 
HETATM   32  C   UNL     1      39.306  -9.472   6.755  1.00  0.00     0.007 A 
HETATM   33  C   UNL     1      39.215 -10.853   6.935  1.00  0.00     0.009 A 
HETATM   34  C   UNL     1      39.904 -11.744   6.094  1.00  0.00    -0.035 A 
HETATM   35  C   UNL     1      39.813 -13.211   6.408  1.00  0.00     0.050 C 
ENDBRANCH   1  28
TORSDOF 5
ENDMDL
MODEL 5
REMARK VINA RESULT:      -8.3      2.736      6.745
REMARK  5 active torsions:
REMARK  status: ('A' for Active; 'I' for Inactive)
REMARK    1  A    between atoms: C_4  and  N_5 
REMARK    2  A    between atoms: C_9  and  C_10 
REMARK    3  A    between atoms: C_13  and  O_14 
REMARK    4  A    between atoms: C_17  and  C_18 
REMARK       I    between atoms: C_18  and  N_19 
REMARK    5  A    between atoms: N_19  and  C_20 
ROOT
HETATM    1  N   UNL     1      40.699 -12.758   1.571  1.00  0.00    -0.292 N 
HETATM    2  C   UNL     1      41.668 -11.730   1.615  1.00  0.00     0.179 C 
HETATM    3  S   UNL     1      41.699 -10.289   0.747  1.00  0.00    -0.040 SA
HETATM    4  N   UNL     1      42.723 -11.922   2.464  1.00  0.00    -0.354 N 
HETATM    5  C   UNL     1      42.697 -12.789   3.620  1.00  0.00     0.158 C 
HETATM    6  C   UNL     1      41.742 -13.919   3.386  1.00  0.00     0.060 C 
HETATM    7  C   UNL     1      40.785 -13.885   2.427  1.00  0.00     0.030 C 
HETATM    8  C   UNL     1      39.789 -15.011   2.220  1.00  0.00     0.070 C 
HETATM    9  H   UNL     1      43.353 -11.130   2.517  1.00  0.00     0.163 HD
ENDROOT
BRANCH   6  10
HETATM   10  C   UNL     1      41.941 -15.068   4.324  1.00  0.00     0.257 C 
HETATM   11  N   UNL     1      43.159 -15.695   4.183  1.00  0.00    -0.306 N 
HETATM   12  H   UNL     1      43.829 -15.341   3.517  1.00  0.00     0.170 HD
HETATM   13  O   UNL     1      41.067 -15.337   5.136  1.00  0.00    -0.267 OA
BRANCH  11  14
HETATM   14  C   UNL     1      43.452 -16.920   4.760  1.00  0.00     0.160 A 
HETATM   15  N   UNL     1      43.308 -17.230   6.051  1.00  0.00    -0.110 NA
HETATM   16  O   UNL     1      43.623 -18.567   6.171  1.00  0.00    -0.216 OA
HETATM   17  C   UNL     1      43.949 -19.063   4.952  1.00  0.00     0.078 A 
HETATM   18  C   UNL     1      44.252 -20.503   4.896  1.00  0.00     0.079 C 
HETATM   19  C   UNL     1      43.893 -18.050   4.027  1.00  0.00     0.087 A 
ENDBRANCH  11  14
ENDBRANCH   6  10
BRANCH   5  20
HETATM   20  C   UNL     1      42.463 -11.955   4.870  1.00  0.00    -0.031 A 
HETATM   21  C   UNL     1      43.515 -11.581   5.723  1.00  0.00     0.012 A 
HETATM   22  C   UNL     1      43.270 -10.827   6.874  1.00  0.00     0.037 A 
HETATM   23  C   UNL     1      41.967 -10.453   7.185  1.00  0.00     0.065 A 
HETATM   24  C   UNL     1      40.909 -10.822   6.367  1.00  0.00     0.037 A 
HETATM   25  C   UNL     1      41.154 -11.571   5.214  1.00  0.00     0.012 A 
BRANCH  23  26
HETATM   26  O   UNL     1      41.684  -9.716   8.296  1.00  0.00    -0.361 OA
HETATM   27  H   UNL     1      42.486  -9.235   8.556  1.00  0.00     0.217 HD
ENDBRANCH  23  26
ENDBRANCH   5  20
BRANCH   1  28
HETATM   28  C   UNL     1      39.701 -12.700   0.533  1.00  0.00     0.048 A 
HETATM   29  C   UNL     1      39.942 -13.421  -0.653  1.00  0.00     0.037 A 
HETATM   30  C   UNL     1      39.027 -13.403  -1.712  1.00  0.00    -0.060 A 
HETATM   31  C   UNL     1      39.326 -14.147  -2.979  1.00  0.00     0.048 C 
HETATM   32  C   UNL     1      37.830 -12.705  -1.554  1.00  0.00     0.007 A 
HETATM   33  C   UNL     1      37.578 -11.989  -0.382  1.00  0.00     0.009 A 
HETATM   34  C   UNL     1      38.516 -11.953   0.665  1.00  0.00    -0.035 A 
HETATM   35  C   UNL     1      38.197 -11.094   1.857  1.00  0.00     0.050 C 
ENDBRANCH   1  28
TORSDOF 5
ENDMDL
MODEL 6
REMARK VINA RESULT:      -8.0      3.246      5.821
REMARK  5 active torsions:
REMARK  status: ('A' for Active; 'I' for Inactive)
REMARK    1  A    between atoms: C_4  and  N_5 
REMARK    2  A    between atoms: C_9  and  C_10 
REMARK    3  A    between atoms: C_13  and  O_14 
REMARK    4  A    between atoms: C_17  and  C_18 
REMARK       I    between atoms: C_18  and  N_19 
REMARK    5  A    between atoms: N_19  and  C_20 
ROOT
HETATM    1  N   UNL     1      41.697 -10.734   4.588  1.00  0.00    -0.292 N 
HETATM    2  C   UNL     1      42.979 -11.313   4.722  1.00  0.00     0.179 C 
HETATM    3  S   UNL     1      43.935 -11.423   6.101  1.00  0.00    -0.040 SA
HETATM    4  N   UNL     1      43.526 -11.852   3.590  1.00  0.00    -0.354 N 
HETATM    5  C   UNL     1      42.765 -12.304   2.448  1.00  0.00     0.158 C 
HETATM    6  C   UNL     1      41.500 -11.511   2.333  1.00  0.00     0.060 C 
HETATM    7  C   UNL     1      40.991 -10.788   3.359  1.00  0.00     0.030 C 
HETATM    8  C   UNL     1      39.686 -10.021   3.257  1.00  0.00     0.070 C 
HETATM    9  H   UNL     1      44.412 -12.318   3.747  1.00  0.00     0.163 HD
ENDROOT
BRANCH   6  10
HETATM   10  C   UNL     1      40.855 -11.615   0.987  1.00  0.00     0.257 C 
HETATM   11  N   UNL     1      39.742 -12.427   0.965  1.00  0.00    -0.306 N 
HETATM   12  H   UNL     1      39.420 -12.855   1.820  1.00  0.00     0.170 HD
HETATM   13  O   UNL     1      41.313 -10.974   0.052  1.00  0.00    -0.267 OA
BRANCH  11  14
HETATM   14  C   UNL     1      39.146 -12.865  -0.206  1.00  0.00     0.160 A 
HETATM   15  N   UNL     1      38.223 -12.202  -0.908  1.00  0.00    -0.110 NA
HETATM   16  O   UNL     1      37.979 -12.951  -2.040  1.00  0.00    -0.216 OA
HETATM   17  C   UNL     1      38.759 -14.060  -2.022  1.00  0.00     0.078 A 
HETATM   18  C   UNL     1      38.663 -14.940  -3.199  1.00  0.00     0.079 C 
HETATM   19  C   UNL     1      39.491 -14.073  -0.861  1.00  0.00     0.087 A 
ENDBRANCH  11  14
ENDBRANCH   6  10
BRANCH   5  20
HETATM   20  C   UNL     1      42.610 -13.817   2.513  1.00  0.00    -0.031 A 
HETATM   21  C   UNL     1      41.671 -14.433   3.358  1.00  0.00     0.012 A 
HETATM   22  C   UNL     1      41.561 -15.825   3.410  1.00  0.00     0.037 A 
HETATM   23  C   UNL     1      42.398 -16.610   2.624  1.00  0.00     0.065 A 
HETATM   24  C   UNL     1      43.343 -16.026   1.792  1.00  0.00     0.037 A 
HETATM   25  C   UNL     1      43.450 -14.635   1.736  1.00  0.00     0.012 A 
BRANCH  23  26
HETATM   26  O   UNL     1      42.321 -17.971   2.642  1.00  0.00    -0.361 OA
HETATM   27  H   UNL     1      43.200 -18.323   2.857  1.00  0.00     0.217 HD
ENDBRANCH  23  26
ENDBRANCH   5  20
BRANCH   1  28
HETATM   28  C   UNL     1      41.188  -9.962   5.693  1.00  0.00     0.048 A 
HETATM   29  C   UNL     1      41.676  -8.652   5.861  1.00  0.00     0.037 A 
HETATM   30  C   UNL     1      41.241  -7.844   6.918  1.00  0.00    -0.060 A 
HETATM   31  C   UNL     1      41.806  -6.467   7.097  1.00  0.00     0.048 C 
HETATM   32  C   UNL     1      40.259  -8.336   7.779  1.00  0.00     0.007 A 
HETATM   33  C   UNL     1      39.765  -9.632   7.621  1.00  0.00     0.009 A 
HETATM   34  C   UNL     1      40.238 -10.471   6.598  1.00  0.00    -0.035 A 
HETATM   35  C   UNL     1      39.708 -11.877   6.549  1.00  0.00     0.050 C 
ENDBRANCH   1  28
TORSDOF 5
ENDMDL
MODEL 7
REMARK VINA RESULT:      -8.0      3.419      7.070
REMARK  5 active torsions:
REMARK  status: ('A' for Active; 'I' for Inactive)
REMARK    1  A    between atoms: C_4  and  N_5 
REMARK    2  A    between atoms: C_9  and  C_10 
REMARK    3  A    between atoms: C_13  and  O_14 
REMARK    4  A    between atoms: C_17  and  C_18 
REMARK       I    between atoms: C_18  and  N_19 
REMARK    5  A    between atoms: N_19  and  C_20 
ROOT
HETATM    1  N   UNL     1      40.421 -11.290   0.531  1.00  0.00    -0.292 N 
HETATM    2  C   UNL     1      41.203 -10.209   0.996  1.00  0.00     0.179 C 
HETATM    3  S   UNL     1      41.134  -8.595   0.527  1.00  0.00    -0.040 SA
HETATM    4  N   UNL     1      42.144 -10.500   1.945  1.00  0.00    -0.354 N 
HETATM    5  C   UNL     1      42.089 -11.642   2.829  1.00  0.00     0.158 C 
HETATM    6  C   UNL     1      41.363 -12.768   2.161  1.00  0.00     0.060 C 
HETATM    7  C   UNL     1      40.558 -12.588   1.086  1.00  0.00     0.030 C 
HETATM    8  C   UNL     1      39.788 -13.722   0.436  1.00  0.00     0.070 C 
HETATM    9  H   UNL     1      42.630  -9.685   2.300  1.00  0.00     0.163 HD
ENDROOT
BRANCH   6  10
HETATM   10  C   UNL     1      41.602 -14.095   2.808  1.00  0.00     0.257 C 
HETATM   11  N   UNL     1      42.840 -14.634   2.531  1.00  0.00    -0.306 N 
HETATM   12  H   UNL     1      43.495 -14.114   1.968  1.00  0.00     0.170 HD
HETATM   13  O   UNL     1      40.740 -14.573   3.533  1.00  0.00    -0.267 OA
BRANCH  11  14
HETATM   14  C   UNL     1      43.174 -15.949   2.810  1.00  0.00     0.160 A 
HETATM   15  N   UNL     1      43.588 -16.416   3.992  1.00  0.00    -0.110 NA
HETATM   16  O   UNL     1      43.717 -17.781   3.850  1.00  0.00    -0.216 OA
HETATM   17  C   UNL     1      43.373 -18.137   2.587  1.00  0.00     0.078 A 
HETATM   18  C   UNL     1      43.397 -19.579   2.289  1.00  0.00     0.079 C 
HETATM   19  C   UNL     1      43.057 -17.006   1.875  1.00  0.00     0.087 A 
ENDBRANCH  11  14
ENDBRANCH   6  10
BRANCH   5  20
HETATM   20  C   UNL     1      41.554 -11.204   4.184  1.00  0.00    -0.031 A 
HETATM   21  C   UNL     1      42.407 -10.887   5.255  1.00  0.00     0.012 A 
HETATM   22  C   UNL     1      41.888 -10.503   6.494  1.00  0.00     0.037 A 
HETATM   23  C   UNL     1      40.511 -10.442   6.673  1.00  0.00     0.065 A 
HETATM   24  C   UNL     1      39.646 -10.763   5.636  1.00  0.00     0.037 A 
HETATM   25  C   UNL     1      40.164 -11.143   4.396  1.00  0.00     0.012 A 
BRANCH  23  26
HETATM   26  O   UNL     1      39.963 -10.069   7.864  1.00  0.00    -0.361 OA
HETATM   27  H   UNL     1      39.555 -10.850   8.271  1.00  0.00     0.217 HD
ENDBRANCH  23  26
ENDBRANCH   5  20
BRANCH   1  28
HETATM   28  C   UNL     1      39.584 -11.070  -0.621  1.00  0.00     0.048 A 
HETATM   29  C   UNL     1      38.266 -10.624  -0.401  1.00  0.00     0.037 A 
HETATM   30  C   UNL     1      37.388 -10.401  -1.468  1.00  0.00    -0.060 A 
HETATM   31  C   UNL     1      35.977  -9.963  -1.204  1.00  0.00     0.048 C 
HETATM   32  C   UNL     1      37.856 -10.568  -2.771  1.00  0.00     0.007 A 
HETATM   33  C   UNL     1      39.161 -11.008  -3.002  1.00  0.00     0.009 A 
HETATM   34  C   UNL     1      40.033 -11.290  -1.937  1.00  0.00    -0.035 A 
HETATM   35  C   UNL     1      41.394 -11.833  -2.275  1.00  0.00     0.050 C 
ENDBRANCH   1  28
TORSDOF 5
ENDMDL
MODEL 8
REMARK VINA RESULT:      -7.9      2.939      5.605
REMARK  5 active torsions:
REMARK  status: ('A' for Active; 'I' for Inactive)
REMARK    1  A    between atoms: C_4  and  N_5 
REMARK    2  A    between atoms: C_9  and  C_10 
REMARK    3  A    between atoms: C_13  and  O_14 
REMARK    4  A    between atoms: C_17  and  C_18 
REMARK       I    between atoms: C_18  and  N_19 
REMARK    5  A    between atoms: N_19  and  C_20 
ROOT
HETATM    1  N   UNL     1      41.335 -11.083   5.334  1.00  0.00    -0.292 N 
HETATM    2  C   UNL     1      42.712 -11.372   5.463  1.00  0.00     0.179 C 
HETATM    3  S   UNL     1      43.796 -10.793   6.611  1.00  0.00    -0.040 SA
HETATM    4  N   UNL     1      43.245 -12.228   4.538  1.00  0.00    -0.354 N 
HETATM    5  C   UNL     1      42.482 -13.196   3.784  1.00  0.00     0.158 C 
HETATM    6  C   UNL     1      41.082 -12.702   3.591  1.00  0.00     0.060 C 
HETATM    7  C   UNL     1      40.540 -11.716   4.344  1.00  0.00     0.030 C 
HETATM    8  C   UNL     1      39.107 -11.246   4.178  1.00  0.00     0.070 C 
HETATM    9  H   UNL     1      44.215 -12.462   4.711  1.00  0.00     0.163 HD
ENDROOT
BRANCH   6  10
HETATM   10  C   UNL     1      40.345 -13.417   2.502  1.00  0.00     0.257 C 
HETATM   11  N   UNL     1      40.528 -12.866   1.253  1.00  0.00    -0.306 N 
HETATM   12  H   UNL     1      41.145 -12.077   1.141  1.00  0.00     0.170 HD
HETATM   13  O   UNL     1      39.692 -14.415   2.775  1.00  0.00    -0.267 OA
BRANCH  11  14
HETATM   14  C   UNL     1      39.753 -13.203   0.155  1.00  0.00     0.160 A 
HETATM   15  N   UNL     1      38.783 -12.453  -0.376  1.00  0.00    -0.110 NA
HETATM   16  O   UNL     1      38.343 -13.119  -1.500  1.00  0.00    -0.216 OA
HETATM   17  C   UNL     1      39.052 -14.266  -1.650  1.00  0.00     0.078 A 
HETATM   18  C   UNL     1      38.745 -15.068  -2.846  1.00  0.00     0.079 C 
HETATM   19  C   UNL     1      39.935 -14.385  -0.605  1.00  0.00     0.087 A 
ENDBRANCH  11  14
ENDBRANCH   6  10
BRANCH   5  20
HETATM   20  C   UNL     1      42.632 -14.566   4.428  1.00  0.00    -0.031 A 
HETATM   21  C   UNL     1      42.247 -14.810   5.757  1.00  0.00     0.012 A 
HETATM   22  C   UNL     1      42.411 -16.075   6.329  1.00  0.00     0.037 A 
HETATM   23  C   UNL     1      42.970 -17.101   5.577  1.00  0.00     0.065 A 
HETATM   24  C   UNL     1      43.371 -16.883   4.266  1.00  0.00     0.037 A 
HETATM   25  C   UNL     1      43.204 -15.621   3.692  1.00  0.00     0.012 A 
BRANCH  23  26
HETATM   26  O   UNL     1      43.145 -18.350   6.094  1.00  0.00    -0.361 OA
HETATM   27  H   UNL     1      43.711 -18.279   6.879  1.00  0.00     0.217 HD
ENDBRANCH  23  26
ENDBRANCH   5  20
BRANCH   1  28
HETATM   28  C   UNL     1      40.791 -10.021   6.142  1.00  0.00     0.048 A 
HETATM   29  C   UNL     1      40.217 -10.364   7.381  1.00  0.00     0.037 A 
HETATM   30  C   UNL     1      39.656  -9.391   8.216  1.00  0.00    -0.060 A 
HETATM   31  C   UNL     1      39.016  -9.788   9.513  1.00  0.00     0.048 C 
HETATM   32  C   UNL     1      39.727  -8.052   7.831  1.00  0.00     0.007 A 
HETATM   33  C   UNL     1      40.295  -7.699   6.605  1.00  0.00     0.009 A 
HETATM   34  C   UNL     1      40.810  -8.674   5.734  1.00  0.00    -0.035 A 
HETATM   35  C   UNL     1      41.332  -8.212   4.402  1.00  0.00     0.050 C 
ENDBRANCH   1  28
TORSDOF 5
ENDMDL
MODEL 9
REMARK VINA RESULT:      -7.9      3.045      4.197
REMARK  5 active torsions:
REMARK  status: ('A' for Active; 'I' for Inactive)
REMARK    1  A    between atoms: C_4  and  N_5 
REMARK    2  A    between atoms: C_9  and  C_10 
REMARK    3  A    between atoms: C_13  and  O_14 
REMARK    4  A    between atoms: C_17  and  C_18 
REMARK       I    between atoms: C_18  and  N_19 
REMARK    5  A    between atoms: N_19  and  C_20 
ROOT
HETATM    1  N   UNL     1      40.321 -11.292   3.490  1.00  0.00    -0.292 N 
HETATM    2  C   UNL     1      39.123 -11.391   2.747  1.00  0.00     0.179 C 
HETATM    3  S   UNL     1      37.874 -10.270   2.628  1.00  0.00    -0.040 SA
HETATM    4  N   UNL     1      38.941 -12.544   2.034  1.00  0.00    -0.354 N 
HETATM    5  C   UNL     1      40.009 -13.411   1.593  1.00  0.00     0.158 C 
HETATM    6  C   UNL     1      41.161 -13.324   2.546  1.00  0.00     0.060 C 
HETATM    7  C   UNL     1      41.311 -12.305   3.425  1.00  0.00     0.030 C 
HETATM    8  C   UNL     1      42.501 -12.194   4.360  1.00  0.00     0.070 C 
HETATM    9  H   UNL     1      38.105 -12.541   1.462  1.00  0.00     0.163 HD
ENDROOT
BRANCH   6  10
HETATM   10  C   UNL     1      42.127 -14.459   2.414  1.00  0.00     0.257 C 
HETATM   11  N   UNL     1      41.650 -15.655   2.903  1.00  0.00    -0.306 N 
HETATM   12  H   UNL     1      40.713 -15.706   3.269  1.00  0.00     0.170 HD
HETATM   13  O   UNL     1      43.208 -14.265   1.874  1.00  0.00    -0.267 OA
BRANCH  11  14
HETATM   14  C   UNL     1      42.455 -16.763   3.114  1.00  0.00     0.160 A 
HETATM   15  N   UNL     1      43.155 -17.020   4.223  1.00  0.00    -0.110 NA
HETATM   16  O   UNL     1      43.732 -18.259   4.043  1.00  0.00    -0.216 OA
HETATM   17  C   UNL     1      43.374 -18.750   2.831  1.00  0.00     0.078 A 
HETATM   18  C   UNL     1      43.860 -20.103   2.509  1.00  0.00     0.079 C 
HETATM   19  C   UNL     1      42.595 -17.823   2.185  1.00  0.00     0.087 A 
ENDBRANCH  11  14
ENDBRANCH   6  10
BRANCH   5  20
HETATM   20  C   UNL     1      40.319 -13.125   0.131  1.00  0.00    -0.031 A 
HETATM   21  C   UNL     1      40.028 -14.049  -0.886  1.00  0.00     0.012 A 
HETATM   22  C   UNL     1      40.338 -13.766  -2.220  1.00  0.00     0.037 A 
HETATM   23  C   UNL     1      40.951 -12.561  -2.541  1.00  0.00     0.065 A 
HETATM   24  C   UNL     1      41.262 -11.637  -1.553  1.00  0.00     0.037 A 
HETATM   25  C   UNL     1      40.948 -11.917  -0.221  1.00  0.00     0.012 A 
BRANCH  23  26
HETATM   26  O   UNL     1      41.267 -12.244  -3.829  1.00  0.00    -0.361 OA
HETATM   27  H   UNL     1      41.199 -13.049  -4.367  1.00  0.00     0.217 HD
ENDBRANCH  23  26
ENDBRANCH   5  20
BRANCH   1  28
HETATM   28  C   UNL     1      40.446 -10.203   4.425  1.00  0.00     0.048 A 
HETATM   29  C   UNL     1      40.990  -8.991   3.956  1.00  0.00     0.037 A 
HETATM   30  C   UNL     1      41.157  -7.892   4.806  1.00  0.00    -0.060 A 
HETATM   31  C   UNL     1      41.775  -6.627   4.291  1.00  0.00     0.048 C 
HETATM   32  C   UNL     1      40.715  -7.991   6.126  1.00  0.00     0.007 A 
HETATM   33  C   UNL     1      40.172  -9.186   6.603  1.00  0.00     0.009 A 
HETATM   34  C   UNL     1      40.053 -10.313   5.772  1.00  0.00    -0.035 A 
HETATM   35  C   UNL     1      39.530 -11.581   6.389  1.00  0.00     0.050 C 
ENDBRANCH   1  28
TORSDOF 5
ENDMDL
MODEL 10
REMARK VINA RESULT:      -7.8      6.161      9.349
REMARK  5 active torsions:
REMARK  status: ('A' for Active; 'I' for Inactive)
REMARK    1  A    between atoms: C_4  and  N_5 
REMARK    2  A    between atoms: C_9  and  C_10 
REMARK    3  A    between atoms: C_13  and  O_14 
REMARK    4  A    between atoms: C_17  and  C_18 
REMARK       I    between atoms: C_18  and  N_19 
REMARK    5  A    between atoms: N_19  and  C_20 
ROOT
HETATM    1  N   UNL     1      40.524  -7.327  13.368  1.00  0.00    -0.292 N 
HETATM    2  C   UNL     1      39.223  -7.637  12.912  1.00  0.00     0.179 C 
HETATM    3  S   UNL     1      37.775  -6.869  13.289  1.00  0.00    -0.040 SA
HETATM    4  N   UNL     1      39.114  -8.699  12.057  1.00  0.00    -0.354 N 
HETATM    5  C   UNL     1      40.189  -9.200  11.231  1.00  0.00     0.158 C 
HETATM    6  C   UNL     1      41.505  -8.939  11.897  1.00  0.00     0.060 C 
HETATM    7  C   UNL     1      41.657  -8.034  12.893  1.00  0.00     0.030 C 
HETATM    8  C   UNL     1      42.999  -7.738  13.537  1.00  0.00     0.070 C 
HETATM    9  H   UNL     1      38.176  -8.840  11.700  1.00  0.00     0.163 HD
ENDROOT
BRANCH   6  10
HETATM   10  C   UNL     1      42.624  -9.761  11.340  1.00  0.00     0.257 C 
HETATM   11  N   UNL     1      43.201  -9.222  10.211  1.00  0.00    -0.306 N 
HETATM   12  H   UNL     1      42.878  -8.333   9.862  1.00  0.00     0.170 HD
HETATM   13  O   UNL     1      42.960 -10.786  11.917  1.00  0.00    -0.267 OA
BRANCH  11  14
HETATM   14  C   UNL     1      44.070  -9.926   9.393  1.00  0.00     0.160 A 
HETATM   15  N   UNL     1      45.292 -10.347   9.730  1.00  0.00    -0.110 NA
HETATM   16  O   UNL     1      45.763 -11.079   8.661  1.00  0.00    -0.216 OA
HETATM   17  C   UNL     1      44.823 -11.105   7.684  1.00  0.00     0.078 A 
HETATM   18  C   UNL     1      45.148 -11.904   6.491  1.00  0.00     0.079 C 
HETATM   19  C   UNL     1      43.743 -10.356   8.083  1.00  0.00     0.087 A 
ENDBRANCH  11  14
ENDBRANCH   6  10
BRANCH   5  20
HETATM   20  C   UNL     1      40.030  -8.662   9.817  1.00  0.00    -0.031 A 
HETATM   21  C   UNL     1      40.194  -7.300   9.515  1.00  0.00     0.012 A 
HETATM   22  C   UNL     1      40.027  -6.830   8.209  1.00  0.00     0.037 A 
HETATM   23  C   UNL     1      39.683  -7.721   7.199  1.00  0.00     0.065 A 
HETATM   24  C   UNL     1      39.501  -9.069   7.473  1.00  0.00     0.037 A 
HETATM   25  C   UNL     1      39.673  -9.540   8.777  1.00  0.00     0.012 A 
BRANCH  23  26
HETATM   26  O   UNL     1      39.512  -7.306   5.912  1.00  0.00    -0.361 OA
HETATM   27  H   UNL     1      39.345  -6.350   5.918  1.00  0.00     0.217 HD
ENDBRANCH  23  26
ENDBRANCH   5  20
BRANCH   1  28
HETATM   28  C   UNL     1      40.653  -6.368  14.436  1.00  0.00     0.048 A 
HETATM   29  C   UNL     1      40.476  -6.826  15.756  1.00  0.00     0.037 A 
HETATM   30  C   UNL     1      40.571  -5.953  16.846  1.00  0.00    -0.060 A 
HETATM   31  C   UNL     1      40.339  -6.459  18.239  1.00  0.00     0.048 C 
HETATM   32  C   UNL     1      40.909  -4.620  16.613  1.00  0.00     0.007 A 
HETATM   33  C   UNL     1      41.089  -4.155  15.309  1.00  0.00     0.009 A 
HETATM   34  C   UNL     1      40.939  -5.010  14.204  1.00  0.00    -0.035 A 
HETATM   35  C   UNL     1      41.075  -4.407  12.833  1.00  0.00     0.050 C 
ENDBRANCH   1  28
TORSDOF 5
ENDMDL
