MODEL 1
REMARK VINA RESULT:      -8.1      0.000      0.000
REMARK  6 active torsions:
REMARK  status: ('A' for Active; 'I' for Inactive)
REMARK    1  A    between atoms: C_7  and  S_8 
REMARK    2  A    between atoms: S_8  and  C_9 
REMARK    3  A    between atoms: C_9  and  C_10 
REMARK    4  A    between atoms: C_18  and  C_19 
REMARK    5  A    between atoms: C_26  and  C_27 
REMARK    6  A    between atoms: C_27  and  O_28 
ROOT
HETATM    1  C   UNL     1      38.753 -11.007   6.646  1.00  0.00     0.070 C 
HETATM    2  C   UNL     1      39.760 -11.923   5.996  1.00  0.00     0.037 A 
HETATM    3  N   UNL     1      40.143 -13.025   6.752  1.00  0.00    -0.192 N 
HETATM    4  C   UNL     1      41.052 -13.928   6.341  1.00  0.00     0.726 A 
HETATM    5  N   UNL     1      41.653 -13.770   5.125  1.00  0.00    -0.082 N 
HETATM    6  N   UNL     1      42.568 -14.739   4.900  1.00  0.00    -0.128 NA
HETATM    7  C   UNL     1      42.408 -15.492   5.998  1.00  0.00     0.226 A 
HETATM    8  N   UNL     1      41.499 -15.014   6.910  1.00  0.00    -0.035 NA
HETATM    9  C   UNL     1      41.348 -12.676   4.192  1.00  0.00     0.203 A 
HETATM   10  C   UNL     1      40.310 -11.724   4.773  1.00  0.00     0.070 A 
HETATM   11  H   UNL     1      39.703 -13.154   7.660  1.00  0.00     0.184 HD
ENDROOT
BRANCH   7  12
HETATM   12  S   UNL     1      43.230 -17.005   6.255  1.00  0.00    -0.083 SA
BRANCH  12  13
HETATM   13  C   UNL     1      44.283 -17.109   4.784  1.00  0.00     0.123 C 
BRANCH  13  14
HETATM   14  C   UNL     1      43.936 -18.321   3.947  1.00  0.00    -0.027 A 
HETATM   15  C   UNL     1      43.382 -18.230   2.660  1.00  0.00     0.041 A 
HETATM   16 CL   UNL     1      43.004 -16.709   1.930  1.00  0.00    -0.084 Cl
HETATM   17  C   UNL     1      43.114 -19.386   1.918  1.00  0.00     0.024 A 
HETATM   18  C   UNL     1      43.394 -20.644   2.449  1.00  0.00     0.002 A 
HETATM   19  C   UNL     1      43.945 -20.752   3.722  1.00  0.00     0.001 A 
HETATM   20  C   UNL     1      44.218 -19.600   4.464  1.00  0.00     0.009 A 
ENDBRANCH  13  14
ENDBRANCH  12  13
ENDBRANCH   7  12
BRANCH   9  21
HETATM   21  C   UNL     1      40.934 -13.243   2.834  1.00  0.00    -0.028 A 
HETATM   22  C   UNL     1      41.489 -12.759   1.635  1.00  0.00     0.011 A 
HETATM   23  C   UNL     1      41.106 -13.301   0.405  1.00  0.00     0.024 A 
HETATM   24  C   UNL     1      40.171 -14.333   0.363  1.00  0.00     0.034 A 
HETATM   25 CL   UNL     1      39.701 -15.000  -1.152  1.00  0.00    -0.084 Cl
HETATM   26  C   UNL     1      39.615 -14.829   1.539  1.00  0.00     0.024 A 
HETATM   27  C   UNL     1      39.994 -14.287   2.769  1.00  0.00     0.011 A 
ENDBRANCH   9  21
BRANCH  10  28
HETATM   28  C   UNL     1      39.891 -10.598   3.914  1.00  0.00     0.293 C 
HETATM   29  O   UNL     1      38.870 -10.585   3.247  1.00  0.00    -0.259 OA
BRANCH  28  30
HETATM   30  O   UNL     1      40.810  -9.605   3.992  1.00  0.00    -0.323 OA
HETATM   31  C   UNL     1      40.702  -8.645   2.937  1.00  0.00     0.213 C 
ENDBRANCH  28  30
ENDBRANCH  10  28
TORSDOF 6
ENDMDL
MODEL 2
REMARK VINA RESULT:      -7.9      2.898      4.413
REMARK  6 active torsions:
REMARK  status: ('A' for Active; 'I' for Inactive)
REMARK    1  A    between atoms: C_7  and  S_8 
REMARK    2  A    between atoms: S_8  and  C_9 
REMARK    3  A    between atoms: C_9  and  C_10 
REMARK    4  A    between atoms: C_18  and  C_19 
REMARK    5  A    between atoms: C_26  and  C_27 
REMARK    6  A    between atoms: C_27  and  O_28 
ROOT
HETATM    1  C   UNL     1      40.308 -11.282   2.346  1.00  0.00     0.070 C 
HETATM    2  C   UNL     1      40.884 -11.937   3.578  1.00  0.00     0.037 A 
HETATM    3  N   UNL     1      41.097 -13.307   3.484  1.00  0.00    -0.192 N 
HETATM    4  C   UNL     1      41.576 -14.054   4.495  1.00  0.00     0.726 A 
HETATM    5  N   UNL     1      41.867 -13.462   5.691  1.00  0.00    -0.082 N 
HETATM    6  N   UNL     1      42.289 -14.369   6.598  1.00  0.00    -0.128 NA
HETATM    7  C   UNL     1      42.300 -15.482   5.852  1.00  0.00     0.226 A 
HETATM    8  N   UNL     1      41.851 -15.329   4.562  1.00  0.00    -0.035 NA
HETATM    9  C   UNL     1      41.722 -12.022   5.951  1.00  0.00     0.203 A 
HETATM   10  C   UNL     1      41.171 -11.290   4.735  1.00  0.00     0.070 A 
HETATM   11  H   UNL     1      40.884 -13.760   2.599  1.00  0.00     0.184 HD
ENDROOT
BRANCH   7  12
HETATM   12  S   UNL     1      42.889 -17.018   6.422  1.00  0.00    -0.083 SA
BRANCH  12  13
HETATM   13  C   UNL     1      44.279 -17.319   5.297  1.00  0.00     0.123 C 
BRANCH  13  14
HETATM   14  C   UNL     1      44.030 -18.537   4.435  1.00  0.00    -0.027 A 
HETATM   15  C   UNL     1      43.675 -18.455   3.078  1.00  0.00     0.041 A 
HETATM   16 CL   UNL     1      43.449 -16.938   2.281  1.00  0.00    -0.084 Cl
HETATM   17  C   UNL     1      43.492 -19.616   2.320  1.00  0.00     0.024 A 
HETATM   18  C   UNL     1      43.658 -20.872   2.902  1.00  0.00     0.002 A 
HETATM   19  C   UNL     1      44.011 -20.971   4.245  1.00  0.00     0.001 A 
HETATM   20  C   UNL     1      44.200 -19.814   5.004  1.00  0.00     0.009 A 
ENDBRANCH  13  14
ENDBRANCH  12  13
ENDBRANCH   7  12
BRANCH   9  21
HETATM   21  C   UNL     1      43.049 -11.441   6.439  1.00  0.00    -0.028 A 
HETATM   22  C   UNL     1      43.126 -10.661   7.608  1.00  0.00     0.011 A 
HETATM   23  C   UNL     1      44.351 -10.151   8.042  1.00  0.00     0.024 A 
HETATM   24  C   UNL     1      45.511 -10.418   7.318  1.00  0.00     0.034 A 
HETATM   25 CL   UNL     1      47.019  -9.790   7.855  1.00  0.00    -0.084 Cl
HETATM   26  C   UNL     1      45.456 -11.192   6.162  1.00  0.00     0.024 A 
HETATM   27  C   UNL     1      44.232 -11.701   5.723  1.00  0.00     0.011 A 
ENDBRANCH   9  21
BRANCH  10  28
HETATM   28  C   UNL     1      41.012  -9.827   4.859  1.00  0.00     0.293 C 
HETATM   29  O   UNL     1      41.726  -9.008   4.301  1.00  0.00    -0.259 OA
BRANCH  28  30
HETATM   30  O   UNL     1      39.965  -9.554   5.675  1.00  0.00    -0.323 OA
HETATM   31  C   UNL     1      39.056  -8.593   5.133  1.00  0.00     0.213 C 
ENDBRANCH  28  30
ENDBRANCH  10  28
TORSDOF 6
ENDMDL
MODEL 3
REMARK VINA RESULT:      -7.8      3.879      5.617
REMARK  6 active torsions:
REMARK  status: ('A' for Active; 'I' for Inactive)
REMARK    1  A    between atoms: C_7  and  S_8 
REMARK    2  A    between atoms: S_8  and  C_9 
REMARK    3  A    between atoms: C_9  and  C_10 
REMARK    4  A    between atoms: C_18  and  C_19 
REMARK    5  A    between atoms: C_26  and  C_27 
REMARK    6  A    between atoms: C_27  and  O_28 
ROOT
HETATM    1  C   UNL     1      38.580 -14.672  -3.194  1.00  0.00     0.070 C 
HETATM    2  C   UNL     1      38.888 -14.019  -1.869  1.00  0.00     0.037 A 
HETATM    3  N   UNL     1      39.515 -14.832  -0.932  1.00  0.00    -0.192 N 
HETATM    4  C   UNL     1      39.835 -14.423   0.309  1.00  0.00     0.726 A 
HETATM    5  N   UNL     1      39.531 -13.149   0.697  1.00  0.00    -0.082 N 
HETATM    6  N   UNL     1      39.881 -12.930   1.984  1.00  0.00    -0.128 NA
HETATM    7  C   UNL     1      40.463 -14.100   2.286  1.00  0.00     0.226 A 
HETATM    8  N   UNL     1      40.437 -15.044   1.288  1.00  0.00    -0.035 NA
HETATM    9  C   UNL     1      38.891 -12.155  -0.176  1.00  0.00     0.203 A 
HETATM   10  C   UNL     1      38.577 -12.739  -1.547  1.00  0.00     0.070 A 
HETATM   11  H   UNL     1      39.746 -15.783  -1.208  1.00  0.00     0.184 HD
ENDROOT
BRANCH   7  12
HETATM   12  S   UNL     1      41.260 -14.416   3.801  1.00  0.00    -0.083 SA
BRANCH  12  13
HETATM   13  C   UNL     1      42.960 -14.739   3.263  1.00  0.00     0.123 C 
BRANCH  13  14
HETATM   14  C   UNL     1      43.334 -16.190   3.476  1.00  0.00    -0.027 A 
HETATM   15  C   UNL     1      43.792 -16.690   4.706  1.00  0.00     0.041 A 
HETATM   16 CL   UNL     1      44.011 -15.671   6.085  1.00  0.00    -0.084 Cl
HETATM   17  C   UNL     1      44.090 -18.049   4.853  1.00  0.00     0.024 A 
HETATM   18  C   UNL     1      43.937 -18.925   3.780  1.00  0.00     0.002 A 
HETATM   19  C   UNL     1      43.483 -18.446   2.555  1.00  0.00     0.001 A 
HETATM   20  C   UNL     1      43.180 -17.091   2.405  1.00  0.00     0.009 A 
ENDBRANCH  13  14
ENDBRANCH  12  13
ENDBRANCH   7  12
BRANCH   9  21
HETATM   21  C   UNL     1      39.752 -10.893  -0.255  1.00  0.00    -0.028 A 
HETATM   22  C   UNL     1      41.074 -10.934  -0.734  1.00  0.00     0.011 A 
HETATM   23  C   UNL     1      41.838  -9.767  -0.809  1.00  0.00     0.024 A 
HETATM   24  C   UNL     1      41.288  -8.550  -0.414  1.00  0.00     0.034 A 
HETATM   25 CL   UNL     1      42.230  -7.113  -0.508  1.00  0.00    -0.084 Cl
HETATM   26  C   UNL     1      39.980  -8.489   0.058  1.00  0.00     0.024 A 
HETATM   27  C   UNL     1      39.214  -9.655   0.138  1.00  0.00     0.011 A 
ENDBRANCH   9  21
BRANCH  10  28
HETATM   28  C   UNL     1      37.963 -11.825  -2.531  1.00  0.00     0.293 C 
HETATM   29  O   UNL     1      36.771 -11.570  -2.582  1.00  0.00    -0.259 OA
BRANCH  28  30
HETATM   30  O   UNL     1      38.924 -11.330  -3.349  1.00  0.00    -0.323 OA
HETATM   31  C   UNL     1      38.766  -9.937  -3.635  1.00  0.00     0.213 C 
ENDBRANCH  28  30
ENDBRANCH  10  28
TORSDOF 6
ENDMDL
MODEL 4
REMARK VINA RESULT:      -7.8      3.366      5.153
REMARK  6 active torsions:
REMARK  status: ('A' for Active; 'I' for Inactive)
REMARK    1  A    between atoms: C_7  and  S_8 
REMARK    2  A    between atoms: S_8  and  C_9 
REMARK    3  A    between atoms: C_9  and  C_10 
REMARK    4  A    between atoms: C_18  and  C_19 
REMARK    5  A    between atoms: C_26  and  C_27 
REMARK    6  A    between atoms: C_27  and  O_28 
ROOT
HETATM    1  C   UNL     1      40.511 -12.445  -2.880  1.00  0.00     0.070 C 
HETATM    2  C   UNL     1      40.228 -12.738  -1.428  1.00  0.00     0.037 A 
HETATM    3  N   UNL     1      40.908 -13.825  -0.891  1.00  0.00    -0.192 N 
HETATM    4  C   UNL     1      40.752 -14.246   0.377  1.00  0.00     0.726 A 
HETATM    5  N   UNL     1      39.878 -13.593   1.200  1.00  0.00    -0.082 N 
HETATM    6  N   UNL     1      39.817 -14.180   2.415  1.00  0.00    -0.128 NA
HETATM    7  C   UNL     1      40.743 -15.139   2.276  1.00  0.00     0.226 A 
HETATM    8  N   UNL     1      41.323 -15.219   1.033  1.00  0.00    -0.035 NA
HETATM    9  C   UNL     1      39.099 -12.413   0.800  1.00  0.00     0.203 A 
HETATM   10  C   UNL     1      39.360 -12.040  -0.654  1.00  0.00     0.070 A 
HETATM   11  H   UNL     1      41.561 -14.320  -1.494  1.00  0.00     0.184 HD
ENDROOT
BRANCH   7  12
HETATM   12  S   UNL     1      41.245 -16.189   3.571  1.00  0.00    -0.083 SA
BRANCH  12  13
HETATM   13  C   UNL     1      42.982 -16.488   3.151  1.00  0.00     0.123 C 
BRANCH  13  14
HETATM   14  C   UNL     1      43.325 -17.958   3.256  1.00  0.00    -0.027 A 
HETATM   15  C   UNL     1      43.871 -18.535   4.415  1.00  0.00     0.041 A 
HETATM   16 CL   UNL     1      44.241 -17.598   5.819  1.00  0.00    -0.084 Cl
HETATM   17  C   UNL     1      44.135 -19.908   4.468  1.00  0.00     0.024 A 
HETATM   18  C   UNL     1      43.861 -20.722   3.369  1.00  0.00     0.002 A 
HETATM   19  C   UNL     1      43.319 -20.166   2.214  1.00  0.00     0.001 A 
HETATM   20  C   UNL     1      43.049 -18.796   2.159  1.00  0.00     0.009 A 
ENDBRANCH  13  14
ENDBRANCH  12  13
ENDBRANCH   7  12
BRANCH   9  21
HETATM   21  C   UNL     1      39.365 -11.256   1.763  1.00  0.00    -0.028 A 
HETATM   22  C   UNL     1      38.328 -10.662   2.505  1.00  0.00     0.011 A 
HETATM   23  C   UNL     1      38.597  -9.615   3.390  1.00  0.00     0.024 A 
HETATM   24  C   UNL     1      39.902  -9.155   3.545  1.00  0.00     0.034 A 
HETATM   25 CL   UNL     1      40.232  -7.866   4.635  1.00  0.00    -0.084 Cl
HETATM   26  C   UNL     1      40.943  -9.734   2.824  1.00  0.00     0.024 A 
HETATM   27  C   UNL     1      40.677 -10.779   1.936  1.00  0.00     0.011 A 
ENDBRANCH   9  21
BRANCH  10  28
HETATM   28  C   UNL     1      38.659 -10.845  -1.167  1.00  0.00     0.293 C 
HETATM   29  O   UNL     1      39.209  -9.793  -1.446  1.00  0.00    -0.259 OA
BRANCH  28  30
HETATM   30  O   UNL     1      37.334 -11.110  -1.273  1.00  0.00    -0.323 OA
HETATM   31  C   UNL     1      36.895 -11.283  -2.623  1.00  0.00     0.213 C 
ENDBRANCH  28  30
ENDBRANCH  10  28
TORSDOF 6
ENDMDL
MODEL 5
REMARK VINA RESULT:      -7.6      3.153      4.789
REMARK  6 active torsions:
REMARK  status: ('A' for Active; 'I' for Inactive)
REMARK    1  A    between atoms: C_7  and  S_8 
REMARK    2  A    between atoms: S_8  and  C_9 
REMARK    3  A    between atoms: C_9  and  C_10 
REMARK    4  A    between atoms: C_18  and  C_19 
REMARK    5  A    between atoms: C_26  and  C_27 
REMARK    6  A    between atoms: C_27  and  O_28 
ROOT
HETATM    1  C   UNL     1      38.366 -11.651   1.002  1.00  0.00     0.070 C 
HETATM    2  C   UNL     1      39.714 -12.044   1.554  1.00  0.00     0.037 A 
HETATM    3  N   UNL     1      40.064 -11.450   2.761  1.00  0.00    -0.192 N 
HETATM    4  C   UNL     1      41.239 -11.663   3.380  1.00  0.00     0.726 A 
HETATM    5  N   UNL     1      42.159 -12.495   2.809  1.00  0.00    -0.082 N 
HETATM    6  N   UNL     1      43.292 -12.552   3.543  1.00  0.00    -0.128 NA
HETATM    7  C   UNL     1      42.951 -11.784   4.587  1.00  0.00     0.226 A 
HETATM    8  N   UNL     1      41.706 -11.208   4.512  1.00  0.00    -0.035 NA
HETATM    9  C   UNL     1      41.941 -13.221   1.550  1.00  0.00     0.203 A 
HETATM   10  C   UNL     1      40.580 -12.893   0.948  1.00  0.00     0.070 A 
HETATM   11  H   UNL     1      39.387 -10.827   3.196  1.00  0.00     0.184 HD
ENDROOT
BRANCH   7  12
HETATM   12  S   UNL     1      43.962 -11.557   5.986  1.00  0.00    -0.083 SA
BRANCH  12  13
HETATM   13  C   UNL     1      43.152 -12.625   7.205  1.00  0.00     0.123 C 
BRANCH  13  14
HETATM   14  C   UNL     1      43.031 -14.044   6.694  1.00  0.00    -0.027 A 
HETATM   15  C   UNL     1      41.809 -14.612   6.295  1.00  0.00     0.041 A 
HETATM   16 CL   UNL     1      40.318 -13.745   6.397  1.00  0.00    -0.084 Cl
HETATM   17  C   UNL     1      41.763 -15.919   5.797  1.00  0.00     0.024 A 
HETATM   18  C   UNL     1      42.929 -16.675   5.690  1.00  0.00     0.002 A 
HETATM   19  C   UNL     1      44.148 -16.126   6.079  1.00  0.00     0.001 A 
HETATM   20  C   UNL     1      44.199 -14.820   6.572  1.00  0.00     0.009 A 
ENDBRANCH  13  14
ENDBRANCH  12  13
ENDBRANCH   7  12
BRANCH   9  21
HETATM   21  C   UNL     1      42.146 -14.720   1.765  1.00  0.00    -0.028 A 
HETATM   22  C   UNL     1      41.095 -15.553   2.191  1.00  0.00     0.011 A 
HETATM   23  C   UNL     1      41.301 -16.923   2.368  1.00  0.00     0.024 A 
HETATM   24  C   UNL     1      42.555 -17.475   2.117  1.00  0.00     0.034 A 
HETATM   25 CL   UNL     1      42.808 -19.162   2.336  1.00  0.00    -0.084 Cl
HETATM   26  C   UNL     1      43.607 -16.668   1.690  1.00  0.00     0.024 A 
HETATM   27  C   UNL     1      43.404 -15.297   1.515  1.00  0.00     0.011 A 
ENDBRANCH   9  21
BRANCH  10  28
HETATM   28  C   UNL     1      40.226 -13.589  -0.306  1.00  0.00     0.293 C 
HETATM   29  O   UNL     1      39.511 -14.576  -0.366  1.00  0.00    -0.259 OA
BRANCH  28  30
HETATM   30  O   UNL     1      40.816 -12.961  -1.352  1.00  0.00    -0.323 OA
HETATM   31  C   UNL     1      40.274 -13.338  -2.621  1.00  0.00     0.213 C 
ENDBRANCH  28  30
ENDBRANCH  10  28
TORSDOF 6
ENDMDL
MODEL 6
REMARK VINA RESULT:      -7.6      4.104      6.758
REMARK  6 active torsions:
REMARK  status: ('A' for Active; 'I' for Inactive)
REMARK    1  A    between atoms: C_7  and  S_8 
REMARK    2  A    between atoms: S_8  and  C_9 
REMARK    3  A    between atoms: C_9  and  C_10 
REMARK    4  A    between atoms: C_18  and  C_19 
REMARK    5  A    between atoms: C_26  and  C_27 
REMARK    6  A    between atoms: C_27  and  O_28 
ROOT
HETATM    1  C   UNL     1      38.342 -11.738   1.971  1.00  0.00     0.070 C 
HETATM    2  C   UNL     1      39.693 -12.159   2.494  1.00  0.00     0.037 A 
HETATM    3  N   UNL     1      39.975 -11.780   3.801  1.00  0.00    -0.192 N 
HETATM    4  C   UNL     1      41.143 -12.044   4.415  1.00  0.00     0.726 A 
HETATM    5  N   UNL     1      42.123 -12.711   3.737  1.00  0.00    -0.082 N 
HETATM    6  N   UNL     1      43.237 -12.846   4.490  1.00  0.00    -0.128 NA
HETATM    7  C   UNL     1      42.825 -12.299   5.643  1.00  0.00     0.226 A 
HETATM    8  N   UNL     1      41.552 -11.782   5.626  1.00  0.00    -0.035 NA
HETATM    9  C   UNL     1      41.981 -13.204   2.359  1.00  0.00     0.203 A 
HETATM   10  C   UNL     1      40.622 -12.839   1.777  1.00  0.00     0.070 A 
HETATM   11  H   UNL     1      39.254 -11.281   4.316  1.00  0.00     0.184 HD
ENDROOT
BRANCH   7  12
HETATM   12  S   UNL     1      43.782 -12.283   7.097  1.00  0.00    -0.083 SA
BRANCH  12  13
HETATM   13  C   UNL     1      44.274 -10.541   7.195  1.00  0.00     0.123 C 
BRANCH  13  14
HETATM   14  C   UNL     1      44.156 -10.018   8.610  1.00  0.00    -0.027 A 
HETATM   15  C   UNL     1      42.964  -9.491   9.134  1.00  0.00     0.041 A 
HETATM   16 CL   UNL     1      41.527  -9.352   8.184  1.00  0.00    -0.084 Cl
HETATM   17  C   UNL     1      42.904  -9.054  10.462  1.00  0.00     0.024 A 
HETATM   18  C   UNL     1      44.028  -9.137  11.284  1.00  0.00     0.002 A 
HETATM   19  C   UNL     1      45.216  -9.659  10.780  1.00  0.00     0.001 A 
HETATM   20  C   UNL     1      45.278 -10.100   9.456  1.00  0.00     0.009 A 
ENDBRANCH  13  14
ENDBRANCH  12  13
ENDBRANCH   7  12
BRANCH   9  21
HETATM   21  C   UNL     1      42.262 -14.706   2.307  1.00  0.00    -0.028 A 
HETATM   22  C   UNL     1      43.361 -15.224   1.596  1.00  0.00     0.011 A 
HETATM   23  C   UNL     1      43.607 -16.599   1.572  1.00  0.00     0.024 A 
HETATM   24  C   UNL     1      42.763 -17.467   2.261  1.00  0.00     0.034 A 
HETATM   25 CL   UNL     1      43.067 -19.160   2.231  1.00  0.00    -0.084 Cl
HETATM   26  C   UNL     1      41.674 -16.973   2.974  1.00  0.00     0.024 A 
HETATM   27  C   UNL     1      41.424 -15.599   2.997  1.00  0.00     0.011 A 
ENDBRANCH   9  21
BRANCH  10  28
HETATM   28  C   UNL     1      40.342 -13.311   0.405  1.00  0.00     0.293 C 
HETATM   29  O   UNL     1      39.715 -14.324   0.140  1.00  0.00    -0.259 OA
BRANCH  28  30
HETATM   30  O   UNL     1      40.885 -12.448  -0.488  1.00  0.00    -0.323 OA
HETATM   31  C   UNL     1      40.130 -12.331  -1.698  1.00  0.00     0.213 C 
ENDBRANCH  28  30
ENDBRANCH  10  28
TORSDOF 6
ENDMDL
MODEL 7
REMARK VINA RESULT:      -7.6      3.689      6.663
REMARK  6 active torsions:
REMARK  status: ('A' for Active; 'I' for Inactive)
REMARK    1  A    between atoms: C_7  and  S_8 
REMARK    2  A    between atoms: S_8  and  C_9 
REMARK    3  A    between atoms: C_9  and  C_10 
REMARK    4  A    between atoms: C_18  and  C_19 
REMARK    5  A    between atoms: C_26  and  C_27 
REMARK    6  A    between atoms: C_27  and  O_28 
ROOT
HETATM    1  C   UNL     1      42.171 -10.070   5.812  1.00  0.00     0.070 C 
HETATM    2  C   UNL     1      41.754 -10.754   4.534  1.00  0.00     0.037 A 
HETATM    3  N   UNL     1      42.030 -10.058   3.363  1.00  0.00    -0.192 N 
HETATM    4  C   UNL     1      41.700 -10.505   2.138  1.00  0.00     0.726 A 
HETATM    5  N   UNL     1      41.050 -11.700   2.011  1.00  0.00    -0.082 N 
HETATM    6  N   UNL     1      40.759 -11.965   0.718  1.00  0.00    -0.128 NA
HETATM    7  C   UNL     1      41.333 -10.917   0.113  1.00  0.00     0.226 A 
HETATM    8  N   UNL     1      41.905  -9.993   0.955  1.00  0.00    -0.035 NA
HETATM    9  C   UNL     1      40.704 -12.572   3.142  1.00  0.00     0.203 A 
HETATM   10  C   UNL     1      41.126 -11.954   4.469  1.00  0.00     0.070 A 
HETATM   11  H   UNL     1      42.513  -9.166   3.444  1.00  0.00     0.184 HD
ENDROOT
BRANCH   7  12
HETATM   12  S   UNL     1      41.424 -10.734  -1.616  1.00  0.00    -0.083 SA
BRANCH  12  13
HETATM   13  C   UNL     1      39.672 -10.616  -2.067  1.00  0.00     0.123 C 
BRANCH  13  14
HETATM   14  C   UNL     1      39.097 -11.978  -2.386  1.00  0.00    -0.027 A 
HETATM   15  C   UNL     1      37.719 -12.212  -2.530  1.00  0.00     0.041 A 
HETATM   16 CL   UNL     1      36.549 -10.960  -2.310  1.00  0.00    -0.084 Cl
HETATM   17  C   UNL     1      37.246 -13.486  -2.861  1.00  0.00     0.024 A 
HETATM   18  C   UNL     1      38.137 -14.542  -3.051  1.00  0.00     0.002 A 
HETATM   19  C   UNL     1      39.505 -14.326  -2.913  1.00  0.00     0.001 A 
HETATM   20  C   UNL     1      39.982 -13.054  -2.588  1.00  0.00     0.009 A 
ENDBRANCH  13  14
ENDBRANCH  12  13
ENDBRANCH   7  12
BRANCH   9  21
HETATM   21  C   UNL     1      41.290 -13.968   2.928  1.00  0.00    -0.028 A 
HETATM   22  C   UNL     1      40.472 -15.112   2.888  1.00  0.00     0.011 A 
HETATM   23  C   UNL     1      41.027 -16.376   2.678  1.00  0.00     0.024 A 
HETATM   24  C   UNL     1      42.402 -16.510   2.501  1.00  0.00     0.034 A 
HETATM   25 CL   UNL     1      43.085 -18.067   2.242  1.00  0.00    -0.084 Cl
HETATM   26  C   UNL     1      43.228 -15.389   2.532  1.00  0.00     0.024 A 
HETATM   27  C   UNL     1      42.676 -14.124   2.745  1.00  0.00     0.011 A 
ENDBRANCH   9  21
BRANCH  10  28
HETATM   28  C   UNL     1      40.864 -12.753   5.684  1.00  0.00     0.293 C 
HETATM   29  O   UNL     1      39.765 -12.882   6.198  1.00  0.00    -0.259 OA
BRANCH  28  30
HETATM   30  O   UNL     1      42.023 -13.305   6.119  1.00  0.00    -0.323 OA
HETATM   31  C   UNL     1      41.884 -14.666   6.535  1.00  0.00     0.213 C 
ENDBRANCH  28  30
ENDBRANCH  10  28
TORSDOF 6
ENDMDL
MODEL 8
REMARK VINA RESULT:      -7.5      3.412      6.320
REMARK  6 active torsions:
REMARK  status: ('A' for Active; 'I' for Inactive)
REMARK    1  A    between atoms: C_7  and  S_8 
REMARK    2  A    between atoms: S_8  and  C_9 
REMARK    3  A    between atoms: C_9  and  C_10 
REMARK    4  A    between atoms: C_18  and  C_19 
REMARK    5  A    between atoms: C_26  and  C_27 
REMARK    6  A    between atoms: C_27  and  O_28 
ROOT
HETATM    1  C   UNL     1      45.044 -11.698   6.902  1.00  0.00     0.070 C 
HETATM    2  C   UNL     1      43.888 -12.064   6.004  1.00  0.00     0.037 A 
HETATM    3  N   UNL     1      43.504 -11.088   5.093  1.00  0.00    -0.192 N 
HETATM    4  C   UNL     1      42.476 -11.234   4.238  1.00  0.00     0.726 A 
HETATM    5  N   UNL     1      41.748 -12.389   4.252  1.00  0.00    -0.082 N 
HETATM    6  N   UNL     1      40.731 -12.340   3.364  1.00  0.00    -0.128 NA
HETATM    7  C   UNL     1      40.956 -11.148   2.793  1.00  0.00     0.226 A 
HETATM    8  N   UNL     1      42.007 -10.435   3.317  1.00  0.00    -0.035 NA
HETATM    9  C   UNL     1      42.033 -13.530   5.135  1.00  0.00     0.203 A 
HETATM   10  C   UNL     1      43.214 -13.240   6.053  1.00  0.00     0.070 A 
HETATM   11  H   UNL     1      44.038 -10.222   5.072  1.00  0.00     0.184 HD
ENDROOT
BRANCH   7  12
HETATM   12  S   UNL     1      40.041 -10.540   1.443  1.00  0.00    -0.083 SA
BRANCH  12  13
HETATM   13  C   UNL     1      38.910 -11.917   1.113  1.00  0.00     0.123 C 
BRANCH  13  14
HETATM   14  C   UNL     1      39.177 -12.530  -0.244  1.00  0.00    -0.027 A 
HETATM   15  C   UNL     1      39.663 -13.838  -0.411  1.00  0.00     0.041 A 
HETATM   16 CL   UNL     1      40.043 -14.852   0.935  1.00  0.00    -0.084 Cl
HETATM   17  C   UNL     1      39.858 -14.365  -1.692  1.00  0.00     0.024 A 
HETATM   18  C   UNL     1      39.572 -13.599  -2.821  1.00  0.00     0.002 A 
HETATM   19  C   UNL     1      39.088 -12.302  -2.673  1.00  0.00     0.001 A 
HETATM   20  C   UNL     1      38.887 -11.774  -1.396  1.00  0.00     0.009 A 
ENDBRANCH  13  14
ENDBRANCH  12  13
ENDBRANCH   7  12
BRANCH   9  21
HETATM   21  C   UNL     1      42.228 -14.800   4.306  1.00  0.00    -0.028 A 
HETATM   22  C   UNL     1      43.166 -14.859   3.259  1.00  0.00     0.011 A 
HETATM   23  C   UNL     1      43.337 -16.034   2.523  1.00  0.00     0.024 A 
HETATM   24  C   UNL     1      42.578 -17.161   2.830  1.00  0.00     0.034 A 
HETATM   25 CL   UNL     1      42.789 -18.608   1.923  1.00  0.00    -0.084 Cl
HETATM   26  C   UNL     1      41.648 -17.124   3.866  1.00  0.00     0.024 A 
HETATM   27  C   UNL     1      41.473 -15.949   4.601  1.00  0.00     0.011 A 
ENDBRANCH   9  21
BRANCH  10  28
HETATM   28  C   UNL     1      43.623 -14.325   6.967  1.00  0.00     0.293 C 
HETATM   29  O   UNL     1      43.117 -14.534   8.057  1.00  0.00    -0.259 OA
BRANCH  28  30
HETATM   30  O   UNL     1      44.632 -15.033   6.403  1.00  0.00    -0.323 OA
HETATM   31  C   UNL     1      44.531 -16.443   6.624  1.00  0.00     0.213 C 
ENDBRANCH  28  30
ENDBRANCH  10  28
TORSDOF 6
ENDMDL
MODEL 9
REMARK VINA RESULT:      -7.5      3.089      3.984
REMARK  6 active torsions:
REMARK  status: ('A' for Active; 'I' for Inactive)
REMARK    1  A    between atoms: C_7  and  S_8 
REMARK    2  A    between atoms: S_8  and  C_9 
REMARK    3  A    between atoms: C_9  and  C_10 
REMARK    4  A    between atoms: C_18  and  C_19 
REMARK    5  A    between atoms: C_26  and  C_27 
REMARK    6  A    between atoms: C_27  and  O_28 
ROOT
HETATM    1  C   UNL     1      38.465  -8.579   1.845  1.00  0.00     0.070 C 
HETATM    2  C   UNL     1      39.115  -9.918   1.604  1.00  0.00     0.037 A 
HETATM    3  N   UNL     1      39.113 -10.789   2.687  1.00  0.00    -0.192 N 
HETATM    4  C   UNL     1      39.676 -12.011   2.658  1.00  0.00     0.726 A 
HETATM    5  N   UNL     1      40.296 -12.439   1.519  1.00  0.00    -0.082 N 
HETATM    6  N   UNL     1      40.841 -13.664   1.687  1.00  0.00    -0.128 NA
HETATM    7  C   UNL     1      40.442 -13.945   2.935  1.00  0.00     0.226 A 
HETATM    8  N   UNL     1      39.740 -12.947   3.566  1.00  0.00    -0.035 NA
HETATM    9  C   UNL     1      40.368 -11.654   0.278  1.00  0.00     0.203 A 
HETATM   10  C   UNL     1      39.701 -10.295   0.440  1.00  0.00     0.070 A 
HETATM   11  H   UNL     1      38.655 -10.482   3.542  1.00  0.00     0.184 HD
ENDROOT
BRANCH   7  12
HETATM   12  S   UNL     1      40.720 -15.478   3.713  1.00  0.00    -0.083 SA
BRANCH  12  13
HETATM   13  C   UNL     1      42.528 -15.503   3.842  1.00  0.00     0.123 C 
BRANCH  13  14
HETATM   14  C   UNL     1      43.073 -16.896   3.615  1.00  0.00    -0.027 A 
HETATM   15  C   UNL     1      43.951 -17.529   4.510  1.00  0.00     0.041 A 
HETATM   16 CL   UNL     1      44.525 -16.747   5.940  1.00  0.00    -0.084 Cl
HETATM   17  C   UNL     1      44.396 -18.833   4.265  1.00  0.00     0.024 A 
HETATM   18  C   UNL     1      43.972 -19.521   3.129  1.00  0.00     0.002 A 
HETATM   19  C   UNL     1      43.101 -18.908   2.233  1.00  0.00     0.001 A 
HETATM   20  C   UNL     1      42.651 -17.609   2.476  1.00  0.00     0.009 A 
ENDBRANCH  13  14
ENDBRANCH  12  13
ENDBRANCH   7  12
BRANCH   9  21
HETATM   21  C   UNL     1      39.792 -12.460  -0.887  1.00  0.00    -0.028 A 
HETATM   22  C   UNL     1      40.623 -13.033  -1.867  1.00  0.00     0.011 A 
HETATM   23  C   UNL     1      40.075 -13.776  -2.916  1.00  0.00     0.024 A 
HETATM   24  C   UNL     1      38.697 -13.958  -2.993  1.00  0.00     0.034 A 
HETATM   25 CL   UNL     1      38.024 -14.873  -4.284  1.00  0.00    -0.084 Cl
HETATM   26  C   UNL     1      37.858 -13.402  -2.030  1.00  0.00     0.024 A 
HETATM   27  C   UNL     1      38.403 -12.656  -0.982  1.00  0.00     0.011 A 
ENDBRANCH   9  21
BRANCH  10  28
HETATM   28  C   UNL     1      39.676  -9.423  -0.752  1.00  0.00     0.293 C 
HETATM   29  O   UNL     1      38.684  -9.213  -1.430  1.00  0.00    -0.259 OA
BRANCH  28  30
HETATM   30  O   UNL     1      40.913  -8.908  -0.960  1.00  0.00    -0.323 OA
HETATM   31  C   UNL     1      41.392  -9.101  -2.294  1.00  0.00     0.213 C 
ENDBRANCH  28  30
ENDBRANCH  10  28
TORSDOF 6
ENDMDL
MODEL 10
REMARK VINA RESULT:      -7.3      4.156      7.237
REMARK  6 active torsions:
REMARK  status: ('A' for Active; 'I' for Inactive)
REMARK    1  A    between atoms: C_7  and  S_8 
REMARK    2  A    between atoms: S_8  and  C_9 
REMARK    3  A    between atoms: C_9  and  C_10 
REMARK    4  A    between atoms: C_18  and  C_19 
REMARK    5  A    between atoms: C_26  and  C_27 
REMARK    6  A    between atoms: C_27  and  O_28 
ROOT
HETATM    1  C   UNL     1      40.344 -15.796   6.532  1.00  0.00     0.070 C 
HETATM    2  C   UNL     1      41.125 -14.756   5.768  1.00  0.00     0.037 A 
HETATM    3  N   UNL     1      40.431 -14.114   4.749  1.00  0.00    -0.192 N 
HETATM    4  C   UNL     1      40.980 -13.183   3.948  1.00  0.00     0.726 A 
HETATM    5  N   UNL     1      42.291 -12.839   4.119  1.00  0.00    -0.082 N 
HETATM    6  N   UNL     1      42.683 -11.928   3.201  1.00  0.00    -0.128 NA
HETATM    7  C   UNL     1      41.528 -11.714   2.554  1.00  0.00     0.226 A 
HETATM    8  N   UNL     1      40.468 -12.479   2.975  1.00  0.00    -0.035 NA
HETATM    9  C   UNL     1      43.160 -13.403   5.162  1.00  0.00     0.203 A 
HETATM   10  C   UNL     1      42.424 -14.443   5.996  1.00  0.00     0.070 A 
HETATM   11  H   UNL     1      39.454 -14.362   4.611  1.00  0.00     0.184 HD
ENDROOT
BRANCH   7  12
HETATM   12  S   UNL     1      41.332 -10.515   1.307  1.00  0.00    -0.083 SA
BRANCH  12  13
HETATM   13  C   UNL     1      39.740 -10.993   0.583  1.00  0.00     0.123 C 
BRANCH  13  14
HETATM   14  C   UNL     1      39.930 -11.948  -0.574  1.00  0.00    -0.027 A 
HETATM   15  C   UNL     1      40.419 -11.544  -1.828  1.00  0.00     0.041 A 
HETATM   16 CL   UNL     1      40.808  -9.896  -2.171  1.00  0.00    -0.084 Cl
HETATM   17  C   UNL     1      40.608 -12.479  -2.852  1.00  0.00     0.024 A 
HETATM   18  C   UNL     1      40.312 -13.825  -2.641  1.00  0.00     0.002 A 
HETATM   19  C   UNL     1      39.829 -14.242  -1.405  1.00  0.00     0.001 A 
HETATM   20  C   UNL     1      39.643 -13.313  -0.378  1.00  0.00     0.009 A 
ENDBRANCH  13  14
ENDBRANCH  12  13
ENDBRANCH   7  12
BRANCH   9  21
HETATM   21  C   UNL     1      43.757 -12.280   6.011  1.00  0.00    -0.028 A 
HETATM   22  C   UNL     1      42.941 -11.349   6.679  1.00  0.00     0.011 A 
HETATM   23  C   UNL     1      43.508 -10.339   7.460  1.00  0.00     0.024 A 
HETATM   24  C   UNL     1      44.893 -10.254   7.587  1.00  0.00     0.034 A 
HETATM   25 CL   UNL     1      45.590  -9.011   8.550  1.00  0.00    -0.084 Cl
HETATM   26  C   UNL     1      45.717 -11.170   6.938  1.00  0.00     0.024 A 
HETATM   27  C   UNL     1      45.153 -12.179   6.153  1.00  0.00     0.011 A 
ENDBRANCH   9  21
BRANCH  10  28
HETATM   28  C   UNL     1      43.182 -15.060   7.103  1.00  0.00     0.293 C 
HETATM   29  O   UNL     1      43.059 -14.751   8.277  1.00  0.00    -0.259 OA
BRANCH  28  30
HETATM   30  O   UNL     1      44.017 -16.006   6.607  1.00  0.00    -0.323 OA
HETATM   31  C   UNL     1      43.629 -17.341   6.943  1.00  0.00     0.213 C 
ENDBRANCH  28  30
ENDBRANCH  10  28
TORSDOF 6
ENDMDL
