MODEL 1
REMARK VINA RESULT:      -8.1      0.000      0.000
REMARK  2 active torsions:
REMARK  status: ('A' for Active; 'I' for Inactive)
REMARK    1  A    between atoms: C_9  and  C_10 
REMARK       I    between atoms: C_10  and  N_11 
REMARK    2  A    between atoms: N_11  and  C_12 
ROOT
HETATM    1  C   UNL     1      41.261 -13.350   3.710  1.00  0.00     0.267 C 
HETATM    2  N   UNL     1      40.639 -12.454   2.896  1.00  0.00    -0.156 N 
HETATM    3  O   UNL     1      41.225 -13.176   4.937  1.00  0.00    -0.270 OA
HETATM    4  H   UNL     1      40.210 -11.659   3.357  1.00  0.00     0.187 HD
ENDROOT
BRANCH   1   5
HETATM    5  C   UNL     1      42.023 -14.581   3.174  1.00  0.00     0.282 C 
HETATM    6  N   UNL     1      41.002 -15.533   2.540  1.00  0.00    -0.058 N 
HETATM    7  C   UNL     1      41.630 -16.712   1.903  1.00  0.00     0.272 C 
HETATM    8  H   UNL     1      40.345 -15.823   3.278  1.00  0.00     0.278 HD
HETATM    9  H   UNL     1      40.425 -15.003   1.875  1.00  0.00     0.278 HD
HETATM   10  C   UNL     1      42.634 -17.387   2.792  1.00  0.00    -0.026 A 
HETATM   11  C   UNL     1      43.178 -16.726   3.911  1.00  0.00    -0.048 A 
HETATM   12  C   UNL     1      43.082 -18.676   2.470  1.00  0.00     0.009 A 
HETATM   13  C   UNL     1      44.134 -17.380   4.703  1.00  0.00     0.008 A 
HETATM   14  C   UNL     1      42.707 -15.348   4.316  1.00  0.00     0.082 C 
HETATM   15  C   UNL     1      44.563 -18.665   4.375  1.00  0.00     0.001 A 
HETATM   16  C   UNL     1      44.039 -19.312   3.260  1.00  0.00     0.001 A 
ENDBRANCH   1   5
BRANCH   2  17
HETATM   17  C   UNL     1      40.491 -12.615   1.546  1.00  0.00     0.708 A 
HETATM   18  N   UNL     1      39.707 -13.470   0.937  1.00  0.00    -0.062 NA
HETATM   19  C   UNL     1      39.915 -13.272  -0.409  1.00  0.00     0.103 A 
HETATM   20  C   UNL     1      40.845 -12.260  -0.618  1.00  0.00     0.078 A 
HETATM   21  C   UNL     1      39.347 -13.924  -1.511  1.00  0.00     0.034 A 
HETATM   22  N   UNL     1      41.185 -11.846   0.645  1.00  0.00    -0.188 N 
HETATM   23  C   UNL     1      41.259 -11.850  -1.886  1.00  0.00     0.032 A 
HETATM   24  H   UNL     1      41.848 -11.117   0.861  1.00  0.00     0.184 HD
HETATM   25  C   UNL     1      40.686 -12.514  -2.977  1.00  0.00     0.002 A 
HETATM   26  C   UNL     1      39.745 -13.531  -2.796  1.00  0.00     0.002 A 
ENDBRANCH   2  17
TORSDOF 2
ENDMDL
MODEL 2
REMARK VINA RESULT:      -8.1      1.208      6.511
REMARK  2 active torsions:
REMARK  status: ('A' for Active; 'I' for Inactive)
REMARK    1  A    between atoms: C_9  and  C_10 
REMARK       I    between atoms: C_10  and  N_11 
REMARK    2  A    between atoms: N_11  and  C_12 
ROOT
HETATM    1  C   UNL     1      39.999 -13.513   3.623  1.00  0.00     0.267 C 
HETATM    2  N   UNL     1      40.235 -14.608   4.397  1.00  0.00    -0.156 N 
HETATM    3  O   UNL     1      39.235 -12.632   4.043  1.00  0.00    -0.270 OA
HETATM    4  H   UNL     1      39.724 -14.651   5.271  1.00  0.00     0.187 HD
ENDROOT
BRANCH   1   5
HETATM    5  C   UNL     1      40.638 -13.316   2.231  1.00  0.00     0.282 C 
HETATM    6  N   UNL     1      40.688 -11.811   1.940  1.00  0.00    -0.058 N 
HETATM    7  C   UNL     1      41.373 -11.492   0.668  1.00  0.00     0.272 C 
HETATM    8  H   UNL     1      39.720 -11.462   1.932  1.00  0.00     0.278 HD
HETATM    9  H   UNL     1      41.128 -11.336   2.738  1.00  0.00     0.278 HD
HETATM   10  C   UNL     1      40.883 -12.327  -0.480  1.00  0.00    -0.026 A 
HETATM   11  C   UNL     1      40.165 -13.519  -0.261  1.00  0.00    -0.048 A 
HETATM   12  C   UNL     1      41.195 -11.944  -1.793  1.00  0.00     0.009 A 
HETATM   13  C   UNL     1      39.746 -14.286  -1.359  1.00  0.00     0.008 A 
HETATM   14  C   UNL     1      39.779 -13.960   1.133  1.00  0.00     0.082 C 
HETATM   15  C   UNL     1      40.057 -13.888  -2.658  1.00  0.00     0.001 A 
HETATM   16  C   UNL     1      40.781 -12.719  -2.875  1.00  0.00     0.001 A 
ENDBRANCH   1   5
BRANCH   2  17
HETATM   17  C   UNL     1      41.161 -15.571   4.104  1.00  0.00     0.708 A 
HETATM   18  N   UNL     1      41.191 -16.336   3.040  1.00  0.00    -0.062 NA
HETATM   19  C   UNL     1      42.287 -17.153   3.201  1.00  0.00     0.103 A 
HETATM   20  C   UNL     1      42.943 -16.865   4.392  1.00  0.00     0.078 A 
HETATM   21  C   UNL     1      42.780 -18.167   2.370  1.00  0.00     0.034 A 
HETATM   22  N   UNL     1      42.214 -15.842   4.942  1.00  0.00    -0.188 N 
HETATM   23  C   UNL     1      44.083 -17.545   4.822  1.00  0.00     0.032 A 
HETATM   24  H   UNL     1      42.414 -15.390   5.821  1.00  0.00     0.184 HD
HETATM   25  C   UNL     1      44.561 -18.559   3.983  1.00  0.00     0.002 A 
HETATM   26  C   UNL     1      43.924 -18.865   2.777  1.00  0.00     0.002 A 
ENDBRANCH   2  17
TORSDOF 2
ENDMDL
MODEL 3
REMARK VINA RESULT:      -8.0      1.693      2.517
REMARK  2 active torsions:
REMARK  status: ('A' for Active; 'I' for Inactive)
REMARK    1  A    between atoms: C_9  and  C_10 
REMARK       I    between atoms: C_10  and  N_11 
REMARK    2  A    between atoms: N_11  and  C_12 
ROOT
HETATM    1  C   UNL     1      41.991 -11.461   1.929  1.00  0.00     0.267 C 
HETATM    2  N   UNL     1      41.545 -10.969   0.742  1.00  0.00    -0.156 N 
HETATM    3  O   UNL     1      42.635 -10.719   2.685  1.00  0.00    -0.270 OA
HETATM    4  H   UNL     1      41.811 -10.014   0.529  1.00  0.00     0.187 HD
ENDROOT
BRANCH   1   5
HETATM    5  C   UNL     1      41.737 -12.915   2.384  1.00  0.00     0.282 C 
HETATM    6  N   UNL     1      41.915 -12.975   3.906  1.00  0.00    -0.058 N 
HETATM    7  C   UNL     1      41.600 -14.306   4.471  1.00  0.00     0.272 C 
HETATM    8  H   UNL     1      42.886 -12.708   4.118  1.00  0.00     0.278 HD
HETATM    9  H   UNL     1      41.344 -12.235   4.334  1.00  0.00     0.278 HD
HETATM   10  C   UNL     1      42.267 -15.426   3.727  1.00  0.00    -0.026 A 
HETATM   11  C   UNL     1      42.783 -15.234   2.430  1.00  0.00    -0.048 A 
HETATM   12  C   UNL     1      42.327 -16.700   4.310  1.00  0.00     0.009 A 
HETATM   13  C   UNL     1      43.377 -16.312   1.756  1.00  0.00     0.008 A 
HETATM   14  C   UNL     1      42.767 -13.874   1.770  1.00  0.00     0.082 C 
HETATM   15  C   UNL     1      43.437 -17.571   2.351  1.00  0.00     0.001 A 
HETATM   16  C   UNL     1      42.912 -17.765   3.626  1.00  0.00     0.001 A 
ENDBRANCH   1   5
BRANCH   2  17
HETATM   17  C   UNL     1      40.709 -11.644  -0.106  1.00  0.00     0.708 A 
HETATM   18  N   UNL     1      39.406 -11.533  -0.179  1.00  0.00    -0.062 NA
HETATM   19  C   UNL     1      39.012 -12.418  -1.156  1.00  0.00     0.103 A 
HETATM   20  C   UNL     1      40.112 -13.075  -1.695  1.00  0.00     0.078 A 
HETATM   21  C   UNL     1      37.729 -12.716  -1.634  1.00  0.00     0.034 A 
HETATM   22  N   UNL     1      41.184 -12.553  -1.019  1.00  0.00    -0.188 N 
HETATM   23  C   UNL     1      40.012 -14.039  -2.700  1.00  0.00     0.032 A 
HETATM   24  H   UNL     1      42.148 -12.815  -1.162  1.00  0.00     0.184 HD
HETATM   25  C   UNL     1      38.723 -14.329  -3.163  1.00  0.00     0.002 A 
HETATM   26  C   UNL     1      37.600 -13.680  -2.643  1.00  0.00     0.002 A 
ENDBRANCH   2  17
TORSDOF 2
ENDMDL
MODEL 4
REMARK VINA RESULT:      -8.0      3.934      6.435
REMARK  2 active torsions:
REMARK  status: ('A' for Active; 'I' for Inactive)
REMARK    1  A    between atoms: C_9  and  C_10 
REMARK       I    between atoms: C_10  and  N_11 
REMARK    2  A    between atoms: N_11  and  C_12 
ROOT
HETATM    1  C   UNL     1      40.103 -12.304   6.017  1.00  0.00     0.267 C 
HETATM    2  N   UNL     1      39.685 -13.303   5.193  1.00  0.00    -0.156 N 
HETATM    3  O   UNL     1      39.270 -11.715   6.722  1.00  0.00    -0.270 OA
HETATM    4  H   UNL     1      38.686 -13.476   5.178  1.00  0.00     0.187 HD
ENDROOT
BRANCH   1   5
HETATM    5  C   UNL     1      41.579 -11.859   6.116  1.00  0.00     0.282 C 
HETATM    6  N   UNL     1      42.369 -12.983   6.798  1.00  0.00    -0.058 N 
HETATM    7  C   UNL     1      43.822 -12.710   6.861  1.00  0.00     0.272 C 
HETATM    8  H   UNL     1      41.979 -13.110   7.742  1.00  0.00     0.278 HD
HETATM    9  H   UNL     1      42.168 -13.867   6.315  1.00  0.00     0.278 HD
HETATM   10  C   UNL     1      44.133 -11.335   7.377  1.00  0.00    -0.026 A 
HETATM   11  C   UNL     1      43.150 -10.325   7.401  1.00  0.00    -0.048 A 
HETATM   12  C   UNL     1      45.439 -11.033   7.789  1.00  0.00     0.009 A 
HETATM   13  C   UNL     1      43.486  -9.045   7.866  1.00  0.00     0.008 A 
HETATM   14  C   UNL     1      41.722 -10.608   6.994  1.00  0.00     0.082 C 
HETATM   15  C   UNL     1      44.786  -8.762   8.280  1.00  0.00     0.001 A 
HETATM   16  C   UNL     1      45.762  -9.754   8.240  1.00  0.00     0.001 A 
ENDBRANCH   1   5
BRANCH   2  17
HETATM   17  C   UNL     1      40.524 -14.113   4.480  1.00  0.00     0.708 A 
HETATM   18  N   UNL     1      41.034 -15.256   4.870  1.00  0.00    -0.062 NA
HETATM   19  C   UNL     1      41.824 -15.685   3.828  1.00  0.00     0.103 A 
HETATM   20  C   UNL     1      41.782 -14.779   2.775  1.00  0.00     0.078 A 
HETATM   21  C   UNL     1      42.610 -16.839   3.714  1.00  0.00     0.034 A 
HETATM   22  N   UNL     1      40.934 -13.793   3.210  1.00  0.00    -0.188 N 
HETATM   23  C   UNL     1      42.496 -14.950   1.589  1.00  0.00     0.032 A 
HETATM   24  H   UNL     1      40.680 -12.969   2.685  1.00  0.00     0.184 HD
HETATM   25  C   UNL     1      43.281 -16.105   1.492  1.00  0.00     0.002 A 
HETATM   26  C   UNL     1      43.338 -17.036   2.533  1.00  0.00     0.002 A 
ENDBRANCH   2  17
TORSDOF 2
ENDMDL
MODEL 5
REMARK VINA RESULT:      -8.0     14.768     16.660
REMARK  2 active torsions:
REMARK  status: ('A' for Active; 'I' for Inactive)
REMARK    1  A    between atoms: C_9  and  C_10 
REMARK       I    between atoms: C_10  and  N_11 
REMARK    2  A    between atoms: N_11  and  C_12 
ROOT
HETATM    1  C   UNL     1      47.235 -28.308   1.176  1.00  0.00     0.267 C 
HETATM    2  N   UNL     1      46.176 -27.881   0.435  1.00  0.00    -0.156 N 
HETATM    3  O   UNL     1      47.502 -27.725   2.237  1.00  0.00    -0.270 OA
HETATM    4  H   UNL     1      45.688 -27.065   0.788  1.00  0.00     0.187 HD
ENDROOT
BRANCH   1   5
HETATM    5  C   UNL     1      48.132 -29.491   0.754  1.00  0.00     0.282 C 
HETATM    6  N   UNL     1      49.186 -29.703   1.847  1.00  0.00    -0.058 N 
HETATM    7  C   UNL     1      50.048 -30.879   1.597  1.00  0.00     0.272 C 
HETATM    8  H   UNL     1      49.749 -28.843   1.909  1.00  0.00     0.278 HD
HETATM    9  H   UNL     1      48.710 -29.766   2.756  1.00  0.00     0.278 HD
HETATM   10  C   UNL     1      50.593 -30.914   0.199  1.00  0.00    -0.026 A 
HETATM   11  C   UNL     1      50.017 -30.140  -0.828  1.00  0.00    -0.048 A 
HETATM   12  C   UNL     1      51.659 -31.774  -0.104  1.00  0.00     0.009 A 
HETATM   13  C   UNL     1      50.538 -30.218  -2.128  1.00  0.00     0.008 A 
HETATM   14  C   UNL     1      48.886 -29.177  -0.547  1.00  0.00     0.082 C 
HETATM   15  C   UNL     1      51.603 -31.071  -2.412  1.00  0.00     0.001 A 
HETATM   16  C   UNL     1      52.162 -31.849  -1.402  1.00  0.00     0.001 A 
ENDBRANCH   1   5
BRANCH   2  17
HETATM   17  C   UNL     1      45.702 -28.528  -0.673  1.00  0.00     0.708 A 
HETATM   18  N   UNL     1      45.165 -29.723  -0.716  1.00  0.00    -0.062 NA
HETATM   19  C   UNL     1      44.863 -29.947  -2.039  1.00  0.00     0.103 A 
HETATM   20  C   UNL     1      45.220 -28.852  -2.816  1.00  0.00     0.078 A 
HETATM   21  C   UNL     1      44.287 -31.067  -2.652  1.00  0.00     0.034 A 
HETATM   22  N   UNL     1      45.738 -27.954  -1.919  1.00  0.00    -0.188 N 
HETATM   23  C   UNL     1      45.040 -28.802  -4.199  1.00  0.00     0.032 A 
HETATM   24  H   UNL     1      46.100 -27.040  -2.150  1.00  0.00     0.184 HD
HETATM   25  C   UNL     1      44.467 -29.931  -4.797  1.00  0.00     0.002 A 
HETATM   26  C   UNL     1      44.094 -31.044  -4.039  1.00  0.00     0.002 A 
ENDBRANCH   2  17
TORSDOF 2
ENDMDL
MODEL 6
REMARK VINA RESULT:      -8.0      3.312      5.809
REMARK  2 active torsions:
REMARK  status: ('A' for Active; 'I' for Inactive)
REMARK    1  A    between atoms: C_9  and  C_10 
REMARK       I    between atoms: C_10  and  N_11 
REMARK    2  A    between atoms: N_11  and  C_12 
ROOT
HETATM    1  C   UNL     1      41.158 -13.548   3.633  1.00  0.00     0.267 C 
HETATM    2  N   UNL     1      41.226 -12.409   4.374  1.00  0.00    -0.156 N 
HETATM    3  O   UNL     1      40.182 -13.727   2.890  1.00  0.00    -0.270 OA
HETATM    4  H   UNL     1      40.433 -11.783   4.298  1.00  0.00     0.187 HD
ENDROOT
BRANCH   1   5
HETATM    5  C   UNL     1      42.245 -14.644   3.678  1.00  0.00     0.282 C 
HETATM    6  N   UNL     1      42.146 -15.465   2.386  1.00  0.00    -0.058 N 
HETATM    7  C   UNL     1      43.207 -16.490   2.271  1.00  0.00     0.272 C 
HETATM    8  H   UNL     1      41.213 -15.900   2.363  1.00  0.00     0.278 HD
HETATM    9  H   UNL     1      42.151 -14.821   1.585  1.00  0.00     0.278 HD
HETATM   10  C   UNL     1      43.356 -17.315   3.517  1.00  0.00    -0.026 A 
HETATM   11  C   UNL     1      42.825 -16.879   4.748  1.00  0.00    -0.048 A 
HETATM   12  C   UNL     1      44.085 -18.512   3.468  1.00  0.00     0.009 A 
HETATM   13  C   UNL     1      43.007 -17.665   5.896  1.00  0.00     0.008 A 
HETATM   14  C   UNL     1      42.008 -15.611   4.847  1.00  0.00     0.082 C 
HETATM   15  C   UNL     1      43.726 -18.857   5.829  1.00  0.00     0.001 A 
HETATM   16  C   UNL     1      44.265 -19.279   4.618  1.00  0.00     0.001 A 
ENDBRANCH   1   5
BRANCH   2  17
HETATM   17  C   UNL     1      42.314 -12.038   5.117  1.00  0.00     0.708 A 
HETATM   18  N   UNL     1      43.537 -11.855   4.684  1.00  0.00    -0.062 NA
HETATM   19  C   UNL     1      44.276 -11.512   5.793  1.00  0.00     0.103 A 
HETATM   20  C   UNL     1      43.473 -11.478   6.926  1.00  0.00     0.078 A 
HETATM   21  C   UNL     1      45.641 -11.220   5.907  1.00  0.00     0.034 A 
HETATM   22  N   UNL     1      42.223 -11.802   6.466  1.00  0.00    -0.188 N 
HETATM   23  C   UNL     1      43.956 -11.170   8.199  1.00  0.00     0.032 A 
HETATM   24  H   UNL     1      41.391 -11.872   7.034  1.00  0.00     0.184 HD
HETATM   25  C   UNL     1      45.323 -10.885   8.297  1.00  0.00     0.002 A 
HETATM   26  C   UNL     1      46.153 -10.907   7.173  1.00  0.00     0.002 A 
ENDBRANCH   2  17
TORSDOF 2
ENDMDL
MODEL 7
REMARK VINA RESULT:      -7.9     14.648     17.128
REMARK  2 active torsions:
REMARK  status: ('A' for Active; 'I' for Inactive)
REMARK    1  A    between atoms: C_9  and  C_10 
REMARK       I    between atoms: C_10  and  N_11 
REMARK    2  A    between atoms: N_11  and  C_12 
ROOT
HETATM    1  C   UNL     1      44.421 -29.674   2.419  1.00  0.00     0.267 C 
HETATM    2  N   UNL     1      45.145 -30.068   3.501  1.00  0.00    -0.156 N 
HETATM    3  O   UNL     1      43.227 -29.378   2.568  1.00  0.00    -0.270 OA
HETATM    4  H   UNL     1      44.636 -30.136   4.375  1.00  0.00     0.187 HD
ENDROOT
BRANCH   1   5
HETATM    5  C   UNL     1      45.019 -29.581   0.998  1.00  0.00     0.282 C 
HETATM    6  N   UNL     1      45.672 -28.202   0.846  1.00  0.00    -0.058 N 
HETATM    7  C   UNL     1      46.367 -28.033  -0.449  1.00  0.00     0.272 C 
HETATM    8  H   UNL     1      44.936 -27.493   0.962  1.00  0.00     0.278 HD
HETATM    9  H   UNL     1      46.306 -28.049   1.641  1.00  0.00     0.278 HD
HETATM   10  C   UNL     1      45.524 -28.448  -1.620  1.00  0.00    -0.026 A 
HETATM   11  C   UNL     1      44.388 -29.265  -1.447  1.00  0.00    -0.048 A 
HETATM   12  C   UNL     1      45.905 -28.065  -2.914  1.00  0.00     0.009 A 
HETATM   13  C   UNL     1      43.640 -29.653  -2.568  1.00  0.00     0.008 A 
HETATM   14  C   UNL     1      43.921 -29.681  -0.071  1.00  0.00     0.082 C 
HETATM   15  C   UNL     1      44.026 -29.257  -3.847  1.00  0.00     0.001 A 
HETATM   16  C   UNL     1      45.157 -28.465  -4.020  1.00  0.00     0.001 A 
ENDBRANCH   1   5
BRANCH   2  17
HETATM   17  C   UNL     1      46.496 -30.281   3.486  1.00  0.00     0.708 A 
HETATM   18  N   UNL     1      47.437 -29.369   3.458  1.00  0.00    -0.062 NA
HETATM   19  C   UNL     1      48.626 -30.061   3.434  1.00  0.00     0.103 A 
HETATM   20  C   UNL     1      48.396 -31.432   3.458  1.00  0.00     0.078 A 
HETATM   21  C   UNL     1      49.942 -29.584   3.386  1.00  0.00     0.034 A 
HETATM   22  N   UNL     1      47.030 -31.546   3.507  1.00  0.00    -0.188 N 
HETATM   23  C   UNL     1      49.419 -32.381   3.430  1.00  0.00     0.032 A 
HETATM   24  H   UNL     1      46.517 -32.415   3.532  1.00  0.00     0.184 HD
HETATM   25  C   UNL     1      50.728 -31.888   3.378  1.00  0.00     0.002 A 
HETATM   26  C   UNL     1      50.988 -30.515   3.358  1.00  0.00     0.002 A 
ENDBRANCH   2  17
TORSDOF 2
ENDMDL
MODEL 8
REMARK VINA RESULT:      -7.4      2.421      4.683
REMARK  2 active torsions:
REMARK  status: ('A' for Active; 'I' for Inactive)
REMARK    1  A    between atoms: C_9  and  C_10 
REMARK       I    between atoms: C_10  and  N_11 
REMARK    2  A    between atoms: N_11  and  C_12 
ROOT
HETATM    1  C   UNL     1      40.100 -14.705   1.299  1.00  0.00     0.267 C 
HETATM    2  N   UNL     1      39.590 -13.464   1.523  1.00  0.00    -0.156 N 
HETATM    3  O   UNL     1      39.943 -15.229   0.187  1.00  0.00    -0.270 OA
HETATM    4  H   UNL     1      39.064 -13.056   0.759  1.00  0.00     0.187 HD
ENDROOT
BRANCH   1   5
HETATM    5  C   UNL     1      40.870 -15.503   2.374  1.00  0.00     0.282 C 
HETATM    6  N   UNL     1      41.991 -14.609   2.917  1.00  0.00    -0.058 N 
HETATM    7  C   UNL     1      42.741 -15.235   4.028  1.00  0.00     0.272 C 
HETATM    8  H   UNL     1      42.620 -14.385   2.132  1.00  0.00     0.278 HD
HETATM    9  H   UNL     1      41.589 -13.704   3.192  1.00  0.00     0.278 HD
HETATM   10  C   UNL     1      43.166 -16.642   3.723  1.00  0.00    -0.026 A 
HETATM   11  C   UNL     1      42.566 -17.375   2.679  1.00  0.00    -0.048 A 
HETATM   12  C   UNL     1      44.136 -17.259   4.525  1.00  0.00     0.009 A 
HETATM   13  C   UNL     1      42.972 -18.697   2.440  1.00  0.00     0.008 A 
HETATM   14  C   UNL     1      41.536 -16.747   1.768  1.00  0.00     0.082 C 
HETATM   15  C   UNL     1      43.943 -19.293   3.241  1.00  0.00     0.001 A 
HETATM   16  C   UNL     1      44.524 -18.576   4.283  1.00  0.00     0.001 A 
ENDBRANCH   1   5
BRANCH   2  17
HETATM   17  C   UNL     1      39.820 -12.730   2.655  1.00  0.00     0.708 A 
HETATM   18  N   UNL     1      40.761 -11.835   2.834  1.00  0.00    -0.062 NA
HETATM   19  C   UNL     1      40.605 -11.387   4.125  1.00  0.00     0.103 A 
HETATM   20  C   UNL     1      39.533 -12.022   4.740  1.00  0.00     0.078 A 
HETATM   21  C   UNL     1      41.347 -10.439   4.842  1.00  0.00     0.034 A 
HETATM   22  N   UNL     1      39.039 -12.863   3.776  1.00  0.00    -0.188 N 
HETATM   23  C   UNL     1      39.147 -11.772   6.057  1.00  0.00     0.032 A 
HETATM   24  H   UNL     1      38.251 -13.483   3.889  1.00  0.00     0.184 HD
HETATM   25  C   UNL     1      39.901 -10.826   6.762  1.00  0.00     0.002 A 
HETATM   26  C   UNL     1      40.981 -10.168   6.167  1.00  0.00     0.002 A 
ENDBRANCH   2  17
TORSDOF 2
ENDMDL
MODEL 9
REMARK VINA RESULT:      -7.0     11.009     13.871
REMARK  2 active torsions:
REMARK  status: ('A' for Active; 'I' for Inactive)
REMARK    1  A    between atoms: C_9  and  C_10 
REMARK       I    between atoms: C_10  and  N_11 
REMARK    2  A    between atoms: N_11  and  C_12 
ROOT
HETATM    1  C   UNL     1      40.266  -9.912  13.010  1.00  0.00     0.267 C 
HETATM    2  N   UNL     1      40.678 -10.428  11.820  1.00  0.00    -0.156 N 
HETATM    3  O   UNL     1      39.360 -10.483  13.633  1.00  0.00    -0.270 OA
HETATM    4  H   UNL     1      40.174 -11.245  11.493  1.00  0.00     0.187 HD
ENDROOT
BRANCH   1   5
HETATM    5  C   UNL     1      40.876  -8.634  13.626  1.00  0.00     0.282 C 
HETATM    6  N   UNL     1      41.113  -8.892  15.119  1.00  0.00    -0.058 N 
HETATM    7  C   UNL     1      41.788  -7.765  15.799  1.00  0.00     0.272 C 
HETATM    8  H   UNL     1      40.199  -9.086  15.552  1.00  0.00     0.278 HD
HETATM    9  H   UNL     1      41.639  -9.769  15.223  1.00  0.00     0.278 HD
HETATM   10  C   UNL     1      41.153  -6.439  15.495  1.00  0.00    -0.026 A 
HETATM   11  C   UNL     1      40.293  -6.278  14.391  1.00  0.00    -0.048 A 
HETATM   12  C   UNL     1      41.467  -5.327  16.291  1.00  0.00     0.009 A 
HETATM   13  C   UNL     1      39.739  -5.017  14.124  1.00  0.00     0.008 A 
HETATM   14  C   UNL     1      39.902  -7.451  13.521  1.00  0.00     0.082 C 
HETATM   15  C   UNL     1      40.053  -3.923  14.928  1.00  0.00     0.001 A 
HETATM   16  C   UNL     1      40.916  -4.077  16.009  1.00  0.00     0.001 A 
ENDBRANCH   1   5
BRANCH   2  17
HETATM   17  C   UNL     1      41.757  -9.971  11.115  1.00  0.00     0.708 A 
HETATM   18  N   UNL     1      41.786  -8.948  10.297  1.00  0.00    -0.062 NA
HETATM   19  C   UNL     1      43.075  -8.892   9.817  1.00  0.00     0.103 A 
HETATM   20  C   UNL     1      43.848  -9.905  10.371  1.00  0.00     0.078 A 
HETATM   21  C   UNL     1      43.654  -8.004   8.902  1.00  0.00     0.034 A 
HETATM   22  N   UNL     1      42.989 -10.570  11.207  1.00  0.00    -0.188 N 
HETATM   23  C   UNL     1      45.195 -10.098  10.058  1.00  0.00     0.032 A 
HETATM   24  H   UNL     1      43.227 -11.372  11.771  1.00  0.00     0.184 HD
HETATM   25  C   UNL     1      45.758  -9.206   9.138  1.00  0.00     0.002 A 
HETATM   26  C   UNL     1      45.005  -8.175   8.570  1.00  0.00     0.002 A 
ENDBRANCH   2  17
TORSDOF 2
ENDMDL
MODEL 10
REMARK VINA RESULT:      -6.9      1.809      6.694
REMARK  2 active torsions:
REMARK  status: ('A' for Active; 'I' for Inactive)
REMARK    1  A    between atoms: C_9  and  C_10 
REMARK       I    between atoms: C_10  and  N_11 
REMARK    2  A    between atoms: N_11  and  C_12 
ROOT
HETATM    1  C   UNL     1      41.520 -12.871   4.674  1.00  0.00     0.267 C 
HETATM    2  N   UNL     1      42.279 -13.860   5.220  1.00  0.00    -0.156 N 
HETATM    3  O   UNL     1      41.440 -11.781   5.258  1.00  0.00    -0.270 OA
HETATM    4  H   UNL     1      42.707 -13.648   6.114  1.00  0.00     0.187 HD
ENDROOT
BRANCH   1   5
HETATM    5  C   UNL     1      40.742 -13.044   3.351  1.00  0.00     0.282 C 
HETATM    6  N   UNL     1      41.696 -12.727   2.193  1.00  0.00    -0.058 N 
HETATM    7  C   UNL     1      41.085 -12.954   0.864  1.00  0.00     0.272 C 
HETATM    8  H   UNL     1      41.997 -11.748   2.295  1.00  0.00     0.278 HD
HETATM    9  H   UNL     1      42.556 -13.276   2.315  1.00  0.00     0.278 HD
HETATM   10  C   UNL     1      39.727 -12.328   0.734  1.00  0.00    -0.026 A 
HETATM   11  C   UNL     1      38.992 -11.937   1.872  1.00  0.00    -0.048 A 
HETATM   12  C   UNL     1      39.155 -12.181  -0.538  1.00  0.00     0.009 A 
HETATM   13  C   UNL     1      37.715 -11.379   1.711  1.00  0.00     0.008 A 
HETATM   14  C   UNL     1      39.576 -12.049   3.261  1.00  0.00     0.082 C 
HETATM   15  C   UNL     1      37.163 -11.232   0.440  1.00  0.00     0.001 A 
HETATM   16  C   UNL     1      37.881 -11.633  -0.683  1.00  0.00     0.001 A 
ENDBRANCH   1   5
BRANCH   2  17
HETATM   17  C   UNL     1      42.556 -15.048   4.601  1.00  0.00     0.708 A 
HETATM   18  N   UNL     1      42.023 -15.501   3.492  1.00  0.00    -0.062 NA
HETATM   19  C   UNL     1      42.597 -16.733   3.280  1.00  0.00     0.103 A 
HETATM   20  C   UNL     1      43.510 -17.028   4.285  1.00  0.00     0.078 A 
HETATM   21  C   UNL     1      42.382 -17.658   2.250  1.00  0.00     0.034 A 
HETATM   22  N   UNL     1      43.477 -15.931   5.106  1.00  0.00    -0.188 N 
HETATM   23  C   UNL     1      44.237 -18.219   4.334  1.00  0.00     0.032 A 
HETATM   24  H   UNL     1      44.025 -15.814   5.946  1.00  0.00     0.184 HD
HETATM   25  C   UNL     1      44.008 -19.135   3.300  1.00  0.00     0.002 A 
HETATM   26  C   UNL     1      43.099 -18.862   2.275  1.00  0.00     0.002 A 
ENDBRANCH   2  17
TORSDOF 2
ENDMDL
