MODEL 1
REMARK VINA RESULT:      -8.0      0.000      0.000
REMARK  6 active torsions:
REMARK  status: ('A' for Active; 'I' for Inactive)
REMARK    1  A    between atoms: C_2  and  N_3 
REMARK    2  A    between atoms: C_2  and  C_16 
REMARK    3  A    between atoms: N_3  and  C_6 
REMARK    4  A    between atoms: C_16  and  C_17 
REMARK       I    between atoms: C_17  and  N_18 
REMARK    5  A    between atoms: N_18  and  C_19 
REMARK    6  A    between atoms: C_22  and  O_23 
ROOT
HETATM    1  C   UNL     1      42.457 -12.291   5.983  1.00  0.00     0.040 C 
HETATM    2  C   UNL     1      42.128 -13.047   4.700  1.00  0.00     0.191 C 
ENDROOT
BRANCH   2   3
HETATM    3  N   UNL     1      42.767 -14.417   4.739  1.00  0.00    -0.063 N 
HETATM    4  H   UNL     1      43.360 -14.459   3.879  1.00  0.00     0.278 HD
HETATM    5  H   UNL     1      43.425 -14.476   5.524  1.00  0.00     0.278 HD
BRANCH   3   6
HETATM    6  C   UNL     1      41.886 -15.639   4.704  1.00  0.00     0.221 C 
HETATM    7  C   UNL     1      42.597 -16.863   4.196  1.00  0.00    -0.011 A 
HETATM    8  C   UNL     1      43.354 -17.677   5.051  1.00  0.00     0.009 A 
HETATM    9  C   UNL     1      42.511 -17.196   2.829  1.00  0.00     0.011 A 
HETATM   10  C   UNL     1      44.022 -18.792   4.524  1.00  0.00     0.019 A 
HETATM   11  S   UNL     1      43.534 -17.403   6.803  1.00  0.00    -0.129 SA
HETATM   12  C   UNL     1      43.937 -19.106   3.168  1.00  0.00     0.001 A 
HETATM   13  C   UNL     1      43.179 -18.309   2.320  1.00  0.00     0.001 A 
HETATM   14  C   UNL     1      42.314 -16.114   7.179  1.00  0.00     0.082 C 
HETATM   15  C   UNL     1      41.283 -15.875   6.092  1.00  0.00     0.048 C 
ENDBRANCH   3   6
ENDBRANCH   2   3
BRANCH   2  16
HETATM   16  C   UNL     1      42.640 -12.256   3.482  1.00  0.00     0.135 C 
BRANCH  16  17
HETATM   17  C   UNL     1      42.390 -13.007   2.190  1.00  0.00     0.224 C 
HETATM   18  N   UNL     1      41.362 -12.477   1.446  1.00  0.00    -0.327 N 
HETATM   19  H   UNL     1      40.907 -11.639   1.791  1.00  0.00     0.169 HD
HETATM   20  O   UNL     1      43.138 -13.936   1.890  1.00  0.00    -0.273 OA
BRANCH  18  21
HETATM   21  C   UNL     1      40.844 -12.967   0.227  1.00  0.00     0.034 A 
HETATM   22  C   UNL     1      40.148 -14.170   0.096  1.00  0.00     0.032 A 
HETATM   23  C   UNL     1      39.634 -14.561  -1.148  1.00  0.00     0.039 A 
HETATM   24  C   UNL     1      39.809 -13.751  -2.268  1.00  0.00     0.068 A 
HETATM   25  C   UNL     1      40.533 -12.568  -2.150  1.00  0.00     0.039 A 
HETATM   26  C   UNL     1      41.038 -12.171  -0.908  1.00  0.00     0.032 A 
BRANCH  24  27
HETATM   27  O   UNL     1      39.356 -14.042  -3.523  1.00  0.00    -0.356 OA
HETATM   28  C   UNL     1      38.094 -14.702  -3.563  1.00  0.00     0.210 C 
ENDBRANCH  24  27
ENDBRANCH  18  21
ENDBRANCH  16  17
ENDBRANCH   2  16
TORSDOF 6
ENDMDL
MODEL 2
REMARK VINA RESULT:      -7.7      2.919      6.771
REMARK  6 active torsions:
REMARK  status: ('A' for Active; 'I' for Inactive)
REMARK    1  A    between atoms: C_2  and  N_3 
REMARK    2  A    between atoms: C_2  and  C_16 
REMARK    3  A    between atoms: N_3  and  C_6 
REMARK    4  A    between atoms: C_16  and  C_17 
REMARK       I    between atoms: C_17  and  N_18 
REMARK    5  A    between atoms: N_18  and  C_19 
REMARK    6  A    between atoms: C_22  and  O_23 
ROOT
HETATM    1  C   UNL     1      41.524 -14.221   1.353  1.00  0.00     0.040 C 
HETATM    2  C   UNL     1      42.696 -13.543   2.055  1.00  0.00     0.191 C 
ENDROOT
BRANCH   2   3
HETATM    3  N   UNL     1      43.224 -14.444   3.148  1.00  0.00    -0.063 N 
HETATM    4  H   UNL     1      44.044 -14.931   2.720  1.00  0.00     0.278 HD
HETATM    5  H   UNL     1      43.613 -13.881   3.913  1.00  0.00     0.278 HD
BRANCH   3   6
HETATM    6  C   UNL     1      42.333 -15.527   3.700  1.00  0.00     0.221 C 
HETATM    7  C   UNL     1      42.917 -16.905   3.548  1.00  0.00    -0.011 A 
HETATM    8  C   UNL     1      43.808 -17.431   4.494  1.00  0.00     0.009 A 
HETATM    9  C   UNL     1      42.571 -17.683   2.424  1.00  0.00     0.011 A 
HETATM   10  C   UNL     1      44.348 -18.709   4.293  1.00  0.00     0.019 A 
HETATM   11  S   UNL     1      44.317 -16.582   5.977  1.00  0.00    -0.129 SA
HETATM   12  C   UNL     1      44.006 -19.466   3.173  1.00  0.00     0.001 A 
HETATM   13  C   UNL     1      43.115 -18.954   2.239  1.00  0.00     0.001 A 
HETATM   14  C   UNL     1      43.210 -15.149   6.071  1.00  0.00     0.082 C 
HETATM   15  C   UNL     1      41.997 -15.218   5.162  1.00  0.00     0.048 C 
ENDBRANCH   3   6
ENDBRANCH   2   3
BRANCH   2  16
HETATM   16  C   UNL     1      42.240 -12.198   2.650  1.00  0.00     0.135 C 
BRANCH  16  17
HETATM   17  C   UNL     1      43.223 -11.689   3.685  1.00  0.00     0.224 C 
HETATM   18  N   UNL     1      42.679 -11.591   4.945  1.00  0.00    -0.327 N 
HETATM   19  H   UNL     1      41.721 -11.895   5.076  1.00  0.00     0.169 HD
HETATM   20  O   UNL     1      44.387 -11.487   3.348  1.00  0.00    -0.273 OA
BRANCH  18  21
HETATM   21  C   UNL     1      43.306 -11.105   6.114  1.00  0.00     0.034 A 
HETATM   22  C   UNL     1      42.771 -10.115   6.938  1.00  0.00     0.032 A 
HETATM   23  C   UNL     1      43.444  -9.720   8.103  1.00  0.00     0.039 A 
HETATM   24  C   UNL     1      44.654 -10.316   8.453  1.00  0.00     0.068 A 
HETATM   25  C   UNL     1      45.209 -11.279   7.615  1.00  0.00     0.039 A 
HETATM   26  C   UNL     1      44.535 -11.681   6.458  1.00  0.00     0.032 A 
BRANCH  24  27
HETATM   27  O   UNL     1      45.391 -10.000   9.558  1.00  0.00    -0.356 OA
HETATM   28  C   UNL     1      44.630  -9.542  10.672  1.00  0.00     0.210 C 
ENDBRANCH  24  27
ENDBRANCH  18  21
ENDBRANCH  16  17
ENDBRANCH   2  16
TORSDOF 6
ENDMDL
MODEL 3
REMARK VINA RESULT:      -7.6      2.110      3.200
REMARK  6 active torsions:
REMARK  status: ('A' for Active; 'I' for Inactive)
REMARK    1  A    between atoms: C_2  and  N_3 
REMARK    2  A    between atoms: C_2  and  C_16 
REMARK    3  A    between atoms: N_3  and  C_6 
REMARK    4  A    between atoms: C_16  and  C_17 
REMARK       I    between atoms: C_17  and  N_18 
REMARK    5  A    between atoms: N_18  and  C_19 
REMARK    6  A    between atoms: C_22  and  O_23 
ROOT
HETATM    1  C   UNL     1      42.437 -15.693   7.572  1.00  0.00     0.040 C 
HETATM    2  C   UNL     1      41.257 -16.036   6.669  1.00  0.00     0.191 C 
ENDROOT
BRANCH   2   3
HETATM    3  N   UNL     1      41.763 -16.625   5.372  1.00  0.00    -0.063 N 
HETATM    4  H   UNL     1      41.268 -17.542   5.284  1.00  0.00     0.278 HD
HETATM    5  H   UNL     1      41.437 -16.063   4.578  1.00  0.00     0.278 HD
BRANCH   3   6
HETATM    6  C   UNL     1      43.234 -16.926   5.228  1.00  0.00     0.221 C 
HETATM    7  C   UNL     1      43.503 -18.318   4.728  1.00  0.00    -0.011 A 
HETATM    8  C   UNL     1      43.511 -18.614   3.357  1.00  0.00     0.009 A 
HETATM    9  C   UNL     1      43.743 -19.353   5.655  1.00  0.00     0.011 A 
HETATM   10  C   UNL     1      43.739 -19.933   2.940  1.00  0.00     0.019 A 
HETATM   11  S   UNL     1      43.254 -17.412   2.066  1.00  0.00    -0.129 SA
HETATM   12  C   UNL     1      43.967 -20.951   3.867  1.00  0.00     0.001 A 
HETATM   13  C   UNL     1      43.972 -20.660   5.225  1.00  0.00     0.001 A 
HETATM   14  C   UNL     1      43.315 -15.816   2.927  1.00  0.00     0.082 C 
HETATM   15  C   UNL     1      43.886 -15.870   4.332  1.00  0.00     0.048 C 
ENDBRANCH   3   6
ENDBRANCH   2   3
BRANCH   2  16
HETATM   16  C   UNL     1      40.429 -14.767   6.388  1.00  0.00     0.135 C 
BRANCH  16  17
HETATM   17  C   UNL     1      40.771 -14.172   5.037  1.00  0.00     0.224 C 
HETATM   18  N   UNL     1      39.871 -14.511   4.054  1.00  0.00    -0.327 N 
HETATM   19  H   UNL     1      39.067 -15.071   4.316  1.00  0.00     0.169 HD
HETATM   20  O   UNL     1      41.733 -13.413   4.950  1.00  0.00    -0.273 OA
BRANCH  18  21
HETATM   21  C   UNL     1      39.927 -14.168   2.685  1.00  0.00     0.034 A 
HETATM   22  C   UNL     1      39.954 -12.858   2.205  1.00  0.00     0.032 A 
HETATM   23  C   UNL     1      40.049 -12.607   0.829  1.00  0.00     0.039 A 
HETATM   24  C   UNL     1      40.121 -13.665  -0.075  1.00  0.00     0.068 A 
HETATM   25  C   UNL     1      40.059 -14.973   0.396  1.00  0.00     0.039 A 
HETATM   26  C   UNL     1      39.973 -15.225   1.768  1.00  0.00     0.032 A 
BRANCH  24  27
HETATM   27  O   UNL     1      40.208 -13.530  -1.432  1.00  0.00    -0.356 OA
HETATM   28  C   UNL     1      39.494 -14.512  -2.176  1.00  0.00     0.210 C 
ENDBRANCH  24  27
ENDBRANCH  18  21
ENDBRANCH  16  17
ENDBRANCH   2  16
TORSDOF 6
ENDMDL
MODEL 4
REMARK VINA RESULT:      -7.4      2.650      6.313
REMARK  6 active torsions:
REMARK  status: ('A' for Active; 'I' for Inactive)
REMARK    1  A    between atoms: C_2  and  N_3 
REMARK    2  A    between atoms: C_2  and  C_16 
REMARK    3  A    between atoms: N_3  and  C_6 
REMARK    4  A    between atoms: C_16  and  C_17 
REMARK       I    between atoms: C_17  and  N_18 
REMARK    5  A    between atoms: N_18  and  C_19 
REMARK    6  A    between atoms: C_22  and  O_23 
ROOT
HETATM    1  C   UNL     1      39.986 -12.048   0.620  1.00  0.00     0.040 C 
HETATM    2  C   UNL     1      40.221 -13.186   1.607  1.00  0.00     0.191 C 
ENDROOT
BRANCH   2   3
HETATM    3  N   UNL     1      41.254 -12.767   2.629  1.00  0.00    -0.063 N 
HETATM    4  H   UNL     1      41.874 -13.602   2.738  1.00  0.00     0.278 HD
HETATM    5  H   UNL     1      41.855 -12.032   2.241  1.00  0.00     0.278 HD
BRANCH   3   6
HETATM    6  C   UNL     1      40.803 -12.393   4.017  1.00  0.00     0.221 C 
HETATM    7  C   UNL     1      41.384 -13.280   5.084  1.00  0.00    -0.011 A 
HETATM    8  C   UNL     1      42.646 -13.024   5.640  1.00  0.00     0.009 A 
HETATM    9  C   UNL     1      40.651 -14.398   5.530  1.00  0.00     0.011 A 
HETATM   10  C   UNL     1      43.158 -13.896   6.612  1.00  0.00     0.019 A 
HETATM   11  S   UNL     1      43.677 -11.637   5.202  1.00  0.00    -0.129 SA
HETATM   12  C   UNL     1      42.427 -15.005   7.038  1.00  0.00     0.001 A 
HETATM   13  C   UNL     1      41.172 -15.255   6.499  1.00  0.00     0.001 A 
HETATM   14  C   UNL     1      42.598 -10.582   4.197  1.00  0.00     0.082 C 
HETATM   15  C   UNL     1      41.120 -10.917   4.278  1.00  0.00     0.048 C 
ENDBRANCH   3   6
ENDBRANCH   2   3
BRANCH   2  16
HETATM   16  C   UNL     1      40.698 -14.441   0.853  1.00  0.00     0.135 C 
BRANCH  16  17
HETATM   17  C   UNL     1      40.964 -15.590   1.804  1.00  0.00     0.224 C 
HETATM   18  N   UNL     1      42.275 -16.005   1.797  1.00  0.00    -0.327 N 
HETATM   19  H   UNL     1      42.932 -15.499   1.213  1.00  0.00     0.169 HD
HETATM   20  O   UNL     1      40.050 -15.988   2.523  1.00  0.00    -0.273 OA
BRANCH  18  21
HETATM   21  C   UNL     1      42.839 -17.078   2.523  1.00  0.00     0.034 A 
HETATM   22  C   UNL     1      43.135 -18.327   1.975  1.00  0.00     0.032 A 
HETATM   23  C   UNL     1      43.730 -19.324   2.760  1.00  0.00     0.039 A 
HETATM   24  C   UNL     1      44.038 -19.077   4.096  1.00  0.00     0.068 A 
HETATM   25  C   UNL     1      43.714 -17.845   4.656  1.00  0.00     0.039 A 
HETATM   26  C   UNL     1      43.128 -16.846   3.873  1.00  0.00     0.032 A 
BRANCH  24  27
HETATM   27  O   UNL     1      44.611 -19.979   4.947  1.00  0.00    -0.356 OA
HETATM   28  C   UNL     1      43.748 -20.464   5.971  1.00  0.00     0.210 C 
ENDBRANCH  24  27
ENDBRANCH  18  21
ENDBRANCH  16  17
ENDBRANCH   2  16
TORSDOF 6
ENDMDL
MODEL 5
REMARK VINA RESULT:      -7.2      3.089      6.522
REMARK  6 active torsions:
REMARK  status: ('A' for Active; 'I' for Inactive)
REMARK    1  A    between atoms: C_2  and  N_3 
REMARK    2  A    between atoms: C_2  and  C_16 
REMARK    3  A    between atoms: N_3  and  C_6 
REMARK    4  A    between atoms: C_16  and  C_17 
REMARK       I    between atoms: C_17  and  N_18 
REMARK    5  A    between atoms: N_18  and  C_19 
REMARK    6  A    between atoms: C_22  and  O_23 
ROOT
HETATM    1  C   UNL     1      38.688 -11.870   2.327  1.00  0.00     0.040 C 
HETATM    2  C   UNL     1      39.611 -12.962   2.858  1.00  0.00     0.191 C 
ENDROOT
BRANCH   2   3
HETATM    3  N   UNL     1      40.644 -12.351   3.778  1.00  0.00    -0.063 N 
HETATM    4  H   UNL     1      41.564 -12.639   3.375  1.00  0.00     0.278 HD
HETATM    5  H   UNL     1      40.623 -11.328   3.702  1.00  0.00     0.278 HD
BRANCH   3   6
HETATM    6  C   UNL     1      40.670 -12.765   5.227  1.00  0.00     0.221 C 
HETATM    7  C   UNL     1      41.977 -12.452   5.905  1.00  0.00    -0.011 A 
HETATM    8  C   UNL     1      42.226 -11.191   6.465  1.00  0.00     0.009 A 
HETATM    9  C   UNL     1      42.978 -13.443   5.969  1.00  0.00     0.011 A 
HETATM   10  C   UNL     1      43.470 -10.939   7.061  1.00  0.00     0.019 A 
HETATM   11  S   UNL     1      41.053  -9.850   6.488  1.00  0.00    -0.129 SA
HETATM   12  C   UNL     1      44.456 -11.924   7.111  1.00  0.00     0.001 A 
HETATM   13  C   UNL     1      44.209 -13.178   6.567  1.00  0.00     0.001 A 
HETATM   14  C   UNL     1      39.498 -10.610   5.945  1.00  0.00     0.082 C 
HETATM   15  C   UNL     1      39.489 -12.128   5.963  1.00  0.00     0.048 C 
ENDBRANCH   3   6
ENDBRANCH   2   3
BRANCH   2  16
HETATM   16  C   UNL     1      40.303 -13.676   1.682  1.00  0.00     0.135 C 
BRANCH  16  17
HETATM   17  C   UNL     1      41.517 -14.456   2.147  1.00  0.00     0.224 C 
HETATM   18  N   UNL     1      41.229 -15.759   2.477  1.00  0.00    -0.327 N 
HETATM   19  H   UNL     1      40.278 -16.085   2.345  1.00  0.00     0.169 HD
HETATM   20  O   UNL     1      42.618 -13.909   2.120  1.00  0.00    -0.273 OA
BRANCH  18  21
HETATM   21  C   UNL     1      42.117 -16.730   2.990  1.00  0.00     0.034 A 
HETATM   22  C   UNL     1      42.755 -17.699   2.214  1.00  0.00     0.032 A 
HETATM   23  C   UNL     1      43.653 -18.601   2.802  1.00  0.00     0.039 A 
HETATM   24  C   UNL     1      43.921 -18.538   4.167  1.00  0.00     0.068 A 
HETATM   25  C   UNL     1      43.261 -17.596   4.951  1.00  0.00     0.039 A 
HETATM   26  C   UNL     1      42.372 -16.690   4.366  1.00  0.00     0.032 A 
BRANCH  24  27
HETATM   27  O   UNL     1      44.771 -19.371   4.837  1.00  0.00    -0.356 OA
HETATM   28  C   UNL     1      44.210 -20.629   5.201  1.00  0.00     0.210 C 
ENDBRANCH  24  27
ENDBRANCH  18  21
ENDBRANCH  16  17
ENDBRANCH   2  16
TORSDOF 6
ENDMDL
MODEL 6
REMARK VINA RESULT:      -7.0      3.424      7.947
REMARK  6 active torsions:
REMARK  status: ('A' for Active; 'I' for Inactive)
REMARK    1  A    between atoms: C_2  and  N_3 
REMARK    2  A    between atoms: C_2  and  C_16 
REMARK    3  A    between atoms: N_3  and  C_6 
REMARK    4  A    between atoms: C_16  and  C_17 
REMARK       I    between atoms: C_17  and  N_18 
REMARK    5  A    between atoms: N_18  and  C_19 
REMARK    6  A    between atoms: C_22  and  O_23 
ROOT
HETATM    1  C   UNL     1      42.035 -15.808   1.389  1.00  0.00     0.040 C 
HETATM    2  C   UNL     1      40.582 -15.846   1.850  1.00  0.00     0.191 C 
ENDROOT
BRANCH   2   3
HETATM    3  N   UNL     1      39.853 -14.626   1.334  1.00  0.00    -0.063 N 
HETATM    4  H   UNL     1      38.904 -14.974   1.068  1.00  0.00     0.278 HD
HETATM    5  H   UNL     1      39.693 -13.961   2.099  1.00  0.00     0.278 HD
BRANCH   3   6
HETATM    6  C   UNL     1      40.392 -13.906   0.124  1.00  0.00     0.221 C 
HETATM    7  C   UNL     1      39.395 -13.816  -0.999  1.00  0.00    -0.011 A 
HETATM    8  C   UNL     1      38.447 -12.784  -1.054  1.00  0.00     0.009 A 
HETATM    9  C   UNL     1      39.406 -14.794  -2.014  1.00  0.00     0.011 A 
HETATM   10  C   UNL     1      37.521 -12.759  -2.106  1.00  0.00     0.019 A 
HETATM   11  S   UNL     1      38.328 -11.463   0.136  1.00  0.00    -0.129 SA
HETATM   12  C   UNL     1      37.535 -13.738  -3.100  1.00  0.00     0.001 A 
HETATM   13  C   UNL     1      38.479 -14.754  -3.056  1.00  0.00     0.001 A 
HETATM   14  C   UNL     1      39.834 -11.626   1.134  1.00  0.00     0.082 C 
HETATM   15  C   UNL     1      40.902 -12.523   0.536  1.00  0.00     0.048 C 
ENDBRANCH   3   6
ENDBRANCH   2   3
BRANCH   2  16
HETATM   16  C   UNL     1      40.524 -15.888   3.389  1.00  0.00     0.135 C 
BRANCH  16  17
HETATM   17  C   UNL     1      40.936 -14.561   3.994  1.00  0.00     0.224 C 
HETATM   18  N   UNL     1      42.255 -14.532   4.386  1.00  0.00    -0.327 N 
HETATM   19  H   UNL     1      42.824 -15.351   4.203  1.00  0.00     0.169 HD
HETATM   20  O   UNL     1      40.121 -13.642   4.017  1.00  0.00    -0.273 OA
BRANCH  18  21
HETATM   21  C   UNL     1      42.935 -13.474   5.027  1.00  0.00     0.034 A 
HETATM   22  C   UNL     1      43.351 -12.306   4.387  1.00  0.00     0.032 A 
HETATM   23  C   UNL     1      43.988 -11.287   5.111  1.00  0.00     0.039 A 
HETATM   24  C   UNL     1      44.208 -11.429   6.479  1.00  0.00     0.068 A 
HETATM   25  C   UNL     1      43.826 -12.607   7.115  1.00  0.00     0.039 A 
HETATM   26  C   UNL     1      43.183 -13.620   6.397  1.00  0.00     0.032 A 
BRANCH  24  27
HETATM   27  O   UNL     1      44.823 -10.503   7.273  1.00  0.00    -0.356 OA
HETATM   28  C   UNL     1      46.205 -10.751   7.517  1.00  0.00     0.210 C 
ENDBRANCH  24  27
ENDBRANCH  18  21
ENDBRANCH  16  17
ENDBRANCH   2  16
TORSDOF 6
ENDMDL
MODEL 7
REMARK VINA RESULT:      -6.9     15.013     17.921
REMARK  6 active torsions:
REMARK  status: ('A' for Active; 'I' for Inactive)
REMARK    1  A    between atoms: C_2  and  N_3 
REMARK    2  A    between atoms: C_2  and  C_16 
REMARK    3  A    between atoms: N_3  and  C_6 
REMARK    4  A    between atoms: C_16  and  C_17 
REMARK       I    between atoms: C_17  and  N_18 
REMARK    5  A    between atoms: N_18  and  C_19 
REMARK    6  A    between atoms: C_22  and  O_23 
ROOT
HETATM    1  C   UNL     1      47.340 -28.896   2.216  1.00  0.00     0.040 C 
HETATM    2  C   UNL     1      46.639 -28.377   0.965  1.00  0.00     0.191 C 
ENDROOT
BRANCH   2   3
HETATM    3  N   UNL     1      45.851 -29.496   0.322  1.00  0.00    -0.063 N 
HETATM    4  H   UNL     1      46.468 -29.851  -0.443  1.00  0.00     0.278 HD
HETATM    5  H   UNL     1      45.754 -30.280   0.977  1.00  0.00     0.278 HD
BRANCH   3   6
HETATM    6  C   UNL     1      44.522 -29.184  -0.317  1.00  0.00     0.221 C 
HETATM    7  C   UNL     1      44.535 -29.354  -1.812  1.00  0.00    -0.011 A 
HETATM    8  C   UNL     1      44.305 -30.602  -2.409  1.00  0.00     0.009 A 
HETATM    9  C   UNL     1      44.793 -28.237  -2.633  1.00  0.00     0.011 A 
HETATM   10  C   UNL     1      44.355 -30.714  -3.806  1.00  0.00     0.019 A 
HETATM   11  S   UNL     1      43.938 -32.095  -1.508  1.00  0.00    -0.129 SA
HETATM   12  C   UNL     1      44.621 -29.605  -4.608  1.00  0.00     0.001 A 
HETATM   13  C   UNL     1      44.837 -28.365  -4.021  1.00  0.00     0.001 A 
HETATM   14  C   UNL     1      43.640 -31.529   0.189  1.00  0.00     0.082 C 
HETATM   15  C   UNL     1      43.428 -30.033   0.335  1.00  0.00     0.048 C 
ENDBRANCH   3   6
ENDBRANCH   2   3
BRANCH   2  16
HETATM   16  C   UNL     1      47.681 -27.825  -0.026  1.00  0.00     0.135 C 
BRANCH  16  17
HETATM   17  C   UNL     1      48.355 -28.940  -0.799  1.00  0.00     0.224 C 
HETATM   18  N   UNL     1      49.582 -29.290  -0.284  1.00  0.00    -0.327 N 
HETATM   19  H   UNL     1      49.897 -28.822   0.558  1.00  0.00     0.169 HD
HETATM   20  O   UNL     1      47.749 -29.466  -1.729  1.00  0.00    -0.273 OA
BRANCH  18  21
HETATM   21  C   UNL     1      50.484 -30.249  -0.795  1.00  0.00     0.034 A 
HETATM   22  C   UNL     1      50.838 -30.355  -2.141  1.00  0.00     0.032 A 
HETATM   23  C   UNL     1      51.773 -31.314  -2.557  1.00  0.00     0.039 A 
HETATM   24  C   UNL     1      52.362 -32.169  -1.628  1.00  0.00     0.068 A 
HETATM   25  C   UNL     1      51.986 -32.091  -0.291  1.00  0.00     0.039 A 
HETATM   26  C   UNL     1      51.061 -31.130   0.127  1.00  0.00     0.032 A 
BRANCH  24  27
HETATM   27  O   UNL     1      53.276 -33.139  -1.929  1.00  0.00    -0.356 OA
HETATM   28  C   UNL     1      54.441 -33.136  -1.108  1.00  0.00     0.210 C 
ENDBRANCH  24  27
ENDBRANCH  18  21
ENDBRANCH  16  17
ENDBRANCH   2  16
TORSDOF 6
ENDMDL
MODEL 8
REMARK VINA RESULT:      -6.8      3.468      8.082
REMARK  6 active torsions:
REMARK  status: ('A' for Active; 'I' for Inactive)
REMARK    1  A    between atoms: C_2  and  N_3 
REMARK    2  A    between atoms: C_2  and  C_16 
REMARK    3  A    between atoms: N_3  and  C_6 
REMARK    4  A    between atoms: C_16  and  C_17 
REMARK       I    between atoms: C_17  and  N_18 
REMARK    5  A    between atoms: N_18  and  C_19 
REMARK    6  A    between atoms: C_22  and  O_23 
ROOT
HETATM    1  C   UNL     1      42.024 -11.526   2.196  1.00  0.00     0.040 C 
HETATM    2  C   UNL     1      41.607 -12.915   1.726  1.00  0.00     0.191 C 
ENDROOT
BRANCH   2   3
HETATM    3  N   UNL     1      41.037 -12.828   0.328  1.00  0.00    -0.063 N 
HETATM    4  H   UNL     1      41.069 -11.811   0.089  1.00  0.00     0.278 HD
HETATM    5  H   UNL     1      41.670 -13.284  -0.339  1.00  0.00     0.278 HD
BRANCH   3   6
HETATM    6  C   UNL     1      39.617 -13.273   0.086  1.00  0.00     0.221 C 
HETATM    7  C   UNL     1      38.685 -12.130  -0.209  1.00  0.00    -0.011 A 
HETATM    8  C   UNL     1      38.538 -11.623  -1.508  1.00  0.00     0.009 A 
HETATM    9  C   UNL     1      37.949 -11.548   0.843  1.00  0.00     0.011 A 
HETATM   10  C   UNL     1      37.677 -10.538  -1.728  1.00  0.00     0.019 A 
HETATM   11  S   UNL     1      39.375 -12.270  -2.942  1.00  0.00    -0.129 SA
HETATM   12  C   UNL     1      36.961  -9.963  -0.678  1.00  0.00     0.001 A 
HETATM   13  C   UNL     1      37.096 -10.470   0.608  1.00  0.00     0.001 A 
HETATM   14  C   UNL     1      40.122 -13.818  -2.360  1.00  0.00     0.082 C 
HETATM   15  C   UNL     1      39.593 -14.321  -1.030  1.00  0.00     0.048 C 
ENDBRANCH   3   6
ENDBRANCH   2   3
BRANCH   2  16
HETATM   16  C   UNL     1      40.558 -13.500   2.691  1.00  0.00     0.135 C 
BRANCH  16  17
HETATM   17  C   UNL     1      40.854 -14.950   3.016  1.00  0.00     0.224 C 
HETATM   18  N   UNL     1      42.183 -15.185   3.280  1.00  0.00    -0.327 N 
HETATM   19  H   UNL     1      42.817 -14.393   3.277  1.00  0.00     0.169 HD
HETATM   20  O   UNL     1      39.919 -15.743   3.088  1.00  0.00    -0.273 OA
BRANCH  18  21
HETATM   21  C   UNL     1      42.795 -16.426   3.564  1.00  0.00     0.034 A 
HETATM   22  C   UNL     1      43.203 -16.827   4.837  1.00  0.00     0.032 A 
HETATM   23  C   UNL     1      43.767 -18.095   5.035  1.00  0.00     0.039 A 
HETATM   24  C   UNL     1      43.924 -18.970   3.963  1.00  0.00     0.068 A 
HETATM   25  C   UNL     1      43.551 -18.561   2.686  1.00  0.00     0.039 A 
HETATM   26  C   UNL     1      42.980 -17.301   2.487  1.00  0.00     0.032 A 
BRANCH  24  27
HETATM   27  O   UNL     1      44.467 -20.221   4.047  1.00  0.00    -0.356 OA
HETATM   28  C   UNL     1      44.328 -20.847   5.319  1.00  0.00     0.210 C 
ENDBRANCH  24  27
ENDBRANCH  18  21
ENDBRANCH  16  17
ENDBRANCH   2  16
TORSDOF 6
ENDMDL
MODEL 9
REMARK VINA RESULT:      -6.7      1.648      2.156
REMARK  6 active torsions:
REMARK  status: ('A' for Active; 'I' for Inactive)
REMARK    1  A    between atoms: C_2  and  N_3 
REMARK    2  A    between atoms: C_2  and  C_16 
REMARK    3  A    between atoms: N_3  and  C_6 
REMARK    4  A    between atoms: C_16  and  C_17 
REMARK       I    between atoms: C_17  and  N_18 
REMARK    5  A    between atoms: N_18  and  C_19 
REMARK    6  A    between atoms: C_22  and  O_23 
ROOT
HETATM    1  C   UNL     1      43.914 -12.232   7.108  1.00  0.00     0.040 C 
HETATM    2  C   UNL     1      42.740 -12.706   6.258  1.00  0.00     0.191 C 
ENDROOT
BRANCH   2   3
HETATM    3  N   UNL     1      43.120 -13.974   5.527  1.00  0.00    -0.063 N 
HETATM    4  H   UNL     1      43.114 -13.711   4.516  1.00  0.00     0.278 HD
HETATM    5  H   UNL     1      44.093 -14.223   5.737  1.00  0.00     0.278 HD
BRANCH   3   6
HETATM    6  C   UNL     1      42.233 -15.186   5.653  1.00  0.00     0.221 C 
HETATM    7  C   UNL     1      42.282 -16.078   4.443  1.00  0.00    -0.011 A 
HETATM    8  C   UNL     1      43.271 -17.062   4.299  1.00  0.00     0.009 A 
HETATM    9  C   UNL     1      41.320 -15.918   3.424  1.00  0.00     0.011 A 
HETATM   10  C   UNL     1      43.292 -17.850   3.139  1.00  0.00     0.019 A 
HETATM   11  S   UNL     1      44.534 -17.404   5.510  1.00  0.00    -0.129 SA
HETATM   12  C   UNL     1      42.341 -17.676   2.134  1.00  0.00     0.001 A 
HETATM   13  C   UNL     1      41.353 -16.711   2.278  1.00  0.00     0.001 A 
HETATM   14  C   UNL     1      44.021 -16.455   6.968  1.00  0.00     0.082 C 
HETATM   15  C   UNL     1      42.590 -15.951   6.930  1.00  0.00     0.048 C 
ENDBRANCH   3   6
ENDBRANCH   2   3
BRANCH   2  16
HETATM   16  C   UNL     1      42.349 -11.609   5.250  1.00  0.00     0.135 C 
BRANCH  16  17
HETATM   17  C   UNL     1      41.252 -12.080   4.318  1.00  0.00     0.224 C 
HETATM   18  N   UNL     1      41.579 -11.949   2.988  1.00  0.00    -0.327 N 
HETATM   19  H   UNL     1      42.504 -11.604   2.756  1.00  0.00     0.169 HD
HETATM   20  O   UNL     1      40.240 -12.584   4.800  1.00  0.00    -0.273 OA
BRANCH  18  21
HETATM   21  C   UNL     1      40.765 -12.244   1.872  1.00  0.00     0.034 A 
HETATM   22  C   UNL     1      39.560 -11.600   1.586  1.00  0.00     0.032 A 
HETATM   23  C   UNL     1      38.834 -11.930   0.433  1.00  0.00     0.039 A 
HETATM   24  C   UNL     1      39.310 -12.903  -0.443  1.00  0.00     0.068 A 
HETATM   25  C   UNL     1      40.493 -13.572  -0.145  1.00  0.00     0.039 A 
HETATM   26  C   UNL     1      41.223 -13.239   1.000  1.00  0.00     0.032 A 
BRANCH  24  27
HETATM   27  O   UNL     1      38.679 -13.302  -1.586  1.00  0.00    -0.356 OA
HETATM   28  C   UNL     1      38.836 -12.421  -2.695  1.00  0.00     0.210 C 
ENDBRANCH  24  27
ENDBRANCH  18  21
ENDBRANCH  16  17
ENDBRANCH   2  16
TORSDOF 6
ENDMDL
MODEL 10
REMARK VINA RESULT:      -6.7      1.853      2.498
REMARK  6 active torsions:
REMARK  status: ('A' for Active; 'I' for Inactive)
REMARK    1  A    between atoms: C_2  and  N_3 
REMARK    2  A    between atoms: C_2  and  C_16 
REMARK    3  A    between atoms: N_3  and  C_6 
REMARK    4  A    between atoms: C_16  and  C_17 
REMARK       I    between atoms: C_17  and  N_18 
REMARK    5  A    between atoms: N_18  and  C_19 
REMARK    6  A    between atoms: C_22  and  O_23 
ROOT
HETATM    1  C   UNL     1      41.252 -11.968   4.121  1.00  0.00     0.040 C 
HETATM    2  C   UNL     1      40.545 -13.317   4.195  1.00  0.00     0.191 C 
ENDROOT
BRANCH   2   3
HETATM    3  N   UNL     1      41.567 -14.430   4.136  1.00  0.00    -0.063 N 
HETATM    4  H   UNL     1      42.002 -14.343   3.190  1.00  0.00     0.278 HD
HETATM    5  H   UNL     1      42.326 -14.247   4.801  1.00  0.00     0.278 HD
BRANCH   3   6
HETATM    6  C   UNL     1      41.102 -15.859   4.256  1.00  0.00     0.221 C 
HETATM    7  C   UNL     1      42.172 -16.857   3.906  1.00  0.00    -0.011 A 
HETATM    8  C   UNL     1      43.108 -17.290   4.856  1.00  0.00     0.009 A 
HETATM    9  C   UNL     1      42.244 -17.362   2.591  1.00  0.00     0.011 A 
HETATM   10  C   UNL     1      44.104 -18.200   4.474  1.00  0.00     0.019 A 
HETATM   11  S   UNL     1      43.128 -16.766   6.560  1.00  0.00    -0.129 SA
HETATM   12  C   UNL     1      44.170 -18.686   3.168  1.00  0.00     0.001 A 
HETATM   13  C   UNL     1      43.238 -18.269   2.227  1.00  0.00     0.001 A 
HETATM   14  C   UNL     1      41.560 -15.879   6.771  1.00  0.00     0.082 C 
HETATM   15  C   UNL     1      40.547 -16.100   5.663  1.00  0.00     0.048 C 
ENDBRANCH   3   6
ENDBRANCH   2   3
BRANCH   2  16
HETATM   16  C   UNL     1      39.549 -13.448   3.028  1.00  0.00     0.135 C 
BRANCH  16  17
HETATM   17  C   UNL     1      40.212 -13.150   1.698  1.00  0.00     0.224 C 
HETATM   18  N   UNL     1      39.763 -11.986   1.119  1.00  0.00    -0.327 N 
HETATM   19  H   UNL     1      39.087 -11.429   1.631  1.00  0.00     0.169 HD
HETATM   20  O   UNL     1      41.105 -13.895   1.302  1.00  0.00    -0.273 OA
BRANCH  18  21
HETATM   21  C   UNL     1      40.136 -11.452  -0.134  1.00  0.00     0.034 A 
HETATM   22  C   UNL     1      41.176 -10.540  -0.321  1.00  0.00     0.032 A 
HETATM   23  C   UNL     1      41.504 -10.091  -1.608  1.00  0.00     0.039 A 
HETATM   24  C   UNL     1      40.797 -10.554  -2.716  1.00  0.00     0.068 A 
HETATM   25  C   UNL     1      39.737 -11.437  -2.531  1.00  0.00     0.039 A 
HETATM   26  C   UNL     1      39.414 -11.893  -1.250  1.00  0.00     0.032 A 
BRANCH  24  27
HETATM   27  O   UNL     1      41.032 -10.176  -4.007  1.00  0.00    -0.356 OA
HETATM   28  C   UNL     1      40.856  -8.785  -4.262  1.00  0.00     0.210 C 
ENDBRANCH  24  27
ENDBRANCH  18  21
ENDBRANCH  16  17
ENDBRANCH   2  16
TORSDOF 6
ENDMDL
