MODEL 1
REMARK VINA RESULT:      -8.0      0.000      0.000
REMARK  7 active torsions:
REMARK  status: ('A' for Active; 'I' for Inactive)
REMARK    1  A    between atoms: C_7  and  C_8 
REMARK    2  A    between atoms: C_8  and  N_9 
REMARK       I    between atoms: N_9  and  C_10 
REMARK       I    between atoms: C_10  and  N_11 
REMARK    3  A    between atoms: N_11  and  C_12 
REMARK    4  A    between atoms: C_12  and  C_13 
REMARK    5  A    between atoms: C_13  and  C_14 
REMARK    6  A    between atoms: C_14  and  O_15 
REMARK    7  A    between atoms: C_14  and  C_16 
ROOT
HETATM    1  N   UNL     1      43.185 -14.602   7.470  1.00  0.00    -0.337 N 
HETATM    2  C   UNL     1      43.374 -13.523   6.645  1.00  0.00     0.316 C 
HETATM    3  N   UNL     1      43.982 -12.487   7.285  1.00  0.00    -0.339 N 
HETATM    4  O   UNL     1      43.048 -13.524   5.462  1.00  0.00    -0.247 OA
HETATM    5  H   UNL     1      43.335 -14.407   8.450  1.00  0.00     0.164 HD
HETATM    6  H   UNL     1      44.057 -12.512   8.299  1.00  0.00     0.164 HD
ENDROOT
BRANCH   1   7
HETATM    7  C   UNL     1      42.196 -15.617   7.163  1.00  0.00     0.183 C 
BRANCH   7   8
HETATM    8  C   UNL     1      42.647 -16.559   6.108  1.00  0.00     0.044 A 
HETATM    9  N   UNL     1      42.482 -16.324   4.751  1.00  0.00    -0.343 N 
HETATM   10  C   UNL     1      42.926 -17.342   4.030  1.00  0.00     0.112 A 
HETATM   11  H   UNL     1      42.057 -15.461   4.388  1.00  0.00     0.167 HD
HETATM   12  N   UNL     1      43.369 -18.286   4.886  1.00  0.00    -0.311 N 
HETATM   13  C   UNL     1      42.966 -17.542   2.564  1.00  0.00     0.049 A 
HETATM   14  C   UNL     1      43.868 -19.514   4.456  1.00  0.00     0.014 A 
HETATM   15  C   UNL     1      43.220 -17.811   6.182  1.00  0.00     0.125 A 
HETATM   16  C   UNL     1      44.320 -20.552   5.440  1.00  0.00     0.068 C 
HETATM   17  C   UNL     1      43.905 -19.709   3.119  1.00  0.00     0.025 A 
HETATM   18  C   UNL     1      43.459 -18.719   2.143  1.00  0.00     0.006 A 
ENDBRANCH   7   8
ENDBRANCH   1   7
BRANCH   3  19
HETATM   19  C   UNL     1      44.103 -11.148   6.720  1.00  0.00     0.085 C 
HETATM   20  C   UNL     1      42.732 -10.496   6.544  1.00  0.00     0.032 C 
BRANCH  19  21
HETATM   21  C   UNL     1      45.082 -10.293   7.553  1.00  0.00     0.063 C 
BRANCH  21  22
HETATM   22  C   UNL     1      44.502  -9.101   8.331  1.00  0.00     0.177 C 
BRANCH  22  23
HETATM   23  O   UNL     1      45.448  -8.020   8.372  1.00  0.00    -0.389 OA
HETATM   24  H   UNL     1      45.286  -7.515   7.550  1.00  0.00     0.210 HD
ENDBRANCH  22  23
BRANCH  22  25
HETATM   25  C   UNL     1      44.082  -9.417   9.729  1.00  0.00     0.081 A 
HETATM   26  O   UNL     1      44.078 -10.737  10.090  1.00  0.00    -0.324 OA
HETATM   27  C   UNL     1      43.698 -10.793  11.392  1.00  0.00     0.142 A 
HETATM   28  C   UNL     1      43.472  -9.529  11.882  1.00  0.00     0.027 A 
HETATM   29  C   UNL     1      43.727  -8.638  10.812  1.00  0.00     0.037 A 
ENDBRANCH  22  25
ENDBRANCH  21  22
ENDBRANCH  19  21
ENDBRANCH   3  19
TORSDOF 7
ENDMDL
MODEL 2
REMARK VINA RESULT:      -8.0      1.891      3.430
REMARK  7 active torsions:
REMARK  status: ('A' for Active; 'I' for Inactive)
REMARK    1  A    between atoms: C_7  and  C_8 
REMARK    2  A    between atoms: C_8  and  N_9 
REMARK       I    between atoms: N_9  and  C_10 
REMARK       I    between atoms: C_10  and  N_11 
REMARK    3  A    between atoms: N_11  and  C_12 
REMARK    4  A    between atoms: C_12  and  C_13 
REMARK    5  A    between atoms: C_13  and  C_14 
REMARK    6  A    between atoms: C_14  and  O_15 
REMARK    7  A    between atoms: C_14  and  C_16 
ROOT
HETATM    1  N   UNL     1      42.821 -11.813   7.008  1.00  0.00    -0.337 N 
HETATM    2  C   UNL     1      44.014 -11.518   7.618  1.00  0.00     0.316 C 
HETATM    3  N   UNL     1      43.840 -10.856   8.794  1.00  0.00    -0.339 N 
HETATM    4  O   UNL     1      45.100 -11.846   7.150  1.00  0.00    -0.247 OA
HETATM    5  H   UNL     1      42.023 -11.336   7.405  1.00  0.00     0.164 HD
HETATM    6  H   UNL     1      42.922 -10.477   9.014  1.00  0.00     0.164 HD
ENDROOT
BRANCH   1   7
HETATM    7  C   UNL     1      42.755 -12.100   5.589  1.00  0.00     0.183 C 
BRANCH   7   8
HETATM    8  C   UNL     1      42.949 -13.540   5.285  1.00  0.00     0.044 A 
HETATM    9  N   UNL     1      43.367 -14.472   6.224  1.00  0.00    -0.343 N 
HETATM   10  C   UNL     1      43.508 -15.671   5.681  1.00  0.00     0.112 A 
HETATM   11  H   UNL     1      43.543 -14.224   7.206  1.00  0.00     0.167 HD
HETATM   12  N   UNL     1      43.216 -15.561   4.369  1.00  0.00    -0.311 N 
HETATM   13  C   UNL     1      43.920 -16.960   6.282  1.00  0.00     0.049 A 
HETATM   14  C   UNL     1      43.306 -16.638   3.488  1.00  0.00     0.014 A 
HETATM   15  C   UNL     1      42.851 -14.248   4.105  1.00  0.00     0.125 A 
HETATM   16  C   UNL     1      43.007 -16.470   2.028  1.00  0.00     0.068 C 
HETATM   17  C   UNL     1      43.686 -17.819   4.025  1.00  0.00     0.025 A 
HETATM   18  C   UNL     1      43.995 -18.004   5.439  1.00  0.00     0.006 A 
ENDBRANCH   7   8
ENDBRANCH   1   7
BRANCH   3  19
HETATM   19  C   UNL     1      44.927 -10.227   9.536  1.00  0.00     0.085 C 
HETATM   20  C   UNL     1      45.757  -9.315   8.633  1.00  0.00     0.032 C 
BRANCH  19  21
HETATM   21  C   UNL     1      44.387  -9.514  10.794  1.00  0.00     0.063 C 
BRANCH  21  22
HETATM   22  C   UNL     1      43.572 -10.352  11.793  1.00  0.00     0.177 C 
BRANCH  22  23
HETATM   23  O   UNL     1      43.745 -11.754  11.529  1.00  0.00    -0.389 OA
HETATM   24  H   UNL     1      42.966 -12.182  11.936  1.00  0.00     0.210 HD
ENDBRANCH  22  23
BRANCH  22  25
HETATM   25  C   UNL     1      42.110 -10.049  11.809  1.00  0.00     0.081 A 
HETATM   26  O   UNL     1      41.530  -9.733  10.611  1.00  0.00    -0.324 OA
HETATM   27  C   UNL     1      40.209  -9.526  10.848  1.00  0.00     0.142 A 
HETATM   28  C   UNL     1      39.924  -9.719  12.178  1.00  0.00     0.027 A 
HETATM   29  C   UNL     1      41.149 -10.065  12.800  1.00  0.00     0.037 A 
ENDBRANCH  22  25
ENDBRANCH  21  22
ENDBRANCH  19  21
ENDBRANCH   3  19
TORSDOF 7
ENDMDL
MODEL 3
REMARK VINA RESULT:      -7.8      1.223      2.010
REMARK  7 active torsions:
REMARK  status: ('A' for Active; 'I' for Inactive)
REMARK    1  A    between atoms: C_7  and  C_8 
REMARK    2  A    between atoms: C_8  and  N_9 
REMARK       I    between atoms: N_9  and  C_10 
REMARK       I    between atoms: C_10  and  N_11 
REMARK    3  A    between atoms: N_11  and  C_12 
REMARK    4  A    between atoms: C_12  and  C_13 
REMARK    5  A    between atoms: C_13  and  C_14 
REMARK    6  A    between atoms: C_14  and  O_15 
REMARK    7  A    between atoms: C_14  and  C_16 
ROOT
HETATM    1  N   UNL     1      42.821 -14.130   7.340  1.00  0.00    -0.337 N 
HETATM    2  C   UNL     1      43.444 -12.935   7.083  1.00  0.00     0.316 C 
HETATM    3  N   UNL     1      42.568 -11.978   6.672  1.00  0.00    -0.339 N 
HETATM    4  O   UNL     1      44.649 -12.767   7.236  1.00  0.00    -0.247 OA
HETATM    5  H   UNL     1      41.868 -14.182   7.008  1.00  0.00     0.164 HD
HETATM    6  H   UNL     1      41.625 -12.254   6.410  1.00  0.00     0.164 HD
ENDROOT
BRANCH   1   7
HETATM    7  C   UNL     1      43.563 -15.375   7.355  1.00  0.00     0.183 C 
BRANCH   7   8
HETATM    8  C   UNL     1      43.381 -16.167   6.113  1.00  0.00     0.044 A 
HETATM    9  N   UNL     1      44.139 -17.288   5.802  1.00  0.00    -0.343 N 
HETATM   10  C   UNL     1      43.808 -17.777   4.617  1.00  0.00     0.112 A 
HETATM   11  H   UNL     1      44.862 -17.657   6.432  1.00  0.00     0.167 HD
HETATM   12  N   UNL     1      42.848 -16.982   4.101  1.00  0.00    -0.311 N 
HETATM   13  C   UNL     1      44.329 -18.948   3.877  1.00  0.00     0.049 A 
HETATM   14  C   UNL     1      42.301 -17.191   2.836  1.00  0.00     0.014 A 
HETATM   15  C   UNL     1      42.556 -15.986   5.022  1.00  0.00     0.125 A 
HETATM   16  C   UNL     1      41.258 -16.266   2.282  1.00  0.00     0.068 C 
HETATM   17  C   UNL     1      42.773 -18.256   2.150  1.00  0.00     0.025 A 
HETATM   18  C   UNL     1      43.795 -19.162   2.662  1.00  0.00     0.006 A 
ENDBRANCH   7   8
ENDBRANCH   1   7
BRANCH   3  19
HETATM   19  C   UNL     1      42.978 -10.691   6.121  1.00  0.00     0.085 C 
HETATM   20  C   UNL     1      42.231 -10.383   4.824  1.00  0.00     0.032 C 
BRANCH  19  21
HETATM   21  C   UNL     1      42.844  -9.577   7.182  1.00  0.00     0.063 C 
BRANCH  21  22
HETATM   22  C   UNL     1      44.064  -9.294   8.074  1.00  0.00     0.177 C 
BRANCH  22  23
HETATM   23  O   UNL     1      45.191 -10.077   7.646  1.00  0.00    -0.389 OA
HETATM   24  H   UNL     1      44.804 -10.918   7.328  1.00  0.00     0.210 HD
ENDBRANCH  22  23
BRANCH  22  25
HETATM   25  C   UNL     1      43.839  -9.542   9.529  1.00  0.00     0.081 A 
HETATM   26  O   UNL     1      43.943 -10.836   9.960  1.00  0.00    -0.324 OA
HETATM   27  C   UNL     1      43.733 -10.829  11.301  1.00  0.00     0.142 A 
HETATM   28  C   UNL     1      43.511  -9.548  11.746  1.00  0.00     0.027 A 
HETATM   29  C   UNL     1      43.587  -8.713  10.604  1.00  0.00     0.037 A 
ENDBRANCH  22  25
ENDBRANCH  21  22
ENDBRANCH  19  21
ENDBRANCH   3  19
TORSDOF 7
ENDMDL
MODEL 4
REMARK VINA RESULT:      -7.7      1.851      2.859
REMARK  7 active torsions:
REMARK  status: ('A' for Active; 'I' for Inactive)
REMARK    1  A    between atoms: C_7  and  C_8 
REMARK    2  A    between atoms: C_8  and  N_9 
REMARK       I    between atoms: N_9  and  C_10 
REMARK       I    between atoms: C_10  and  N_11 
REMARK    3  A    between atoms: N_11  and  C_12 
REMARK    4  A    between atoms: C_12  and  C_13 
REMARK    5  A    between atoms: C_13  and  C_14 
REMARK    6  A    between atoms: C_14  and  O_15 
REMARK    7  A    between atoms: C_14  and  C_16 
ROOT
HETATM    1  N   UNL     1      42.909 -11.866   6.734  1.00  0.00    -0.337 N 
HETATM    2  C   UNL     1      44.087 -11.226   7.026  1.00  0.00     0.316 C 
HETATM    3  N   UNL     1      44.114 -10.757   8.303  1.00  0.00    -0.339 N 
HETATM    4  O   UNL     1      45.005 -11.122   6.219  1.00  0.00    -0.247 OA
HETATM    5  H   UNL     1      42.180 -11.726   7.420  1.00  0.00     0.164 HD
HETATM    6  H   UNL     1      43.249 -10.736   8.838  1.00  0.00     0.164 HD
ENDROOT
BRANCH   1   7
HETATM    7  C   UNL     1      42.475 -12.049   5.364  1.00  0.00     0.183 C 
BRANCH   7   8
HETATM    8  C   UNL     1      42.773 -13.405   4.842  1.00  0.00     0.044 A 
HETATM    9  N   UNL     1      42.744 -13.730   3.493  1.00  0.00    -0.343 N 
HETATM   10  C   UNL     1      42.999 -15.016   3.303  1.00  0.00     0.112 A 
HETATM   11  H   UNL     1      42.537 -13.037   2.763  1.00  0.00     0.167 HD
HETATM   12  N   UNL     1      43.177 -15.580   4.516  1.00  0.00    -0.311 N 
HETATM   13  C   UNL     1      43.082 -15.809   2.056  1.00  0.00     0.049 A 
HETATM   14  C   UNL     1      43.423 -16.942   4.681  1.00  0.00     0.014 A 
HETATM   15  C   UNL     1      43.057 -14.593   5.484  1.00  0.00     0.125 A 
HETATM   16  C   UNL     1      43.582 -17.539   6.047  1.00  0.00     0.068 C 
HETATM   17  C   UNL     1      43.497 -17.677   3.548  1.00  0.00     0.025 A 
HETATM   18  C   UNL     1      43.333 -17.121   2.209  1.00  0.00     0.006 A 
ENDBRANCH   7   8
ENDBRANCH   1   7
BRANCH   3  19
HETATM   19  C   UNL     1      45.139  -9.851   8.810  1.00  0.00     0.085 C 
HETATM   20  C   UNL     1      44.759  -8.392   8.559  1.00  0.00     0.032 C 
BRANCH  19  21
HETATM   21  C   UNL     1      45.449 -10.154  10.291  1.00  0.00     0.063 C 
BRANCH  21  22
HETATM   22  C   UNL     1      44.263 -10.468  11.217  1.00  0.00     0.177 C 
BRANCH  22  23
HETATM   23  O   UNL     1      43.609 -11.678  10.801  1.00  0.00    -0.389 OA
HETATM   24  H   UNL     1      44.253 -12.120  10.211  1.00  0.00     0.210 HD
ENDBRANCH  22  23
BRANCH  22  25
HETATM   25  C   UNL     1      43.242  -9.383  11.307  1.00  0.00     0.081 A 
HETATM   26  O   UNL     1      42.096  -9.549  10.577  1.00  0.00    -0.324 OA
HETATM   27  C   UNL     1      41.305  -8.474  10.824  1.00  0.00     0.142 A 
HETATM   28  C   UNL     1      41.915  -7.624  11.715  1.00  0.00     0.027 A 
HETATM   29  C   UNL     1      43.163  -8.212  12.035  1.00  0.00     0.037 A 
ENDBRANCH  22  25
ENDBRANCH  21  22
ENDBRANCH  19  21
ENDBRANCH   3  19
TORSDOF 7
ENDMDL
MODEL 5
REMARK VINA RESULT:      -7.7      5.072      8.912
REMARK  7 active torsions:
REMARK  status: ('A' for Active; 'I' for Inactive)
REMARK    1  A    between atoms: C_7  and  C_8 
REMARK    2  A    between atoms: C_8  and  N_9 
REMARK       I    between atoms: N_9  and  C_10 
REMARK       I    between atoms: C_10  and  N_11 
REMARK    3  A    between atoms: N_11  and  C_12 
REMARK    4  A    between atoms: C_12  and  C_13 
REMARK    5  A    between atoms: C_13  and  C_14 
REMARK    6  A    between atoms: C_14  and  O_15 
REMARK    7  A    between atoms: C_14  and  C_16 
ROOT
HETATM    1  N   UNL     1      39.745 -13.878   3.898  1.00  0.00    -0.337 N 
HETATM    2  C   UNL     1      41.040 -14.237   4.172  1.00  0.00     0.316 C 
HETATM    3  N   UNL     1      41.112 -15.223   5.108  1.00  0.00    -0.339 N 
HETATM    4  O   UNL     1      42.005 -13.732   3.608  1.00  0.00    -0.247 OA
HETATM    5  H   UNL     1      39.066 -14.241   4.552  1.00  0.00     0.164 HD
HETATM    6  H   UNL     1      40.278 -15.456   5.642  1.00  0.00     0.164 HD
ENDROOT
BRANCH   1   7
HETATM    7  C   UNL     1      39.434 -12.596   3.296  1.00  0.00     0.183 C 
BRANCH   7   8
HETATM    8  C   UNL     1      39.270 -12.677   1.824  1.00  0.00     0.044 A 
HETATM    9  N   UNL     1      39.730 -13.740   1.059  1.00  0.00    -0.343 N 
HETATM   10  C   UNL     1      39.499 -13.539  -0.230  1.00  0.00     0.112 A 
HETATM   11  H   UNL     1      40.194 -14.557   1.474  1.00  0.00     0.167 HD
HETATM   12  N   UNL     1      38.909 -12.333  -0.355  1.00  0.00    -0.311 N 
HETATM   13  C   UNL     1      39.801 -14.385  -1.407  1.00  0.00     0.049 A 
HETATM   14  C   UNL     1      38.566 -11.791  -1.593  1.00  0.00     0.014 A 
HETATM   15  C   UNL     1      38.742 -11.788   0.910  1.00  0.00     0.125 A 
HETATM   16  C   UNL     1      37.941 -10.431  -1.696  1.00  0.00     0.068 C 
HETATM   17  C   UNL     1      38.841 -12.553  -2.675  1.00  0.00     0.025 A 
HETATM   18  C   UNL     1      39.460 -13.872  -2.602  1.00  0.00     0.006 A 
ENDBRANCH   7   8
ENDBRANCH   1   7
BRANCH   3  19
HETATM   19  C   UNL     1      42.354 -15.639   5.749  1.00  0.00     0.085 C 
HETATM   20  C   UNL     1      42.279 -15.467   7.266  1.00  0.00     0.032 C 
BRANCH  19  21
HETATM   21  C   UNL     1      42.736 -17.071   5.316  1.00  0.00     0.063 C 
BRANCH  21  22
HETATM   22  C   UNL     1      43.722 -17.222   4.146  1.00  0.00     0.177 C 
BRANCH  22  23
HETATM   23  O   UNL     1      43.546 -16.153   3.202  1.00  0.00    -0.389 OA
HETATM   24  H   UNL     1      43.818 -15.346   3.685  1.00  0.00     0.210 HD
ENDBRANCH  22  23
BRANCH  22  25
HETATM   25  C   UNL     1      43.623 -18.521   3.415  1.00  0.00     0.081 A 
HETATM   26  O   UNL     1      44.015 -19.643   4.092  1.00  0.00    -0.324 OA
HETATM   27  C   UNL     1      43.818 -20.699   3.263  1.00  0.00     0.142 A 
HETATM   28  C   UNL     1      43.290 -20.279   2.066  1.00  0.00     0.027 A 
HETATM   29  C   UNL     1      43.155 -18.872   2.165  1.00  0.00     0.037 A 
ENDBRANCH  22  25
ENDBRANCH  21  22
ENDBRANCH  19  21
ENDBRANCH   3  19
TORSDOF 7
ENDMDL
MODEL 6
REMARK VINA RESULT:      -7.6      2.611      4.778
REMARK  7 active torsions:
REMARK  status: ('A' for Active; 'I' for Inactive)
REMARK    1  A    between atoms: C_7  and  C_8 
REMARK    2  A    between atoms: C_8  and  N_9 
REMARK       I    between atoms: N_9  and  C_10 
REMARK       I    between atoms: C_10  and  N_11 
REMARK    3  A    between atoms: N_11  and  C_12 
REMARK    4  A    between atoms: C_12  and  C_13 
REMARK    5  A    between atoms: C_13  and  C_14 
REMARK    6  A    between atoms: C_14  and  O_15 
REMARK    7  A    between atoms: C_14  and  C_16 
ROOT
HETATM    1  N   UNL     1      42.247 -14.622   7.183  1.00  0.00    -0.337 N 
HETATM    2  C   UNL     1      42.829 -13.445   6.786  1.00  0.00     0.316 C 
HETATM    3  N   UNL     1      41.955 -12.637   6.126  1.00  0.00    -0.339 N 
HETATM    4  O   UNL     1      43.997 -13.164   7.033  1.00  0.00    -0.247 OA
HETATM    5  H   UNL     1      41.343 -14.799   6.766  1.00  0.00     0.164 HD
HETATM    6  H   UNL     1      41.065 -13.022   5.819  1.00  0.00     0.164 HD
ENDROOT
BRANCH   1   7
HETATM    7  C   UNL     1      43.050 -15.788   7.492  1.00  0.00     0.183 C 
BRANCH   7   8
HETATM    8  C   UNL     1      43.256 -16.673   6.319  1.00  0.00     0.044 A 
HETATM    9  N   UNL     1      42.904 -16.321   5.023  1.00  0.00    -0.343 N 
HETATM   10  C   UNL     1      43.147 -17.308   4.174  1.00  0.00     0.112 A 
HETATM   11  H   UNL     1      42.499 -15.405   4.791  1.00  0.00     0.167 HD
HETATM   12  N   UNL     1      43.638 -18.345   4.884  1.00  0.00    -0.311 N 
HETATM   13  C   UNL     1      42.945 -17.393   2.711  1.00  0.00     0.049 A 
HETATM   14  C   UNL     1      43.963 -19.567   4.299  1.00  0.00     0.014 A 
HETATM   15  C   UNL     1      43.729 -17.965   6.216  1.00  0.00     0.125 A 
HETATM   16  C   UNL     1      44.475 -20.709   5.127  1.00  0.00     0.068 C 
HETATM   17  C   UNL     1      43.778 -19.658   2.963  1.00  0.00     0.025 A 
HETATM   18  C   UNL     1      43.270 -18.566   2.139  1.00  0.00     0.006 A 
ENDBRANCH   7   8
ENDBRANCH   1   7
BRANCH   3  19
HETATM   19  C   UNL     1      42.354 -11.434   5.404  1.00  0.00     0.085 C 
HETATM   20  C   UNL     1      42.824 -10.344   6.365  1.00  0.00     0.032 C 
BRANCH  19  21
HETATM   21  C   UNL     1      43.392 -11.774   4.313  1.00  0.00     0.063 C 
BRANCH  21  22
HETATM   22  C   UNL     1      42.884 -11.929   2.870  1.00  0.00     0.177 C 
BRANCH  22  23
HETATM   23  O   UNL     1      42.606 -10.641   2.296  1.00  0.00    -0.389 OA
HETATM   24  H   UNL     1      42.079 -10.174   2.975  1.00  0.00     0.210 HD
ENDBRANCH  22  23
BRANCH  22  25
HETATM   25  C   UNL     1      41.668 -12.784   2.729  1.00  0.00     0.081 A 
HETATM   26  O   UNL     1      41.670 -13.978   3.397  1.00  0.00    -0.324 OA
HETATM   27  C   UNL     1      40.474 -14.573   3.157  1.00  0.00     0.142 A 
HETATM   28  C   UNL     1      39.692 -13.774   2.357  1.00  0.00     0.027 A 
HETATM   29  C   UNL     1      40.458 -12.614   2.086  1.00  0.00     0.037 A 
ENDBRANCH  22  25
ENDBRANCH  21  22
ENDBRANCH  19  21
ENDBRANCH   3  19
TORSDOF 7
ENDMDL
MODEL 7
REMARK VINA RESULT:      -7.5      4.979      8.038
REMARK  7 active torsions:
REMARK  status: ('A' for Active; 'I' for Inactive)
REMARK    1  A    between atoms: C_7  and  C_8 
REMARK    2  A    between atoms: C_8  and  N_9 
REMARK       I    between atoms: N_9  and  C_10 
REMARK       I    between atoms: C_10  and  N_11 
REMARK    3  A    between atoms: N_11  and  C_12 
REMARK    4  A    between atoms: C_12  and  C_13 
REMARK    5  A    between atoms: C_13  and  C_14 
REMARK    6  A    between atoms: C_14  and  O_15 
REMARK    7  A    between atoms: C_14  and  C_16 
ROOT
HETATM    1  N   UNL     1      42.642 -14.446   3.456  1.00  0.00    -0.337 N 
HETATM    2  C   UNL     1      41.363 -13.952   3.421  1.00  0.00     0.316 C 
HETATM    3  N   UNL     1      41.184 -13.062   2.407  1.00  0.00    -0.339 N 
HETATM    4  O   UNL     1      40.492 -14.305   4.209  1.00  0.00    -0.247 OA
HETATM    5  H   UNL     1      43.297 -13.946   2.870  1.00  0.00     0.164 HD
HETATM    6  H   UNL     1      42.000 -12.703   1.917  1.00  0.00     0.164 HD
ENDROOT
BRANCH   1   7
HETATM    7  C   UNL     1      43.185 -15.038   4.662  1.00  0.00     0.183 C 
BRANCH   7   8
HETATM    8  C   UNL     1      43.312 -16.514   4.571  1.00  0.00     0.044 A 
HETATM    9  N   UNL     1      43.466 -17.339   5.676  1.00  0.00    -0.343 N 
HETATM   10  C   UNL     1      43.607 -18.605   5.315  1.00  0.00     0.112 A 
HETATM   11  H   UNL     1      43.475 -16.977   6.638  1.00  0.00     0.167 HD
HETATM   12  N   UNL     1      43.578 -18.650   3.966  1.00  0.00    -0.311 N 
HETATM   13  C   UNL     1      43.790 -19.827   6.130  1.00  0.00     0.049 A 
HETATM   14  C   UNL     1      43.741 -19.835   3.252  1.00  0.00     0.014 A 
HETATM   15  C   UNL     1      43.378 -17.363   3.486  1.00  0.00     0.125 A 
HETATM   16  C   UNL     1      43.737 -19.841   1.752  1.00  0.00     0.068 C 
HETATM   17  C   UNL     1      43.913 -20.957   3.986  1.00  0.00     0.025 A 
HETATM   18  C   UNL     1      43.934 -20.975   5.445  1.00  0.00     0.006 A 
ENDBRANCH   7   8
ENDBRANCH   1   7
BRANCH   3  19
HETATM   19  C   UNL     1      40.000 -12.220   2.270  1.00  0.00     0.085 C 
HETATM   20  C   UNL     1      40.357 -10.740   2.401  1.00  0.00     0.032 C 
BRANCH  19  21
HETATM   21  C   UNL     1      39.244 -12.553   0.966  1.00  0.00     0.063 C 
BRANCH  21  22
HETATM   22  C   UNL     1      39.942 -13.477  -0.046  1.00  0.00     0.177 C 
BRANCH  22  23
HETATM   23  O   UNL     1      41.191 -12.905  -0.468  1.00  0.00    -0.389 OA
HETATM   24  H   UNL     1      41.178 -11.991  -0.119  1.00  0.00     0.210 HD
ENDBRANCH  22  23
BRANCH  22  25
HETATM   25  C   UNL     1      39.131 -13.794  -1.259  1.00  0.00     0.081 A 
HETATM   26  O   UNL     1      38.139 -12.910  -1.589  1.00  0.00    -0.324 OA
HETATM   27  C   UNL     1      37.555 -13.371  -2.724  1.00  0.00     0.142 A 
HETATM   28  C   UNL     1      38.164 -14.530  -3.141  1.00  0.00     0.027 A 
HETATM   29  C   UNL     1      39.188 -14.801  -2.201  1.00  0.00     0.037 A 
ENDBRANCH  22  25
ENDBRANCH  21  22
ENDBRANCH  19  21
ENDBRANCH   3  19
TORSDOF 7
ENDMDL
MODEL 8
REMARK VINA RESULT:      -7.5      1.897      2.965
REMARK  7 active torsions:
REMARK  status: ('A' for Active; 'I' for Inactive)
REMARK    1  A    between atoms: C_7  and  C_8 
REMARK    2  A    between atoms: C_8  and  N_9 
REMARK       I    between atoms: N_9  and  C_10 
REMARK       I    between atoms: C_10  and  N_11 
REMARK    3  A    between atoms: N_11  and  C_12 
REMARK    4  A    between atoms: C_12  and  C_13 
REMARK    5  A    between atoms: C_13  and  C_14 
REMARK    6  A    between atoms: C_14  and  O_15 
REMARK    7  A    between atoms: C_14  and  C_16 
ROOT
HETATM    1  N   UNL     1      43.219 -13.714   3.053  1.00  0.00    -0.337 N 
HETATM    2  C   UNL     1      42.186 -12.981   3.580  1.00  0.00     0.316 C 
HETATM    3  N   UNL     1      42.550 -12.321   4.713  1.00  0.00    -0.339 N 
HETATM    4  O   UNL     1      41.077 -12.923   3.058  1.00  0.00    -0.247 OA
HETATM    5  H   UNL     1      44.013 -13.816   3.670  1.00  0.00     0.164 HD
HETATM    6  H   UNL     1      43.430 -12.565   5.163  1.00  0.00     0.164 HD
ENDROOT
BRANCH   1   7
HETATM    7  C   UNL     1      42.970 -14.815   2.143  1.00  0.00     0.183 C 
BRANCH   7   8
HETATM    8  C   UNL     1      43.242 -16.139   2.754  1.00  0.00     0.044 A 
HETATM    9  N   UNL     1      43.341 -17.314   2.022  1.00  0.00    -0.343 N 
HETATM   10  C   UNL     1      43.539 -18.358   2.814  1.00  0.00     0.112 A 
HETATM   11  H   UNL     1      43.258 -17.335   0.998  1.00  0.00     0.167 HD
HETATM   12  N   UNL     1      43.547 -17.909   4.086  1.00  0.00    -0.311 N 
HETATM   13  C   UNL     1      43.710 -19.793   2.493  1.00  0.00     0.049 A 
HETATM   14  C   UNL     1      43.692 -18.760   5.180  1.00  0.00     0.014 A 
HETATM   15  C   UNL     1      43.382 -16.531   4.070  1.00  0.00     0.125 A 
HETATM   16  C   UNL     1      43.664 -18.228   6.583  1.00  0.00     0.068 C 
HETATM   17  C   UNL     1      43.846 -20.073   4.899  1.00  0.00     0.025 A 
HETATM   18  C   UNL     1      43.864 -20.616   3.545  1.00  0.00     0.006 A 
ENDBRANCH   7   8
ENDBRANCH   1   7
BRANCH   3  19
HETATM   19  C   UNL     1      41.603 -11.653   5.599  1.00  0.00     0.085 C 
HETATM   20  C   UNL     1      40.526 -12.621   6.087  1.00  0.00     0.032 C 
BRANCH  19  21
HETATM   21  C   UNL     1      42.345 -10.935   6.747  1.00  0.00     0.063 C 
BRANCH  21  22
HETATM   22  C   UNL     1      43.723 -11.482   7.155  1.00  0.00     0.177 C 
BRANCH  22  23
HETATM   23  O   UNL     1      43.610 -12.841   7.606  1.00  0.00    -0.389 OA
HETATM   24  H   UNL     1      44.015 -13.375   6.894  1.00  0.00     0.210 HD
ENDBRANCH  22  23
BRANCH  22  25
HETATM   25  C   UNL     1      44.418 -10.687   8.211  1.00  0.00     0.081 A 
HETATM   26  O   UNL     1      44.077 -10.952   9.509  1.00  0.00    -0.324 OA
HETATM   27  C   UNL     1      44.838 -10.148  10.294  1.00  0.00     0.142 A 
HETATM   28  C   UNL     1      45.678  -9.379   9.524  1.00  0.00     0.027 A 
HETATM   29  C   UNL     1      45.414  -9.731   8.178  1.00  0.00     0.037 A 
ENDBRANCH  22  25
ENDBRANCH  21  22
ENDBRANCH  19  21
ENDBRANCH   3  19
TORSDOF 7
ENDMDL
MODEL 9
REMARK VINA RESULT:      -7.4      3.147      4.121
REMARK  7 active torsions:
REMARK  status: ('A' for Active; 'I' for Inactive)
REMARK    1  A    between atoms: C_7  and  C_8 
REMARK    2  A    between atoms: C_8  and  N_9 
REMARK       I    between atoms: N_9  and  C_10 
REMARK       I    between atoms: C_10  and  N_11 
REMARK    3  A    between atoms: N_11  and  C_12 
REMARK    4  A    between atoms: C_12  and  C_13 
REMARK    5  A    between atoms: C_13  and  C_14 
REMARK    6  A    between atoms: C_14  and  O_15 
REMARK    7  A    between atoms: C_14  and  C_16 
ROOT
HETATM    1  N   UNL     1      39.685 -13.943   3.633  1.00  0.00    -0.337 N 
HETATM    2  C   UNL     1      40.201 -12.676   3.732  1.00  0.00     0.316 C 
HETATM    3  N   UNL     1      39.456 -11.880   4.547  1.00  0.00    -0.339 N 
HETATM    4  O   UNL     1      41.231 -12.330   3.163  1.00  0.00    -0.247 OA
HETATM    5  H   UNL     1      38.750 -14.041   4.004  1.00  0.00     0.164 HD
HETATM    6  H   UNL     1      38.533 -12.197   4.834  1.00  0.00     0.164 HD
ENDROOT
BRANCH   1   7
HETATM    7  C   UNL     1      40.026 -14.806   2.520  1.00  0.00     0.183 C 
BRANCH   7   8
HETATM    8  C   UNL     1      41.127 -15.749   2.839  1.00  0.00     0.044 A 
HETATM    9  N   UNL     1      41.396 -16.891   2.099  1.00  0.00    -0.343 N 
HETATM   10  C   UNL     1      42.396 -17.580   2.626  1.00  0.00     0.112 A 
HETATM   11  H   UNL     1      40.860 -17.143   1.259  1.00  0.00     0.167 HD
HETATM   12  N   UNL     1      42.796 -16.932   3.739  1.00  0.00    -0.311 N 
HETATM   13  C   UNL     1      43.033 -18.844   2.190  1.00  0.00     0.049 A 
HETATM   14  C   UNL     1      43.812 -17.414   4.564  1.00  0.00     0.014 A 
HETATM   15  C   UNL     1      42.032 -15.782   3.880  1.00  0.00     0.125 A 
HETATM   16  C   UNL     1      44.207 -16.682   5.812  1.00  0.00     0.068 C 
HETATM   17  C   UNL     1      44.397 -18.569   4.177  1.00  0.00     0.025 A 
HETATM   18  C   UNL     1      44.022 -19.305   2.975  1.00  0.00     0.006 A 
ENDBRANCH   7   8
ENDBRANCH   1   7
BRANCH   3  19
HETATM   19  C   UNL     1      39.641 -10.438   4.658  1.00  0.00     0.085 C 
HETATM   20  C   UNL     1      38.299  -9.714   4.750  1.00  0.00     0.032 C 
BRANCH  19  21
HETATM   21  C   UNL     1      40.598 -10.100   5.822  1.00  0.00     0.063 C 
BRANCH  21  22
HETATM   22  C   UNL     1      42.086  -9.909   5.488  1.00  0.00     0.177 C 
BRANCH  22  23
HETATM   23  O   UNL     1      42.267  -9.768   4.069  1.00  0.00    -0.389 OA
HETATM   24  H   UNL     1      41.857  -8.906   3.850  1.00  0.00     0.210 HD
ENDBRANCH  22  23
BRANCH  22  25
HETATM   25  C   UNL     1      42.976 -11.006   5.972  1.00  0.00     0.081 A 
HETATM   26  O   UNL     1      42.377 -12.194   6.294  1.00  0.00    -0.324 OA
HETATM   27  C   UNL     1      43.360 -13.047   6.677  1.00  0.00     0.142 A 
HETATM   28  C   UNL     1      44.588 -12.434   6.594  1.00  0.00     0.027 A 
HETATM   29  C   UNL     1      44.343 -11.118   6.130  1.00  0.00     0.037 A 
ENDBRANCH  22  25
ENDBRANCH  21  22
ENDBRANCH  19  21
ENDBRANCH   3  19
TORSDOF 7
ENDMDL
MODEL 10
REMARK VINA RESULT:      -7.4      4.028      5.289
REMARK  7 active torsions:
REMARK  status: ('A' for Active; 'I' for Inactive)
REMARK    1  A    between atoms: C_7  and  C_8 
REMARK    2  A    between atoms: C_8  and  N_9 
REMARK       I    between atoms: N_9  and  C_10 
REMARK       I    between atoms: C_10  and  N_11 
REMARK    3  A    between atoms: N_11  and  C_12 
REMARK    4  A    between atoms: C_12  and  C_13 
REMARK    5  A    between atoms: C_13  and  C_14 
REMARK    6  A    between atoms: C_14  and  O_15 
REMARK    7  A    between atoms: C_14  and  C_16 
ROOT
HETATM    1  N   UNL     1      43.587 -14.798   1.707  1.00  0.00    -0.337 N 
HETATM    2  C   UNL     1      42.677 -13.782   1.856  1.00  0.00     0.316 C 
HETATM    3  N   UNL     1      43.172 -12.756   2.601  1.00  0.00    -0.339 N 
HETATM    4  O   UNL     1      41.561 -13.808   1.347  1.00  0.00    -0.247 OA
HETATM    5  H   UNL     1      44.390 -14.729   2.316  1.00  0.00     0.164 HD
HETATM    6  H   UNL     1      44.034 -12.897   3.121  1.00  0.00     0.164 HD
ENDROOT
BRANCH   1   7
HETATM    7  C   UNL     1      43.163 -16.139   1.354  1.00  0.00     0.183 C 
BRANCH   7   8
HETATM    8  C   UNL     1      43.388 -17.119   2.445  1.00  0.00     0.044 A 
HETATM    9  N   UNL     1      43.519 -18.484   2.233  1.00  0.00    -0.343 N 
HETATM   10  C   UNL     1      43.661 -19.136   3.377  1.00  0.00     0.112 A 
HETATM   11  H   UNL     1      43.494 -18.901   1.294  1.00  0.00     0.167 HD
HETATM   12  N   UNL     1      43.601 -18.229   4.374  1.00  0.00    -0.311 N 
HETATM   13  C   UNL     1      43.838 -20.580   3.648  1.00  0.00     0.049 A 
HETATM   14  C   UNL     1      43.675 -18.587   5.719  1.00  0.00     0.014 A 
HETATM   15  C   UNL     1      43.448 -16.968   3.815  1.00  0.00     0.125 A 
HETATM   16  C   UNL     1      43.571 -17.554   6.801  1.00  0.00     0.068 C 
HETATM   17  C   UNL     1      43.833 -19.904   5.978  1.00  0.00     0.025 A 
HETATM   18  C   UNL     1      43.924 -20.929   4.944  1.00  0.00     0.006 A 
ENDBRANCH   7   8
ENDBRANCH   1   7
BRANCH   3  19
HETATM   19  C   UNL     1      42.356 -11.656   3.103  1.00  0.00     0.085 C 
HETATM   20  C   UNL     1      41.909 -10.737   1.966  1.00  0.00     0.032 C 
BRANCH  19  21
HETATM   21  C   UNL     1      41.183 -12.192   3.951  1.00  0.00     0.063 C 
BRANCH  21  22
HETATM   22  C   UNL     1      41.521 -12.850   5.298  1.00  0.00     0.177 C 
BRANCH  22  23
HETATM   23  O   UNL     1      42.942 -12.853   5.511  1.00  0.00    -0.389 OA
HETATM   24  H   UNL     1      43.316 -12.439   4.708  1.00  0.00     0.210 HD
ENDBRANCH  22  23
BRANCH  22  25
HETATM   25  C   UNL     1      41.015 -14.247   5.451  1.00  0.00     0.081 A 
HETATM   26  O   UNL     1      40.704 -14.657   6.719  1.00  0.00    -0.324 OA
HETATM   27  C   UNL     1      40.243 -15.930   6.624  1.00  0.00     0.142 A 
HETATM   28  C   UNL     1      40.236 -16.343   5.314  1.00  0.00     0.027 A 
HETATM   29  C   UNL     1      40.727 -15.254   4.553  1.00  0.00     0.037 A 
ENDBRANCH  22  25
ENDBRANCH  21  22
ENDBRANCH  19  21
ENDBRANCH   3  19
TORSDOF 7
ENDMDL
