MODEL 1
REMARK VINA RESULT:      -8.3      0.000      0.000
REMARK  9 active torsions:
REMARK  status: ('A' for Active; 'I' for Inactive)
REMARK    1  A    between atoms: C_2  and  C_3 
REMARK    2  A    between atoms: C_3  and  O_4 
REMARK    3  A    between atoms: O_4  and  C_5 
REMARK    4  A    between atoms: C_8  and  C_9 
REMARK    5  A    between atoms: C_13  and  C_14 
REMARK       I    between atoms: C_14  and  N_15 
REMARK    6  A    between atoms: N_15  and  N_16 
REMARK    7  A    between atoms: C_17  and  C_18 
REMARK    8  A    between atoms: C_21  and  O_22 
REMARK    9  A    between atoms: O_22  and  C_23 
ROOT
HETATM    1  C   UNL     1      43.517  -9.212  10.981  1.00  0.00     0.089 A 
HETATM    2  N   UNL     1      43.957  -8.260  10.144  1.00  0.00    -0.174 NA
HETATM    3  N   UNL     1      44.367  -8.929   9.056  1.00  0.00    -0.272 N 
HETATM    4  H   UNL     1      44.744  -8.410   8.269  1.00  0.00     0.189 HD
HETATM    5  C   UNL     1      44.189 -10.282   9.129  1.00  0.00     0.121 A 
HETATM    6  C   UNL     1      43.661 -10.498  10.386  1.00  0.00     0.071 A 
ENDROOT
BRANCH   5   7
HETATM    7  C   UNL     1      44.520 -11.138   8.016  1.00  0.00     0.289 C 
HETATM    8  N   UNL     1      43.659 -12.210   7.837  1.00  0.00    -0.242 N 
HETATM    9  H   UNL     1      42.877 -12.351   8.463  1.00  0.00     0.192 HD
HETATM   10  O   UNL     1      45.486 -10.897   7.298  1.00  0.00    -0.264 OA
BRANCH   8  11
HETATM   11  N   UNL     1      43.797 -13.029   6.753  1.00  0.00    -0.184 NA
HETATM   12  C   UNL     1      43.342 -14.232   6.897  1.00  0.00     0.150 C 
BRANCH  12  13
HETATM   13  C   UNL     1      43.387 -15.216   5.799  1.00  0.00    -0.017 A 
HETATM   14  C   UNL     1      42.985 -14.868   4.509  1.00  0.00     0.016 A 
HETATM   15  C   UNL     1      43.022 -15.824   3.493  1.00  0.00     0.037 A 
HETATM   16  C   UNL     1      43.466 -17.124   3.750  1.00  0.00     0.068 A 
HETATM   17  C   UNL     1      43.868 -17.466   5.043  1.00  0.00     0.037 A 
HETATM   18  C   UNL     1      43.828 -16.514   6.069  1.00  0.00     0.016 A 
BRANCH  16  19
HETATM   19  O   UNL     1      43.451 -17.956   2.666  1.00  0.00    -0.352 OA
BRANCH  19  20
HETATM   20  C   UNL     1      44.021 -19.253   2.832  1.00  0.00     0.171 C 
HETATM   21  C   UNL     1      43.260 -20.215   1.936  1.00  0.00     0.034 C 
ENDBRANCH  19  20
ENDBRANCH  16  19
ENDBRANCH  12  13
ENDBRANCH   8  11
ENDBRANCH   5   7
BRANCH   1  22
HETATM   22  C   UNL     1      42.943  -8.885  12.288  1.00  0.00    -0.005 A 
HETATM   23  C   UNL     1      43.478  -7.841  13.056  1.00  0.00     0.016 A 
HETATM   24  C   UNL     1      42.907  -7.479  14.282  1.00  0.00     0.037 A 
HETATM   25  C   UNL     1      41.790  -8.161  14.761  1.00  0.00     0.068 A 
HETATM   26  C   UNL     1      41.271  -9.224  14.020  1.00  0.00     0.037 A 
HETATM   27  C   UNL     1      41.838  -9.583  12.791  1.00  0.00     0.016 A 
BRANCH  25  28
HETATM   28  O   UNL     1      41.126  -7.897  15.927  1.00  0.00    -0.351 OA
BRANCH  28  29
HETATM   29  C   UNL     1      41.770  -7.011  16.844  1.00  0.00     0.175 C 
BRANCH  29  30
HETATM   30  C   UNL     1      41.641  -7.612  18.240  1.00  0.00     0.022 C 
HETATM   31  C   UNL     1      40.196  -7.921  18.591  1.00  0.00     0.007 C 
ENDBRANCH  29  30
ENDBRANCH  28  29
ENDBRANCH  25  28
ENDBRANCH   1  22
TORSDOF 9
ENDMDL
MODEL 2
REMARK VINA RESULT:      -8.1      1.137     12.420
REMARK  9 active torsions:
REMARK  status: ('A' for Active; 'I' for Inactive)
REMARK    1  A    between atoms: C_2  and  C_3 
REMARK    2  A    between atoms: C_3  and  O_4 
REMARK    3  A    between atoms: O_4  and  C_5 
REMARK    4  A    between atoms: C_8  and  C_9 
REMARK    5  A    between atoms: C_13  and  C_14 
REMARK       I    between atoms: C_14  and  N_15 
REMARK    6  A    between atoms: N_15  and  N_16 
REMARK    7  A    between atoms: C_17  and  C_18 
REMARK    8  A    between atoms: C_21  and  O_22 
REMARK    9  A    between atoms: O_22  and  C_23 
ROOT
HETATM    1  C   UNL     1      43.441 -13.160   5.857  1.00  0.00     0.089 A 
HETATM    2  N   UNL     1      43.453 -11.965   5.247  1.00  0.00    -0.174 NA
HETATM    3  N   UNL     1      43.651 -11.082   6.236  1.00  0.00    -0.272 N 
HETATM    4  H   UNL     1      43.703 -10.092   6.013  1.00  0.00     0.189 HD
HETATM    5  C   UNL     1      43.798 -11.647   7.472  1.00  0.00     0.121 A 
HETATM    6  C   UNL     1      43.639 -13.001   7.258  1.00  0.00     0.071 A 
ENDROOT
BRANCH   5   7
HETATM    7  C   UNL     1      44.081 -10.838   8.632  1.00  0.00     0.289 C 
HETATM    8  N   UNL     1      42.993 -10.134   9.126  1.00  0.00    -0.242 N 
HETATM    9  H   UNL     1      42.091 -10.203   8.675  1.00  0.00     0.192 HD
HETATM   10  O   UNL     1      45.206 -10.812   9.125  1.00  0.00    -0.264 OA
BRANCH   8  11
HETATM   11  N   UNL     1      43.104  -9.422  10.285  1.00  0.00    -0.184 NA
HETATM   12  C   UNL     1      42.183  -9.640  11.168  1.00  0.00     0.150 C 
BRANCH  12  13
HETATM   13  C   UNL     1      42.193  -8.971  12.483  1.00  0.00    -0.017 A 
HETATM   14  C   UNL     1      41.237  -9.280  13.451  1.00  0.00     0.016 A 
HETATM   15  C   UNL     1      41.261  -8.619  14.680  1.00  0.00     0.037 A 
HETATM   16  C   UNL     1      42.236  -7.656  14.955  1.00  0.00     0.068 A 
HETATM   17  C   UNL     1      43.191  -7.352  13.982  1.00  0.00     0.037 A 
HETATM   18  C   UNL     1      43.170  -8.007  12.745  1.00  0.00     0.016 A 
BRANCH  16  19
HETATM   19  O   UNL     1      42.143  -7.089  16.196  1.00  0.00    -0.352 OA
BRANCH  19  20
HETATM   20  C   UNL     1      41.198  -7.656  17.102  1.00  0.00     0.171 C 
HETATM   21  C   UNL     1      41.131  -6.760  18.326  1.00  0.00     0.034 C 
ENDBRANCH  19  20
ENDBRANCH  16  19
ENDBRANCH  12  13
ENDBRANCH   8  11
ENDBRANCH   5   7
BRANCH   1  22
HETATM   22  C   UNL     1      43.285 -14.409   5.107  1.00  0.00    -0.005 A 
HETATM   23  C   UNL     1      43.559 -15.641   5.717  1.00  0.00     0.016 A 
HETATM   24  C   UNL     1      43.362 -16.846   5.033  1.00  0.00     0.037 A 
HETATM   25  C   UNL     1      42.888 -16.836   3.722  1.00  0.00     0.068 A 
HETATM   26  C   UNL     1      42.645 -15.613   3.096  1.00  0.00     0.037 A 
HETATM   27  C   UNL     1      42.836 -14.407   3.780  1.00  0.00     0.016 A 
BRANCH  25  28
HETATM   28  O   UNL     1      42.634 -17.937   2.952  1.00  0.00    -0.351 OA
BRANCH  28  29
HETATM   29  C   UNL     1      43.769 -18.660   2.473  1.00  0.00     0.175 C 
BRANCH  29  30
HETATM   30  C   UNL     1      43.343 -20.109   2.262  1.00  0.00     0.022 C 
HETATM   31  C   UNL     1      43.811 -21.007   3.394  1.00  0.00     0.007 C 
ENDBRANCH  29  30
ENDBRANCH  28  29
ENDBRANCH  25  28
ENDBRANCH   1  22
TORSDOF 9
ENDMDL
MODEL 3
REMARK VINA RESULT:      -7.7      1.701      2.008
REMARK  9 active torsions:
REMARK  status: ('A' for Active; 'I' for Inactive)
REMARK    1  A    between atoms: C_2  and  C_3 
REMARK    2  A    between atoms: C_3  and  O_4 
REMARK    3  A    between atoms: O_4  and  C_5 
REMARK    4  A    between atoms: C_8  and  C_9 
REMARK    5  A    between atoms: C_13  and  C_14 
REMARK       I    between atoms: C_14  and  N_15 
REMARK    6  A    between atoms: N_15  and  N_16 
REMARK    7  A    between atoms: C_17  and  C_18 
REMARK    8  A    between atoms: C_21  and  O_22 
REMARK    9  A    between atoms: O_22  and  C_23 
ROOT
HETATM    1  C   UNL     1      43.776  -8.687   9.940  1.00  0.00     0.089 A 
HETATM    2  N   UNL     1      44.321  -8.039   8.899  1.00  0.00    -0.174 NA
HETATM    3  N   UNL     1      44.653  -9.007   8.033  1.00  0.00    -0.272 N 
HETATM    4  H   UNL     1      45.086  -8.754   7.149  1.00  0.00     0.189 HD
HETATM    5  C   UNL     1      44.322 -10.268   8.446  1.00  0.00     0.121 A 
HETATM    6  C   UNL     1      43.773 -10.091   9.700  1.00  0.00     0.071 A 
ENDROOT
BRANCH   5   7
HETATM    7  C   UNL     1      44.553 -11.413   7.601  1.00  0.00     0.289 C 
HETATM    8  N   UNL     1      43.474 -12.277   7.492  1.00  0.00    -0.242 N 
HETATM    9  H   UNL     1      42.613 -12.088   7.988  1.00  0.00     0.192 HD
HETATM   10  O   UNL     1      45.628 -11.570   7.028  1.00  0.00    -0.264 OA
BRANCH   8  11
HETATM   11  N   UNL     1      43.527 -13.338   6.634  1.00  0.00    -0.184 NA
HETATM   12  C   UNL     1      43.554 -14.507   7.189  1.00  0.00     0.150 C 
BRANCH  12  13
HETATM   13  C   UNL     1      43.573 -15.747   6.388  1.00  0.00    -0.017 A 
HETATM   14  C   UNL     1      43.548 -15.697   4.993  1.00  0.00     0.016 A 
HETATM   15  C   UNL     1      43.549 -16.885   4.261  1.00  0.00     0.037 A 
HETATM   16  C   UNL     1      43.584 -18.124   4.908  1.00  0.00     0.068 A 
HETATM   17  C   UNL     1      43.609 -18.166   6.304  1.00  0.00     0.037 A 
HETATM   18  C   UNL     1      43.602 -16.978   7.045  1.00  0.00     0.016 A 
BRANCH  16  19
HETATM   19  O   UNL     1      43.582 -19.205   4.071  1.00  0.00    -0.352 OA
BRANCH  19  20
HETATM   20  C   UNL     1      43.688 -18.945   2.672  1.00  0.00     0.171 C 
HETATM   21  C   UNL     1      43.430 -20.248   1.935  1.00  0.00     0.034 C 
ENDBRANCH  19  20
ENDBRANCH  16  19
ENDBRANCH  12  13
ENDBRANCH   8  11
ENDBRANCH   5   7
BRANCH   1  22
HETATM   22  C   UNL     1      43.242  -7.972  11.101  1.00  0.00    -0.005 A 
HETATM   23  C   UNL     1      42.473  -6.813  10.928  1.00  0.00     0.016 A 
HETATM   24  C   UNL     1      41.909  -6.149  12.024  1.00  0.00     0.037 A 
HETATM   25  C   UNL     1      42.110  -6.635  13.314  1.00  0.00     0.068 A 
HETATM   26  C   UNL     1      42.903  -7.768  13.499  1.00  0.00     0.037 A 
HETATM   27  C   UNL     1      43.462  -8.437  12.404  1.00  0.00     0.016 A 
BRANCH  25  28
HETATM   28  O   UNL     1      41.602  -6.096  14.463  1.00  0.00    -0.351 OA
BRANCH  28  29
HETATM   29  C   UNL     1      40.366  -5.389  14.348  1.00  0.00     0.175 C 
BRANCH  29  30
HETATM   30  C   UNL     1      39.244  -6.346  14.741  1.00  0.00     0.022 C 
HETATM   31  C   UNL     1      38.350  -6.682  13.560  1.00  0.00     0.007 C 
ENDBRANCH  29  30
ENDBRANCH  28  29
ENDBRANCH  25  28
ENDBRANCH   1  22
TORSDOF 9
ENDMDL
MODEL 4
REMARK VINA RESULT:      -7.5      2.119     12.380
REMARK  9 active torsions:
REMARK  status: ('A' for Active; 'I' for Inactive)
REMARK    1  A    between atoms: C_2  and  C_3 
REMARK    2  A    between atoms: C_3  and  O_4 
REMARK    3  A    between atoms: O_4  and  C_5 
REMARK    4  A    between atoms: C_8  and  C_9 
REMARK    5  A    between atoms: C_13  and  C_14 
REMARK       I    between atoms: C_14  and  N_15 
REMARK    6  A    between atoms: N_15  and  N_16 
REMARK    7  A    between atoms: C_17  and  C_18 
REMARK    8  A    between atoms: C_21  and  O_22 
REMARK    9  A    between atoms: O_22  and  C_23 
ROOT
HETATM    1  C   UNL     1      42.218 -11.918   4.818  1.00  0.00     0.089 A 
HETATM    2  N   UNL     1      41.896 -10.801   4.148  1.00  0.00    -0.174 NA
HETATM    3  N   UNL     1      41.704  -9.878   5.102  1.00  0.00    -0.272 N 
HETATM    4  H   UNL     1      41.451  -8.932   4.831  1.00  0.00     0.189 HD
HETATM    5  C   UNL     1      41.913 -10.333   6.373  1.00  0.00     0.121 A 
HETATM    6  C   UNL     1      42.224 -11.669   6.220  1.00  0.00     0.071 A 
ENDROOT
BRANCH   5   7
HETATM    7  C   UNL     1      41.810  -9.448   7.508  1.00  0.00     0.289 C 
HETATM    8  N   UNL     1      42.335  -9.956   8.686  1.00  0.00    -0.242 N 
HETATM    9  H   UNL     1      42.742 -10.881   8.709  1.00  0.00     0.192 HD
HETATM   10  O   UNL     1      41.305  -8.334   7.397  1.00  0.00    -0.264 OA
BRANCH   8  11
HETATM   11  N   UNL     1      42.400  -9.174   9.803  1.00  0.00    -0.184 NA
HETATM   12  C   UNL     1      42.167  -9.777  10.925  1.00  0.00     0.150 C 
BRANCH  12  13
HETATM   13  C   UNL     1      42.240  -9.068  12.217  1.00  0.00    -0.017 A 
HETATM   14  C   UNL     1      43.238  -8.123  12.459  1.00  0.00     0.016 A 
HETATM   15  C   UNL     1      43.294  -7.480  13.697  1.00  0.00     0.037 A 
HETATM   16  C   UNL     1      42.355  -7.766  14.694  1.00  0.00     0.068 A 
HETATM   17  C   UNL     1      41.359  -8.712  14.444  1.00  0.00     0.037 A 
HETATM   18  C   UNL     1      41.301  -9.365  13.207  1.00  0.00     0.016 A 
BRANCH  16  19
HETATM   19  O   UNL     1      42.526  -7.065  15.855  1.00  0.00    -0.352 OA
BRANCH  19  20
HETATM   20  C   UNL     1      41.611  -7.328  16.916  1.00  0.00     0.171 C 
HETATM   21  C   UNL     1      41.473  -6.059  17.739  1.00  0.00     0.034 C 
ENDBRANCH  19  20
ENDBRANCH  16  19
ENDBRANCH  12  13
ENDBRANCH   8  11
ENDBRANCH   5   7
BRANCH   1  22
HETATM   22  C   UNL     1      42.546 -13.167   4.125  1.00  0.00    -0.005 A 
HETATM   23  C   UNL     1      42.931 -13.148   2.777  1.00  0.00     0.016 A 
HETATM   24  C   UNL     1      43.301 -14.325   2.115  1.00  0.00     0.037 A 
HETATM   25  C   UNL     1      43.289 -15.542   2.794  1.00  0.00     0.068 A 
HETATM   26  C   UNL     1      42.875 -15.574   4.126  1.00  0.00     0.037 A 
HETATM   27  C   UNL     1      42.510 -14.398   4.791  1.00  0.00     0.016 A 
BRANCH  25  28
HETATM   28  O   UNL     1      43.645 -16.755   2.274  1.00  0.00    -0.351 OA
BRANCH  28  29
HETATM   29  C   UNL     1      42.871 -17.882   2.689  1.00  0.00     0.175 C 
BRANCH  29  30
HETATM   30  C   UNL     1      43.816 -19.073   2.820  1.00  0.00     0.022 C 
HETATM   31  C   UNL     1      43.323 -20.274   2.032  1.00  0.00     0.007 C 
ENDBRANCH  29  30
ENDBRANCH  28  29
ENDBRANCH  25  28
ENDBRANCH   1  22
TORSDOF 9
ENDMDL
MODEL 5
REMARK VINA RESULT:      -7.1      9.411     13.063
REMARK  9 active torsions:
REMARK  status: ('A' for Active; 'I' for Inactive)
REMARK    1  A    between atoms: C_2  and  C_3 
REMARK    2  A    between atoms: C_3  and  O_4 
REMARK    3  A    between atoms: O_4  and  C_5 
REMARK    4  A    between atoms: C_8  and  C_9 
REMARK    5  A    between atoms: C_13  and  C_14 
REMARK       I    between atoms: C_14  and  N_15 
REMARK    6  A    between atoms: N_15  and  N_16 
REMARK    7  A    between atoms: C_17  and  C_18 
REMARK    8  A    between atoms: C_21  and  O_22 
REMARK    9  A    between atoms: O_22  and  C_23 
ROOT
HETATM    1  C   UNL     1      41.067 -14.817   2.197  1.00  0.00     0.089 A 
HETATM    2  N   UNL     1      39.746 -14.990   2.033  1.00  0.00    -0.174 NA
HETATM    3  N   UNL     1      39.344 -13.906   1.354  1.00  0.00    -0.272 N 
HETATM    4  H   UNL     1      38.364 -13.814   1.104  1.00  0.00     0.189 HD
HETATM    5  C   UNL     1      40.350 -13.036   1.039  1.00  0.00     0.121 A 
HETATM    6  C   UNL     1      41.482 -13.592   1.601  1.00  0.00     0.071 A 
ENDROOT
BRANCH   5   7
HETATM    7  C   UNL     1      40.093 -11.852   0.255  1.00  0.00     0.289 C 
HETATM    8  N   UNL     1      41.198 -11.355  -0.419  1.00  0.00    -0.242 N 
HETATM    9  H   UNL     1      42.097 -11.811  -0.336  1.00  0.00     0.192 HD
HETATM   10  O   UNL     1      38.969 -11.361   0.202  1.00  0.00    -0.264 OA
BRANCH   8  11
HETATM   11  N   UNL     1      41.062 -10.307  -1.283  1.00  0.00    -0.184 NA
HETATM   12  C   UNL     1      42.115  -9.572  -1.444  1.00  0.00     0.150 C 
BRANCH  12  13
HETATM   13  C   UNL     1      42.129  -8.427  -2.375  1.00  0.00    -0.017 A 
HETATM   14  C   UNL     1      42.933  -7.314  -2.128  1.00  0.00     0.016 A 
HETATM   15  C   UNL     1      42.913  -6.238  -3.017  1.00  0.00     0.037 A 
HETATM   16  C   UNL     1      42.102  -6.266  -4.156  1.00  0.00     0.068 A 
HETATM   17  C   UNL     1      41.301  -7.384  -4.397  1.00  0.00     0.037 A 
HETATM   18  C   UNL     1      41.312  -8.465  -3.507  1.00  0.00     0.016 A 
BRANCH  16  19
HETATM   19  O   UNL     1      42.180  -5.148  -4.939  1.00  0.00    -0.352 OA
BRANCH  19  20
HETATM   20  C   UNL     1      42.184  -5.341  -6.352  1.00  0.00     0.171 C 
HETATM   21  C   UNL     1      43.574  -5.798  -6.757  1.00  0.00     0.034 C 
ENDBRANCH  19  20
ENDBRANCH  16  19
ENDBRANCH  12  13
ENDBRANCH   8  11
ENDBRANCH   5   7
BRANCH   1  22
HETATM   22  C   UNL     1      41.899 -15.816   2.870  1.00  0.00    -0.005 A 
HETATM   23  C   UNL     1      42.661 -16.724   2.121  1.00  0.00     0.016 A 
HETATM   24  C   UNL     1      43.505 -17.650   2.747  1.00  0.00     0.037 A 
HETATM   25  C   UNL     1      43.597 -17.682   4.137  1.00  0.00     0.068 A 
HETATM   26  C   UNL     1      42.817 -16.805   4.892  1.00  0.00     0.037 A 
HETATM   27  C   UNL     1      41.977 -15.875   4.267  1.00  0.00     0.016 A 
BRANCH  25  28
HETATM   28  O   UNL     1      44.393 -18.518   4.870  1.00  0.00    -0.351 OA
BRANCH  28  29
HETATM   29  C   UNL     1      43.729 -19.434   5.742  1.00  0.00     0.175 C 
BRANCH  29  30
HETATM   30  C   UNL     1      44.147 -20.845   5.339  1.00  0.00     0.022 C 
HETATM   31  C   UNL     1      43.885 -21.113   3.867  1.00  0.00     0.007 C 
ENDBRANCH  29  30
ENDBRANCH  28  29
ENDBRANCH  25  28
ENDBRANCH   1  22
TORSDOF 9
ENDMDL
MODEL 6
REMARK VINA RESULT:      -7.0      9.684     13.516
REMARK  9 active torsions:
REMARK  status: ('A' for Active; 'I' for Inactive)
REMARK    1  A    between atoms: C_2  and  C_3 
REMARK    2  A    between atoms: C_3  and  O_4 
REMARK    3  A    between atoms: O_4  and  C_5 
REMARK    4  A    between atoms: C_8  and  C_9 
REMARK    5  A    between atoms: C_13  and  C_14 
REMARK       I    between atoms: C_14  and  N_15 
REMARK    6  A    between atoms: N_15  and  N_16 
REMARK    7  A    between atoms: C_17  and  C_18 
REMARK    8  A    between atoms: C_21  and  O_22 
REMARK    9  A    between atoms: O_22  and  C_23 
ROOT
HETATM    1  C   UNL     1      40.678 -14.840   0.867  1.00  0.00     0.089 A 
HETATM    2  N   UNL     1      39.646 -15.419   0.235  1.00  0.00    -0.174 NA
HETATM    3  N   UNL     1      39.434 -14.649  -0.842  1.00  0.00    -0.272 N 
HETATM    4  H   UNL     1      38.690 -14.896  -1.488  1.00  0.00     0.189 HD
HETATM    5  C   UNL     1      40.302 -13.600  -0.963  1.00  0.00     0.121 A 
HETATM    6  C   UNL     1      41.109 -13.685   0.154  1.00  0.00     0.071 A 
ENDROOT
BRANCH   5   7
HETATM    7  C   UNL     1      40.248 -12.715  -2.100  1.00  0.00     0.289 C 
HETATM    8  N   UNL     1      40.071 -11.377  -1.783  1.00  0.00    -0.242 N 
HETATM    9  H   UNL     1      39.984 -11.086  -0.818  1.00  0.00     0.192 HD
HETATM   10  O   UNL     1      40.368 -13.147  -3.243  1.00  0.00    -0.264 OA
BRANCH   8  11
HETATM   11  N   UNL     1      40.117 -10.426  -2.762  1.00  0.00    -0.184 NA
HETATM   12  C   UNL     1      41.138  -9.632  -2.726  1.00  0.00     0.150 C 
BRANCH  12  13
HETATM   13  C   UNL     1      41.341  -8.581  -3.742  1.00  0.00    -0.017 A 
HETATM   14  C   UNL     1      40.524  -8.512  -4.872  1.00  0.00     0.016 A 
HETATM   15  C   UNL     1      40.749  -7.518  -5.826  1.00  0.00     0.037 A 
HETATM   16  C   UNL     1      41.777  -6.586  -5.658  1.00  0.00     0.068 A 
HETATM   17  C   UNL     1      42.590  -6.660  -4.524  1.00  0.00     0.037 A 
HETATM   18  C   UNL     1      42.373  -7.658  -3.567  1.00  0.00     0.016 A 
BRANCH  16  19
HETATM   19  O   UNL     1      41.885  -5.668  -6.666  1.00  0.00    -0.352 OA
BRANCH  19  20
HETATM   20  C   UNL     1      43.198  -5.354  -7.124  1.00  0.00     0.171 C 
HETATM   21  C   UNL     1      43.661  -6.485  -8.026  1.00  0.00     0.034 C 
ENDBRANCH  19  20
ENDBRANCH  16  19
ENDBRANCH  12  13
ENDBRANCH   8  11
ENDBRANCH   5   7
BRANCH   1  22
HETATM   22  C   UNL     1      41.250 -15.406   2.091  1.00  0.00    -0.005 A 
HETATM   23  C   UNL     1      40.420 -15.756   3.165  1.00  0.00     0.016 A 
HETATM   24  C   UNL     1      40.943 -16.350   4.320  1.00  0.00     0.037 A 
HETATM   25  C   UNL     1      42.310 -16.600   4.419  1.00  0.00     0.068 A 
HETATM   26  C   UNL     1      43.149 -16.224   3.369  1.00  0.00     0.037 A 
HETATM   27  C   UNL     1      42.626 -15.636   2.211  1.00  0.00     0.016 A 
BRANCH  25  28
HETATM   28  O   UNL     1      42.945 -17.189   5.477  1.00  0.00    -0.351 OA
BRANCH  28  29
HETATM   29  C   UNL     1      44.196 -17.822   5.202  1.00  0.00     0.175 C 
BRANCH  29  30
HETATM   30  C   UNL     1      43.968 -19.331   5.217  1.00  0.00     0.022 C 
HETATM   31  C   UNL     1      43.978 -19.916   3.815  1.00  0.00     0.007 C 
ENDBRANCH  29  30
ENDBRANCH  28  29
ENDBRANCH  25  28
ENDBRANCH   1  22
TORSDOF 9
ENDMDL
MODEL 7
REMARK VINA RESULT:      -7.0      9.931     14.419
REMARK  9 active torsions:
REMARK  status: ('A' for Active; 'I' for Inactive)
REMARK    1  A    between atoms: C_2  and  C_3 
REMARK    2  A    between atoms: C_3  and  O_4 
REMARK    3  A    between atoms: O_4  and  C_5 
REMARK    4  A    between atoms: C_8  and  C_9 
REMARK    5  A    between atoms: C_13  and  C_14 
REMARK       I    between atoms: C_14  and  N_15 
REMARK    6  A    between atoms: N_15  and  N_16 
REMARK    7  A    between atoms: C_17  and  C_18 
REMARK    8  A    between atoms: C_21  and  O_22 
REMARK    9  A    between atoms: O_22  and  C_23 
ROOT
HETATM    1  C   UNL     1      40.915 -14.557   0.667  1.00  0.00     0.089 A 
HETATM    2  N   UNL     1      40.956 -13.218   0.736  1.00  0.00    -0.174 NA
HETATM    3  N   UNL     1      40.220 -12.803  -0.305  1.00  0.00    -0.272 N 
HETATM    4  H   UNL     1      40.099 -11.806  -0.460  1.00  0.00     0.189 HD
HETATM    5  C   UNL     1      39.671 -13.814  -1.043  1.00  0.00     0.121 A 
HETATM    6  C   UNL     1      40.130 -14.971  -0.447  1.00  0.00     0.071 A 
ENDROOT
BRANCH   5   7
HETATM    7  C   UNL     1      38.800 -13.534  -2.158  1.00  0.00     0.289 C 
HETATM    8  N   UNL     1      37.529 -13.107  -1.806  1.00  0.00    -0.242 N 
HETATM    9  H   UNL     1      37.269 -13.019  -0.832  1.00  0.00     0.192 HD
HETATM   10  O   UNL     1      39.193 -13.661  -3.315  1.00  0.00    -0.264 OA
BRANCH   8  11
HETATM   11  N   UNL     1      36.647 -12.703  -2.767  1.00  0.00    -0.184 NA
HETATM   12  C   UNL     1      36.316 -11.452  -2.735  1.00  0.00     0.150 C 
BRANCH  12  13
HETATM   13  C   UNL     1      35.403 -10.865  -3.734  1.00  0.00    -0.017 A 
HETATM   14  C   UNL     1      34.165 -11.450  -4.002  1.00  0.00     0.016 A 
HETATM   15  C   UNL     1      33.328 -10.883  -4.965  1.00  0.00     0.037 A 
HETATM   16  C   UNL     1      33.713  -9.731  -5.657  1.00  0.00     0.068 A 
HETATM   17  C   UNL     1      34.953  -9.150  -5.383  1.00  0.00     0.037 A 
HETATM   18  C   UNL     1      35.799  -9.717  -4.422  1.00  0.00     0.016 A 
BRANCH  16  19
HETATM   19  O   UNL     1      32.799  -9.283  -6.570  1.00  0.00    -0.352 OA
BRANCH  19  20
HETATM   20  C   UNL     1      32.350 -10.213  -7.553  1.00  0.00     0.171 C 
HETATM   21  C   UNL     1      33.398 -10.273  -8.651  1.00  0.00     0.034 C 
ENDBRANCH  19  20
ENDBRANCH  16  19
ENDBRANCH  12  13
ENDBRANCH   8  11
ENDBRANCH   5   7
BRANCH   1  22
HETATM   22  C   UNL     1      41.577 -15.403   1.664  1.00  0.00    -0.005 A 
HETATM   23  C   UNL     1      40.884 -15.822   2.808  1.00  0.00     0.016 A 
HETATM   24  C   UNL     1      41.483 -16.675   3.743  1.00  0.00     0.037 A 
HETATM   25  C   UNL     1      42.789 -17.120   3.547  1.00  0.00     0.068 A 
HETATM   26  C   UNL     1      43.497 -16.680   2.428  1.00  0.00     0.037 A 
HETATM   27  C   UNL     1      42.898 -15.832   1.490  1.00  0.00     0.016 A 
BRANCH  25  28
HETATM   28  O   UNL     1      43.480 -17.967   4.368  1.00  0.00    -0.351 OA
BRANCH  28  29
HETATM   29  C   UNL     1      44.418 -18.844   3.741  1.00  0.00     0.175 C 
BRANCH  29  30
HETATM   30  C   UNL     1      43.694 -20.148   3.422  1.00  0.00     0.022 C 
HETATM   31  C   UNL     1      43.574 -20.377   1.926  1.00  0.00     0.007 C 
ENDBRANCH  29  30
ENDBRANCH  28  29
ENDBRANCH  25  28
ENDBRANCH   1  22
TORSDOF 9
ENDMDL
MODEL 8
REMARK VINA RESULT:      -6.9      1.960      2.689
REMARK  9 active torsions:
REMARK  status: ('A' for Active; 'I' for Inactive)
REMARK    1  A    between atoms: C_2  and  C_3 
REMARK    2  A    between atoms: C_3  and  O_4 
REMARK    3  A    between atoms: O_4  and  C_5 
REMARK    4  A    between atoms: C_8  and  C_9 
REMARK    5  A    between atoms: C_13  and  C_14 
REMARK       I    between atoms: C_14  and  N_15 
REMARK    6  A    between atoms: N_15  and  N_16 
REMARK    7  A    between atoms: C_17  and  C_18 
REMARK    8  A    between atoms: C_21  and  O_22 
REMARK    9  A    between atoms: O_22  and  C_23 
ROOT
HETATM    1  C   UNL     1      43.674  -9.523  11.266  1.00  0.00     0.089 A 
HETATM    2  N   UNL     1      45.012  -9.471  11.174  1.00  0.00    -0.174 NA
HETATM    3  N   UNL     1      45.289  -9.999   9.973  1.00  0.00    -0.272 N 
HETATM    4  H   UNL     1      46.257 -10.063   9.672  1.00  0.00     0.189 HD
HETATM    5  C   UNL     1      44.188 -10.373   9.256  1.00  0.00     0.121 A 
HETATM    6  C   UNL     1      43.120 -10.098  10.087  1.00  0.00     0.071 A 
ENDROOT
BRANCH   5   7
HETATM    7  C   UNL     1      44.312 -10.898   7.918  1.00  0.00     0.289 C 
HETATM    8  N   UNL     1      43.523 -12.009   7.658  1.00  0.00    -0.242 N 
HETATM    9  H   UNL     1      42.926 -12.394   8.378  1.00  0.00     0.192 HD
HETATM   10  O   UNL     1      45.057 -10.369   7.098  1.00  0.00    -0.264 OA
BRANCH   8  11
HETATM   11  N   UNL     1      43.466 -12.531   6.398  1.00  0.00    -0.184 NA
HETATM   12  C   UNL     1      42.285 -12.860   5.980  1.00  0.00     0.150 C 
BRANCH  12  13
HETATM   13  C   UNL     1      42.064 -13.402   4.626  1.00  0.00    -0.017 A 
HETATM   14  C   UNL     1      41.168 -12.790   3.749  1.00  0.00     0.016 A 
HETATM   15  C   UNL     1      40.965 -13.334   2.479  1.00  0.00     0.037 A 
HETATM   16  C   UNL     1      41.657 -14.479   2.073  1.00  0.00     0.068 A 
HETATM   17  C   UNL     1      42.553 -15.086   2.956  1.00  0.00     0.037 A 
HETATM   18  C   UNL     1      42.757 -14.549   4.233  1.00  0.00     0.016 A 
BRANCH  16  19
HETATM   19  O   UNL     1      41.364 -14.903   0.807  1.00  0.00    -0.352 OA
BRANCH  19  20
HETATM   20  C   UNL     1      39.994 -15.163   0.508  1.00  0.00     0.171 C 
HETATM   21  C   UNL     1      39.705 -14.612  -0.878  1.00  0.00     0.034 C 
ENDBRANCH  19  20
ENDBRANCH  16  19
ENDBRANCH  12  13
ENDBRANCH   8  11
ENDBRANCH   5   7
BRANCH   1  22
HETATM   22  C   UNL     1      42.959  -9.000  12.432  1.00  0.00    -0.005 A 
HETATM   23  C   UNL     1      41.813  -9.651  12.911  1.00  0.00     0.016 A 
HETATM   24  C   UNL     1      41.149  -9.196  14.057  1.00  0.00     0.037 A 
HETATM   25  C   UNL     1      41.623  -8.079  14.742  1.00  0.00     0.068 A 
HETATM   26  C   UNL     1      42.744  -7.406  14.254  1.00  0.00     0.037 A 
HETATM   27  C   UNL     1      43.411  -7.862  13.111  1.00  0.00     0.016 A 
BRANCH  25  28
HETATM   28  O   UNL     1      41.084  -7.547  15.880  1.00  0.00    -0.351 OA
BRANCH  28  29
HETATM   29  C   UNL     1      41.974  -6.827  16.735  1.00  0.00     0.175 C 
BRANCH  29  30
HETATM   30  C   UNL     1      41.871  -7.434  18.131  1.00  0.00     0.022 C 
HETATM   31  C   UNL     1      42.369  -6.478  19.201  1.00  0.00     0.007 C 
ENDBRANCH  29  30
ENDBRANCH  28  29
ENDBRANCH  25  28
ENDBRANCH   1  22
TORSDOF 9
ENDMDL
MODEL 9
REMARK VINA RESULT:      -6.8     20.789     22.791
REMARK  9 active torsions:
REMARK  status: ('A' for Active; 'I' for Inactive)
REMARK    1  A    between atoms: C_2  and  C_3 
REMARK    2  A    between atoms: C_3  and  O_4 
REMARK    3  A    between atoms: O_4  and  C_5 
REMARK    4  A    between atoms: C_8  and  C_9 
REMARK    5  A    between atoms: C_13  and  C_14 
REMARK       I    between atoms: C_14  and  N_15 
REMARK    6  A    between atoms: N_15  and  N_16 
REMARK    7  A    between atoms: C_17  and  C_18 
REMARK    8  A    between atoms: C_21  and  O_22 
REMARK    9  A    between atoms: O_22  and  C_23 
ROOT
HETATM    1  C   UNL     1      37.287 -33.946   6.137  1.00  0.00     0.089 A 
HETATM    2  N   UNL     1      36.532 -33.199   5.317  1.00  0.00    -0.174 NA
HETATM    3  N   UNL     1      37.336 -32.913   4.283  1.00  0.00    -0.272 N 
HETATM    4  H   UNL     1      36.976 -32.351   3.517  1.00  0.00     0.189 HD
HETATM    5  C   UNL     1      38.583 -33.465   4.372  1.00  0.00     0.121 A 
HETATM    6  C   UNL     1      38.588 -34.123   5.586  1.00  0.00     0.071 A 
ENDROOT
BRANCH   5   7
HETATM    7  C   UNL     1      39.546 -33.306   3.310  1.00  0.00     0.289 C 
HETATM    8  N   UNL     1      39.521 -32.067   2.688  1.00  0.00    -0.242 N 
HETATM    9  H   UNL     1      38.860 -31.360   2.981  1.00  0.00     0.192 HD
HETATM   10  O   UNL     1      40.320 -34.214   3.017  1.00  0.00    -0.264 OA
BRANCH   8  11
HETATM   11  N   UNL     1      40.457 -31.752   1.745  1.00  0.00    -0.184 NA
HETATM   12  C   UNL     1      41.434 -31.007   2.151  1.00  0.00     0.150 C 
BRANCH  12  13
HETATM   13  C   UNL     1      42.538 -30.618   1.252  1.00  0.00    -0.017 A 
HETATM   14  C   UNL     1      42.716 -29.287   0.873  1.00  0.00     0.016 A 
HETATM   15  C   UNL     1      43.759 -28.949   0.009  1.00  0.00     0.037 A 
HETATM   16  C   UNL     1      44.632 -29.929  -0.475  1.00  0.00     0.068 A 
HETATM   17  C   UNL     1      44.448 -31.259  -0.091  1.00  0.00     0.037 A 
HETATM   18  C   UNL     1      43.401 -31.605   0.772  1.00  0.00     0.016 A 
BRANCH  16  19
HETATM   19  O   UNL     1      45.607 -29.460  -1.311  1.00  0.00    -0.352 OA
BRANCH  19  20
HETATM   20  C   UNL     1      45.979 -28.090  -1.175  1.00  0.00     0.171 C 
HETATM   21  C   UNL     1      47.486 -28.031  -0.999  1.00  0.00     0.034 C 
ENDBRANCH  19  20
ENDBRANCH  16  19
ENDBRANCH  12  13
ENDBRANCH   8  11
ENDBRANCH   5   7
BRANCH   1  22
HETATM   22  C   UNL     1      36.757 -34.500   7.385  1.00  0.00    -0.005 A 
HETATM   23  C   UNL     1      37.623 -34.837   8.435  1.00  0.00     0.016 A 
HETATM   24  C   UNL     1      37.129 -35.315   9.655  1.00  0.00     0.037 A 
HETATM   25  C   UNL     1      35.756 -35.466   9.841  1.00  0.00     0.068 A 
HETATM   26  C   UNL     1      34.889 -35.166   8.790  1.00  0.00     0.037 A 
HETATM   27  C   UNL     1      35.381 -34.682   7.572  1.00  0.00     0.016 A 
BRANCH  25  28
HETATM   28  O   UNL     1      35.144 -35.902  10.983  1.00  0.00    -0.351 OA
BRANCH  28  29
HETATM   29  C   UNL     1      33.732 -35.703  11.070  1.00  0.00     0.175 C 
BRANCH  29  30
HETATM   30  C   UNL     1      33.481 -34.580  12.072  1.00  0.00     0.022 C 
HETATM   31  C   UNL     1      33.008 -33.309  11.389  1.00  0.00     0.007 C 
ENDBRANCH  29  30
ENDBRANCH  28  29
ENDBRANCH  25  28
ENDBRANCH   1  22
TORSDOF 9
ENDMDL
MODEL 10
REMARK VINA RESULT:      -6.6     20.196     22.971
REMARK  9 active torsions:
REMARK  status: ('A' for Active; 'I' for Inactive)
REMARK    1  A    between atoms: C_2  and  C_3 
REMARK    2  A    between atoms: C_3  and  O_4 
REMARK    3  A    between atoms: O_4  and  C_5 
REMARK    4  A    between atoms: C_8  and  C_9 
REMARK    5  A    between atoms: C_13  and  C_14 
REMARK       I    between atoms: C_14  and  N_15 
REMARK    6  A    between atoms: N_15  and  N_16 
REMARK    7  A    between atoms: C_17  and  C_18 
REMARK    8  A    between atoms: C_21  and  O_22 
REMARK    9  A    between atoms: O_22  and  C_23 
ROOT
HETATM    1  C   UNL     1      47.549 -29.091   1.719  1.00  0.00     0.089 A 
HETATM    2  N   UNL     1      47.933 -28.133   2.577  1.00  0.00    -0.174 NA
HETATM    3  N   UNL     1      48.522 -28.796   3.583  1.00  0.00    -0.272 N 
HETATM    4  H   UNL     1      48.905 -28.272   4.364  1.00  0.00     0.189 HD
HETATM    5  C   UNL     1      48.568 -30.151   3.411  1.00  0.00     0.121 A 
HETATM    6  C   UNL     1      47.916 -30.374   2.215  1.00  0.00     0.071 A 
ENDROOT
BRANCH   5   7
HETATM    7  C   UNL     1      49.226 -31.002   4.372  1.00  0.00     0.289 C 
HETATM    8  N   UNL     1      50.595 -31.128   4.191  1.00  0.00    -0.242 N 
HETATM    9  H   UNL     1      51.057 -30.651   3.429  1.00  0.00     0.192 HD
HETATM   10  O   UNL     1      48.593 -31.544   5.275  1.00  0.00    -0.264 OA
BRANCH   8  11
HETATM   11  N   UNL     1      51.349 -31.814   5.100  1.00  0.00    -0.184 NA
HETATM   12  C   UNL     1      51.986 -31.088   5.962  1.00  0.00     0.150 C 
BRANCH  12  13
HETATM   13  C   UNL     1      52.809 -31.692   7.027  1.00  0.00    -0.017 A 
HETATM   14  C   UNL     1      52.652 -33.034   7.379  1.00  0.00     0.016 A 
HETATM   15  C   UNL     1      53.432 -33.574   8.402  1.00  0.00     0.037 A 
HETATM   16  C   UNL     1      54.375 -32.790   9.073  1.00  0.00     0.068 A 
HETATM   17  C   UNL     1      54.528 -31.449   8.715  1.00  0.00     0.037 A 
HETATM   18  C   UNL     1      53.745 -30.899   7.693  1.00  0.00     0.016 A 
BRANCH  16  19
HETATM   19  O   UNL     1      55.070 -33.446  10.051  1.00  0.00    -0.352 OA
BRANCH  19  20
HETATM   20  C   UNL     1      55.172 -32.804  11.320  1.00  0.00     0.171 C 
HETATM   21  C   UNL     1      53.846 -32.976  12.039  1.00  0.00     0.034 C 
ENDBRANCH  19  20
ENDBRANCH  16  19
ENDBRANCH  12  13
ENDBRANCH   8  11
ENDBRANCH   5   7
BRANCH   1  22
HETATM   22  C   UNL     1      46.889 -28.773   0.451  1.00  0.00    -0.005 A 
HETATM   23  C   UNL     1      45.491 -28.819   0.349  1.00  0.00     0.016 A 
HETATM   24  C   UNL     1      44.841 -28.464  -0.839  1.00  0.00     0.037 A 
HETATM   25  C   UNL     1      45.582 -28.059  -1.947  1.00  0.00     0.068 A 
HETATM   26  C   UNL     1      46.976 -28.043  -1.865  1.00  0.00     0.037 A 
HETATM   27  C   UNL     1      47.627 -28.392  -0.676  1.00  0.00     0.016 A 
BRANCH  25  28
HETATM   28  O   UNL     1      45.074 -27.669  -3.155  1.00  0.00    -0.351 OA
BRANCH  28  29
HETATM   29  C   UNL     1      45.125 -28.629  -4.212  1.00  0.00     0.175 C 
BRANCH  29  30
HETATM   30  C   UNL     1      43.899 -29.527  -4.085  1.00  0.00     0.022 C 
HETATM   31  C   UNL     1      44.283 -30.980  -3.864  1.00  0.00     0.007 C 
ENDBRANCH  29  30
ENDBRANCH  28  29
ENDBRANCH  25  28
ENDBRANCH   1  22
TORSDOF 9
ENDMDL
