MODEL 1
REMARK VINA RESULT:      -8.6      0.000      0.000
REMARK  5 active torsions:
REMARK  status: ('A' for Active; 'I' for Inactive)
REMARK    1  A    between atoms: C_2  and  N_3 
REMARK    2  A    between atoms: C_2  and  C_14 
REMARK       I    between atoms: N_3  and  C_4 
REMARK       I    between atoms: C_4  and  N_5 
REMARK    3  A    between atoms: N_5  and  C_6 
REMARK    4  A    between atoms: C_6  and  C_7 
REMARK    5  A    between atoms: C_16  and  C_17 
ROOT
HETATM    1  C   UNL     1      45.808 -10.510   8.081  1.00  0.00     0.041 C 
HETATM    2  C   UNL     1      44.284 -10.544   8.189  1.00  0.00     0.153 C 
ENDROOT
BRANCH   2   3
HETATM    3  N   UNL     1      43.861 -10.772   9.556  1.00  0.00    -0.332 N 
HETATM    4  C   UNL     1      42.770 -10.131  10.069  1.00  0.00     0.317 C 
HETATM    5  N   UNL     1      42.626 -10.354  11.409  1.00  0.00    -0.339 N 
HETATM    6  O   UNL     1      42.018  -9.434   9.401  1.00  0.00    -0.247 OA
HETATM    7  H   UNL     1      43.036 -11.201  11.772  1.00  0.00     0.164 HD
HETATM    8  H   UNL     1      44.572 -11.095  10.197  1.00  0.00     0.165 HD
BRANCH   5   9
HETATM    9  C   UNL     1      41.470  -9.842  12.107  1.00  0.00     0.162 C 
BRANCH   9  10
HETATM   10  C   UNL     1      41.874  -8.892  13.203  1.00  0.00    -0.040 A 
HETATM   11  C   UNL     1      42.968  -8.031  13.018  1.00  0.00     0.009 A 
HETATM   12  C   UNL     1      43.344  -7.136  14.020  1.00  0.00     0.001 A 
HETATM   13  C   UNL     1      42.632  -7.092  15.216  1.00  0.00     0.000 A 
HETATM   14  C   UNL     1      41.547  -7.944  15.415  1.00  0.00     0.001 A 
HETATM   15  C   UNL     1      41.170  -8.843  14.413  1.00  0.00     0.009 A 
ENDBRANCH   9  10
ENDBRANCH   5   9
ENDBRANCH   2   3
BRANCH   2  16
HETATM   16  C   UNL     1      43.720 -11.642   7.352  1.00  0.00     0.145 A 
HETATM   17  N   UNL     1      44.251 -12.812   7.059  1.00  0.00    -0.210 NA
HETATM   18  C   UNL     1      43.300 -13.414   6.259  1.00  0.00     0.181 A 
HETATM   19  N   UNL     1      42.214 -12.652   6.048  1.00  0.00    -0.152 NA
HETATM   20  N   UNL     1      42.499 -11.550   6.753  1.00  0.00    -0.261 N 
HETATM   21  H   UNL     1      41.828 -10.790   6.781  1.00  0.00     0.190 HD
BRANCH  18  22
HETATM   22  C   UNL     1      43.475 -14.755   5.706  1.00  0.00     0.014 A 
HETATM   23  C   UNL     1      42.961 -15.072   4.439  1.00  0.00     0.017 A 
HETATM   24  C   UNL     1      43.133 -16.352   3.902  1.00  0.00     0.025 A 
HETATM   25  C   UNL     1      43.819 -17.322   4.628  1.00  0.00     0.034 A 
HETATM   26 CL   UNL     1      44.033 -18.896   3.966  1.00  0.00    -0.084 Cl
HETATM   27  C   UNL     1      44.334 -17.026   5.888  1.00  0.00     0.025 A 
HETATM   28  C   UNL     1      44.162 -15.746   6.425  1.00  0.00     0.017 A 
ENDBRANCH  18  22
ENDBRANCH   2  16
TORSDOF 5
ENDMDL
MODEL 2
REMARK VINA RESULT:      -8.5      1.724      2.889
REMARK  5 active torsions:
REMARK  status: ('A' for Active; 'I' for Inactive)
REMARK    1  A    between atoms: C_2  and  N_3 
REMARK    2  A    between atoms: C_2  and  C_14 
REMARK       I    between atoms: N_3  and  C_4 
REMARK       I    between atoms: C_4  and  N_5 
REMARK    3  A    between atoms: N_5  and  C_6 
REMARK    4  A    between atoms: C_6  and  C_7 
REMARK    5  A    between atoms: C_16  and  C_17 
ROOT
HETATM    1  C   UNL     1      43.581 -11.546   5.079  1.00  0.00     0.041 C 
HETATM    2  C   UNL     1      42.949 -12.209   6.302  1.00  0.00     0.153 C 
ENDROOT
BRANCH   2   3
HETATM    3  N   UNL     1      43.704 -11.918   7.504  1.00  0.00    -0.332 N 
HETATM    4  C   UNL     1      43.770 -10.648   8.003  1.00  0.00     0.317 C 
HETATM    5  N   UNL     1      44.651 -10.549   9.041  1.00  0.00    -0.339 N 
HETATM    6  O   UNL     1      43.118  -9.713   7.558  1.00  0.00    -0.247 OA
HETATM    7  H   UNL     1      44.835 -11.394   9.560  1.00  0.00     0.164 HD
HETATM    8  H   UNL     1      44.450 -12.561   7.731  1.00  0.00     0.165 HD
BRANCH   5   9
HETATM    9  C   UNL     1      44.779  -9.305   9.763  1.00  0.00     0.162 C 
BRANCH   9  10
HETATM   10  C   UNL     1      43.957  -9.321  11.025  1.00  0.00    -0.040 A 
HETATM   11  C   UNL     1      43.569 -10.544  11.594  1.00  0.00     0.009 A 
HETATM   12  C   UNL     1      42.820 -10.574  12.771  1.00  0.00     0.001 A 
HETATM   13  C   UNL     1      42.449  -9.382  13.389  1.00  0.00     0.000 A 
HETATM   14  C   UNL     1      42.824  -8.160  12.832  1.00  0.00     0.001 A 
HETATM   15  C   UNL     1      43.573  -8.129  11.653  1.00  0.00     0.009 A 
ENDBRANCH   9  10
ENDBRANCH   5   9
ENDBRANCH   2   3
BRANCH   2  16
HETATM   16  C   UNL     1      42.911 -13.691   6.139  1.00  0.00     0.145 A 
HETATM   17  N   UNL     1      43.215 -14.413   5.079  1.00  0.00    -0.210 NA
HETATM   18  C   UNL     1      42.999 -15.712   5.492  1.00  0.00     0.181 A 
HETATM   19  N   UNL     1      42.568 -15.809   6.761  1.00  0.00    -0.152 NA
HETATM   20  N   UNL     1      42.533 -14.527   7.146  1.00  0.00    -0.261 N 
HETATM   21  H   UNL     1      42.246 -14.301   8.093  1.00  0.00     0.190 HD
BRANCH  18  22
HETATM   22  C   UNL     1      43.224 -16.860   4.618  1.00  0.00     0.014 A 
HETATM   23  C   UNL     1      42.744 -16.855   3.300  1.00  0.00     0.017 A 
HETATM   24  C   UNL     1      42.964 -17.949   2.457  1.00  0.00     0.025 A 
HETATM   25  C   UNL     1      43.666 -19.055   2.926  1.00  0.00     0.034 A 
HETATM   26 CL   UNL     1      43.941 -20.400   1.888  1.00  0.00    -0.084 Cl
HETATM   27  C   UNL     1      44.150 -19.080   4.233  1.00  0.00     0.025 A 
HETATM   28  C   UNL     1      43.929 -17.985   5.075  1.00  0.00     0.017 A 
ENDBRANCH  18  22
ENDBRANCH   2  16
TORSDOF 5
ENDMDL
MODEL 3
REMARK VINA RESULT:      -8.5      4.923     10.093
REMARK  5 active torsions:
REMARK  status: ('A' for Active; 'I' for Inactive)
REMARK    1  A    between atoms: C_2  and  N_3 
REMARK    2  A    between atoms: C_2  and  C_14 
REMARK       I    between atoms: N_3  and  C_4 
REMARK       I    between atoms: C_4  and  N_5 
REMARK    3  A    between atoms: N_5  and  C_6 
REMARK    4  A    between atoms: C_6  and  C_7 
REMARK    5  A    between atoms: C_16  and  C_17 
ROOT
HETATM    1  C   UNL     1      39.670 -12.752   3.421  1.00  0.00     0.041 C 
HETATM    2  C   UNL     1      41.054 -13.178   2.934  1.00  0.00     0.153 C 
ENDROOT
BRANCH   2   3
HETATM    3  N   UNL     1      41.270 -14.595   3.144  1.00  0.00    -0.332 N 
HETATM    4  C   UNL     1      42.208 -15.277   2.424  1.00  0.00     0.317 C 
HETATM    5  N   UNL     1      42.153 -16.622   2.651  1.00  0.00    -0.339 N 
HETATM    6  O   UNL     1      42.997 -14.738   1.659  1.00  0.00    -0.247 OA
HETATM    7  H   UNL     1      41.762 -16.916   3.533  1.00  0.00     0.164 HD
HETATM    8  H   UNL     1      40.494 -15.114   3.533  1.00  0.00     0.165 HD
BRANCH   5   9
HETATM    9  C   UNL     1      43.136 -17.497   2.055  1.00  0.00     0.162 C 
BRANCH   9  10
HETATM   10  C   UNL     1      43.502 -18.620   2.990  1.00  0.00    -0.040 A 
HETATM   11  C   UNL     1      43.781 -18.348   4.338  1.00  0.00     0.009 A 
HETATM   12  C   UNL     1      44.106 -19.381   5.218  1.00  0.00     0.001 A 
HETATM   13  C   UNL     1      44.157 -20.695   4.759  1.00  0.00     0.000 A 
HETATM   14  C   UNL     1      43.887 -20.978   3.421  1.00  0.00     0.001 A 
HETATM   15  C   UNL     1      43.562 -19.945   2.539  1.00  0.00     0.009 A 
ENDBRANCH   9  10
ENDBRANCH   5   9
ENDBRANCH   2   3
BRANCH   2  16
HETATM   16  C   UNL     1      42.122 -12.443   3.672  1.00  0.00     0.145 A 
HETATM   17  N   UNL     1      42.238 -12.238   4.969  1.00  0.00    -0.210 NA
HETATM   18  C   UNL     1      43.403 -11.507   5.084  1.00  0.00     0.181 A 
HETATM   19  N   UNL     1      43.997 -11.253   3.906  1.00  0.00    -0.152 NA
HETATM   20  N   UNL     1      43.179 -11.861   3.039  1.00  0.00    -0.261 N 
HETATM   21  H   UNL     1      43.398 -11.837   2.049  1.00  0.00     0.190 HD
BRANCH  18  22
HETATM   22  C   UNL     1      43.926 -11.063   6.374  1.00  0.00     0.014 A 
HETATM   23  C   UNL     1      43.085 -10.430   7.301  1.00  0.00     0.017 A 
HETATM   24  C   UNL     1      43.579 -10.010   8.540  1.00  0.00     0.025 A 
HETATM   25  C   UNL     1      44.918 -10.220   8.860  1.00  0.00     0.034 A 
HETATM   26 CL   UNL     1      45.525  -9.707  10.385  1.00  0.00    -0.084 Cl
HETATM   27  C   UNL     1      45.769 -10.846   7.951  1.00  0.00     0.025 A 
HETATM   28  C   UNL     1      45.274 -11.266   6.712  1.00  0.00     0.017 A 
ENDBRANCH  18  22
ENDBRANCH   2  16
TORSDOF 5
ENDMDL
MODEL 4
REMARK VINA RESULT:      -8.4      3.584      9.771
REMARK  5 active torsions:
REMARK  status: ('A' for Active; 'I' for Inactive)
REMARK    1  A    between atoms: C_2  and  N_3 
REMARK    2  A    between atoms: C_2  and  C_14 
REMARK       I    between atoms: N_3  and  C_4 
REMARK       I    between atoms: C_4  and  N_5 
REMARK    3  A    between atoms: N_5  and  C_6 
REMARK    4  A    between atoms: C_6  and  C_7 
REMARK    5  A    between atoms: C_16  and  C_17 
ROOT
HETATM    1  C   UNL     1      45.841 -11.201   6.407  1.00  0.00     0.041 C 
HETATM    2  C   UNL     1      44.713 -11.929   7.136  1.00  0.00     0.153 C 
ENDROOT
BRANCH   2   3
HETATM    3  N   UNL     1      43.761 -12.492   6.198  1.00  0.00    -0.332 N 
HETATM    4  C   UNL     1      43.270 -13.754   6.369  1.00  0.00     0.317 C 
HETATM    5  N   UNL     1      42.515 -14.160   5.306  1.00  0.00    -0.339 N 
HETATM    6  O   UNL     1      43.492 -14.439   7.359  1.00  0.00    -0.247 OA
HETATM    7  H   UNL     1      42.089 -13.433   4.751  1.00  0.00     0.164 HD
HETATM    8  H   UNL     1      43.767 -12.102   5.266  1.00  0.00     0.165 HD
BRANCH   5   9
HETATM    9  C   UNL     1      41.827 -15.429   5.351  1.00  0.00     0.162 C 
BRANCH   9  10
HETATM   10  C   UNL     1      42.517 -16.452   4.488  1.00  0.00    -0.040 A 
HETATM   11  C   UNL     1      43.494 -17.294   5.042  1.00  0.00     0.009 A 
HETATM   12  C   UNL     1      44.130 -18.256   4.257  1.00  0.00     0.001 A 
HETATM   13  C   UNL     1      43.797 -18.386   2.910  1.00  0.00     0.000 A 
HETATM   14  C   UNL     1      42.833 -17.552   2.346  1.00  0.00     0.001 A 
HETATM   15  C   UNL     1      42.196 -16.588   3.131  1.00  0.00     0.009 A 
ENDBRANCH   9  10
ENDBRANCH   5   9
ENDBRANCH   2   3
BRANCH   2  16
HETATM   16  C   UNL     1      43.969 -10.993   8.028  1.00  0.00     0.145 A 
HETATM   17  N   UNL     1      43.959 -10.942   9.345  1.00  0.00    -0.210 NA
HETATM   18  C   UNL     1      43.107  -9.893   9.627  1.00  0.00     0.181 A 
HETATM   19  N   UNL     1      42.593  -9.308   8.532  1.00  0.00    -0.152 NA
HETATM   20  N   UNL     1      43.159 -10.011   7.543  1.00  0.00    -0.261 N 
HETATM   21  H   UNL     1      42.950  -9.771   6.580  1.00  0.00     0.190 HD
BRANCH  18  22
HETATM   22  C   UNL     1      42.808  -9.471  10.993  1.00  0.00     0.014 A 
HETATM   23  C   UNL     1      43.634  -8.544  11.647  1.00  0.00     0.017 A 
HETATM   24  C   UNL     1      43.347  -8.131  12.952  1.00  0.00     0.025 A 
HETATM   25  C   UNL     1      42.232  -8.642  13.611  1.00  0.00     0.034 A 
HETATM   26 CL   UNL     1      41.877  -8.132  15.216  1.00  0.00    -0.084 Cl
HETATM   27  C   UNL     1      41.401  -9.565  12.979  1.00  0.00     0.025 A 
HETATM   28  C   UNL     1      41.688  -9.977  11.673  1.00  0.00     0.017 A 
ENDBRANCH  18  22
ENDBRANCH   2  16
TORSDOF 5
ENDMDL
MODEL 5
REMARK VINA RESULT:      -8.4      3.711      9.613
REMARK  5 active torsions:
REMARK  status: ('A' for Active; 'I' for Inactive)
REMARK    1  A    between atoms: C_2  and  N_3 
REMARK    2  A    between atoms: C_2  and  C_14 
REMARK       I    between atoms: N_3  and  C_4 
REMARK       I    between atoms: C_4  and  N_5 
REMARK    3  A    between atoms: N_5  and  C_6 
REMARK    4  A    between atoms: C_6  and  C_7 
REMARK    5  A    between atoms: C_16  and  C_17 
ROOT
HETATM    1  C   UNL     1      44.889 -11.298   5.889  1.00  0.00     0.041 C 
HETATM    2  C   UNL     1      44.661 -12.068   7.188  1.00  0.00     0.153 C 
ENDROOT
BRANCH   2   3
HETATM    3  N   UNL     1      43.382 -12.750   7.175  1.00  0.00    -0.332 N 
HETATM    4  C   UNL     1      43.301 -14.085   6.898  1.00  0.00     0.317 C 
HETATM    5  N   UNL     1      42.008 -14.507   6.779  1.00  0.00    -0.339 N 
HETATM    6  O   UNL     1      44.279 -14.809   6.765  1.00  0.00    -0.247 OA
HETATM    7  H   UNL     1      41.309 -13.963   7.261  1.00  0.00     0.164 HD
HETATM    8  H   UNL     1      42.570 -12.175   7.003  1.00  0.00     0.165 HD
BRANCH   5   9
HETATM    9  C   UNL     1      41.720 -15.909   6.588  1.00  0.00     0.162 C 
BRANCH   9  10
HETATM   10  C   UNL     1      41.779 -16.283   5.130  1.00  0.00    -0.040 A 
HETATM   11  C   UNL     1      40.767 -15.857   4.255  1.00  0.00     0.009 A 
HETATM   12  C   UNL     1      40.818 -16.184   2.900  1.00  0.00     0.001 A 
HETATM   13  C   UNL     1      41.878 -16.939   2.405  1.00  0.00     0.000 A 
HETATM   14  C   UNL     1      42.887 -17.372   3.264  1.00  0.00     0.001 A 
HETATM   15  C   UNL     1      42.837 -17.047   4.622  1.00  0.00     0.009 A 
ENDBRANCH   9  10
ENDBRANCH   5   9
ENDBRANCH   2   3
BRANCH   2  16
HETATM   16  C   UNL     1      44.668 -11.144   8.358  1.00  0.00     0.145 A 
HETATM   17  N   UNL     1      43.799 -11.054   9.345  1.00  0.00    -0.210 NA
HETATM   18  C   UNL     1      44.300 -10.039  10.134  1.00  0.00     0.181 A 
HETATM   19  N   UNL     1      45.437  -9.501   9.662  1.00  0.00    -0.152 NA
HETATM   20  N   UNL     1      45.651 -10.220   8.554  1.00  0.00    -0.261 N 
HETATM   21  H   UNL     1      46.472 -10.030   7.989  1.00  0.00     0.190 HD
BRANCH  18  22
HETATM   22  C   UNL     1      43.643  -9.605  11.365  1.00  0.00     0.014 A 
HETATM   23  C   UNL     1      42.933 -10.524  12.152  1.00  0.00     0.017 A 
HETATM   24  C   UNL     1      42.309 -10.115  13.335  1.00  0.00     0.025 A 
HETATM   25  C   UNL     1      42.391  -8.785  13.738  1.00  0.00     0.034 A 
HETATM   26 CL   UNL     1      41.626  -8.282  15.195  1.00  0.00    -0.084 Cl
HETATM   27  C   UNL     1      43.090  -7.858  12.969  1.00  0.00     0.025 A 
HETATM   28  C   UNL     1      43.714  -8.267  11.786  1.00  0.00     0.017 A 
ENDBRANCH  18  22
ENDBRANCH   2  16
TORSDOF 5
ENDMDL
MODEL 6
REMARK VINA RESULT:      -8.4      3.908      9.902
REMARK  5 active torsions:
REMARK  status: ('A' for Active; 'I' for Inactive)
REMARK    1  A    between atoms: C_2  and  N_3 
REMARK    2  A    between atoms: C_2  and  C_14 
REMARK       I    between atoms: N_3  and  C_4 
REMARK       I    between atoms: C_4  and  N_5 
REMARK    3  A    between atoms: N_5  and  C_6 
REMARK    4  A    between atoms: C_6  and  C_7 
REMARK    5  A    between atoms: C_16  and  C_17 
ROOT
HETATM    1  C   UNL     1      42.471 -10.439   4.436  1.00  0.00     0.041 C 
HETATM    2  C   UNL     1      43.453 -11.500   4.930  1.00  0.00     0.153 C 
ENDROOT
BRANCH   2   3
HETATM    3  N   UNL     1      42.848 -12.817   4.927  1.00  0.00    -0.332 N 
HETATM    4  C   UNL     1      42.842 -13.585   3.799  1.00  0.00     0.317 C 
HETATM    5  N   UNL     1      42.093 -14.716   3.952  1.00  0.00    -0.339 N 
HETATM    6  O   UNL     1      43.435 -13.283   2.772  1.00  0.00    -0.247 OA
HETATM    7  H   UNL     1      41.973 -15.055   4.894  1.00  0.00     0.164 HD
HETATM    8  H   UNL     1      42.135 -12.983   5.624  1.00  0.00     0.165 HD
BRANCH   5   9
HETATM    9  C   UNL     1      42.052 -15.703   2.898  1.00  0.00     0.162 C 
BRANCH   9  10
HETATM   10  C   UNL     1      42.806 -16.947   3.289  1.00  0.00    -0.040 A 
HETATM   11  C   UNL     1      43.239 -17.118   4.613  1.00  0.00     0.009 A 
HETATM   12  C   UNL     1      43.926 -18.272   4.992  1.00  0.00     0.001 A 
HETATM   13  C   UNL     1      44.188 -19.266   4.051  1.00  0.00     0.000 A 
HETATM   14  C   UNL     1      43.768 -19.105   2.732  1.00  0.00     0.001 A 
HETATM   15  C   UNL     1      43.081 -17.950   2.350  1.00  0.00     0.009 A 
ENDBRANCH   9  10
ENDBRANCH   5   9
ENDBRANCH   2   3
BRANCH   2  16
HETATM   16  C   UNL     1      43.891 -11.205   6.325  1.00  0.00     0.145 A 
HETATM   17  N   UNL     1      43.262 -10.521   7.260  1.00  0.00    -0.210 NA
HETATM   18  C   UNL     1      44.123 -10.569   8.338  1.00  0.00     0.181 A 
HETATM   19  N   UNL     1      45.255 -11.249   8.093  1.00  0.00    -0.152 NA
HETATM   20  N   UNL     1      45.078 -11.647   6.827  1.00  0.00    -0.261 N 
HETATM   21  H   UNL     1      45.795 -12.205   6.376  1.00  0.00     0.190 HD
BRANCH  18  22
HETATM   22  C   UNL     1      43.814  -9.935   9.617  1.00  0.00     0.014 A 
HETATM   23  C   UNL     1      43.654 -10.713  10.774  1.00  0.00     0.017 A 
HETATM   24  C   UNL     1      43.366 -10.110  12.003  1.00  0.00     0.025 A 
HETATM   25  C   UNL     1      43.235  -8.726  12.083  1.00  0.00     0.034 A 
HETATM   26 CL   UNL     1      42.884  -7.984  13.595  1.00  0.00    -0.084 Cl
HETATM   27  C   UNL     1      43.388  -7.938  10.944  1.00  0.00     0.025 A 
HETATM   28  C   UNL     1      43.677  -8.541   9.716  1.00  0.00     0.017 A 
ENDBRANCH  18  22
ENDBRANCH   2  16
TORSDOF 5
ENDMDL
MODEL 7
REMARK VINA RESULT:      -8.1      6.126     10.146
REMARK  5 active torsions:
REMARK  status: ('A' for Active; 'I' for Inactive)
REMARK    1  A    between atoms: C_2  and  N_3 
REMARK    2  A    between atoms: C_2  and  C_14 
REMARK       I    between atoms: N_3  and  C_4 
REMARK       I    between atoms: C_4  and  N_5 
REMARK    3  A    between atoms: N_5  and  C_6 
REMARK    4  A    between atoms: C_6  and  C_7 
REMARK    5  A    between atoms: C_16  and  C_17 
ROOT
HETATM    1  C   UNL     1      39.575 -12.276   5.797  1.00  0.00     0.041 C 
HETATM    2  C   UNL     1      40.324 -12.441   4.476  1.00  0.00     0.153 C 
ENDROOT
BRANCH   2   3
HETATM    3  N   UNL     1      39.409 -12.711   3.385  1.00  0.00    -0.332 N 
HETATM    4  C   UNL     1      39.420 -11.946   2.254  1.00  0.00     0.317 C 
HETATM    5  N   UNL     1      38.387 -12.254   1.416  1.00  0.00    -0.339 N 
HETATM    6  O   UNL     1      40.257 -11.082   2.030  1.00  0.00    -0.247 OA
HETATM    7  H   UNL     1      38.005 -13.184   1.493  1.00  0.00     0.164 HD
HETATM    8  H   UNL     1      38.557 -13.199   3.625  1.00  0.00     0.165 HD
BRANCH   5   9
HETATM    9  C   UNL     1      38.294 -11.620   0.121  1.00  0.00     0.162 C 
BRANCH   9  10
HETATM   10  C   UNL     1      38.505 -12.616  -0.988  1.00  0.00    -0.040 A 
HETATM   11  C   UNL     1      37.486 -12.849  -1.925  1.00  0.00     0.009 A 
HETATM   12  C   UNL     1      37.674 -13.758  -2.967  1.00  0.00     0.001 A 
HETATM   13  C   UNL     1      38.881 -14.444  -3.082  1.00  0.00     0.000 A 
HETATM   14  C   UNL     1      39.899 -14.225  -2.155  1.00  0.00     0.001 A 
HETATM   15  C   UNL     1      39.712 -13.316  -1.111  1.00  0.00     0.009 A 
ENDBRANCH   9  10
ENDBRANCH   5   9
ENDBRANCH   2   3
BRANCH   2  16
HETATM   16  C   UNL     1      41.285 -13.580   4.553  1.00  0.00     0.145 A 
HETATM   17  N   UNL     1      41.337 -14.667   3.809  1.00  0.00    -0.210 NA
HETATM   18  C   UNL     1      42.414 -15.363   4.319  1.00  0.00     0.181 A 
HETATM   19  N   UNL     1      43.015 -14.746   5.350  1.00  0.00    -0.152 NA
HETATM   20  N   UNL     1      42.293 -13.625   5.468  1.00  0.00    -0.261 N 
HETATM   21  H   UNL     1      42.540 -12.948   6.182  1.00  0.00     0.190 HD
BRANCH  18  22
HETATM   22  C   UNL     1      42.846 -16.648   3.775  1.00  0.00     0.014 A 
HETATM   23  C   UNL     1      43.839 -17.397   4.425  1.00  0.00     0.017 A 
HETATM   24  C   UNL     1      44.250 -18.631   3.912  1.00  0.00     0.025 A 
HETATM   25  C   UNL     1      43.672 -19.125   2.746  1.00  0.00     0.034 A 
HETATM   26 CL   UNL     1      44.176 -20.645   2.117  1.00  0.00    -0.084 Cl
HETATM   27  C   UNL     1      42.686 -18.395   2.085  1.00  0.00     0.025 A 
HETATM   28  C   UNL     1      42.275 -17.161   2.599  1.00  0.00     0.017 A 
ENDBRANCH  18  22
ENDBRANCH   2  16
TORSDOF 5
ENDMDL
MODEL 8
REMARK VINA RESULT:      -8.0      6.251     10.013
REMARK  5 active torsions:
REMARK  status: ('A' for Active; 'I' for Inactive)
REMARK    1  A    between atoms: C_2  and  N_3 
REMARK    2  A    between atoms: C_2  and  C_14 
REMARK       I    between atoms: N_3  and  C_4 
REMARK       I    between atoms: C_4  and  N_5 
REMARK    3  A    between atoms: N_5  and  C_6 
REMARK    4  A    between atoms: C_6  and  C_7 
REMARK    5  A    between atoms: C_16  and  C_17 
ROOT
HETATM    1  C   UNL     1      42.736 -12.062   5.507  1.00  0.00     0.041 C 
HETATM    2  C   UNL     1      42.181 -13.287   4.783  1.00  0.00     0.153 C 
ENDROOT
BRANCH   2   3
HETATM    3  N   UNL     1      43.166 -14.347   4.717  1.00  0.00    -0.332 N 
HETATM    4  C   UNL     1      42.939 -15.555   5.313  1.00  0.00     0.317 C 
HETATM    5  N   UNL     1      44.040 -16.361   5.276  1.00  0.00    -0.339 N 
HETATM    6  O   UNL     1      41.872 -15.866   5.825  1.00  0.00    -0.247 OA
HETATM    7  H   UNL     1      44.704 -16.186   4.537  1.00  0.00     0.164 HD
HETATM    8  H   UNL     1      44.123 -14.061   4.565  1.00  0.00     0.165 HD
BRANCH   5   9
HETATM    9  C   UNL     1      43.959 -17.718   5.766  1.00  0.00     0.162 C 
BRANCH   9  10
HETATM   10  C   UNL     1      43.844 -18.700   4.630  1.00  0.00    -0.040 A 
HETATM   11  C   UNL     1      43.543 -18.245   3.337  1.00  0.00     0.009 A 
HETATM   12  C   UNL     1      43.448 -19.143   2.273  1.00  0.00     0.001 A 
HETATM   13  C   UNL     1      43.653 -20.504   2.491  1.00  0.00     0.000 A 
HETATM   14  C   UNL     1      43.948 -20.969   3.771  1.00  0.00     0.001 A 
HETATM   15  C   UNL     1      44.042 -20.071   4.838  1.00  0.00     0.009 A 
ENDBRANCH   9  10
ENDBRANCH   5   9
ENDBRANCH   2   3
BRANCH   2  16
HETATM   16  C   UNL     1      41.793 -12.942   3.385  1.00  0.00     0.145 A 
HETATM   17  N   UNL     1      41.156 -13.682   2.499  1.00  0.00    -0.210 NA
HETATM   18  C   UNL     1      41.070 -12.866   1.389  1.00  0.00     0.181 A 
HETATM   19  N   UNL     1      41.637 -11.660   1.562  1.00  0.00    -0.152 NA
HETATM   20  N   UNL     1      42.072 -11.731   2.826  1.00  0.00    -0.261 N 
HETATM   21  H   UNL     1      42.543 -10.931   3.235  1.00  0.00     0.190 HD
BRANCH  18  22
HETATM   22  C   UNL     1      40.418 -13.290   0.153  1.00  0.00     0.014 A 
HETATM   23  C   UNL     1      40.000 -14.619  -0.009  1.00  0.00     0.017 A 
HETATM   24  C   UNL     1      39.368 -15.029  -1.188  1.00  0.00     0.025 A 
HETATM   25  C   UNL     1      39.151 -14.111  -2.213  1.00  0.00     0.034 A 
HETATM   26 CL   UNL     1      38.371 -14.613  -3.662  1.00  0.00    -0.084 Cl
HETATM   27  C   UNL     1      39.562 -12.787  -2.071  1.00  0.00     0.025 A 
HETATM   28  C   UNL     1      40.193 -12.379  -0.892  1.00  0.00     0.017 A 
ENDBRANCH  18  22
ENDBRANCH   2  16
TORSDOF 5
ENDMDL
MODEL 9
REMARK VINA RESULT:      -8.0      3.755      9.927
REMARK  5 active torsions:
REMARK  status: ('A' for Active; 'I' for Inactive)
REMARK    1  A    between atoms: C_2  and  N_3 
REMARK    2  A    between atoms: C_2  and  C_14 
REMARK       I    between atoms: N_3  and  C_4 
REMARK       I    between atoms: C_4  and  N_5 
REMARK    3  A    between atoms: N_5  and  C_6 
REMARK    4  A    between atoms: C_6  and  C_7 
REMARK    5  A    between atoms: C_16  and  C_17 
ROOT
HETATM    1  C   UNL     1      42.083  -9.100   6.897  1.00  0.00     0.041 C 
HETATM    2  C   UNL     1      43.024 -10.214   7.353  1.00  0.00     0.153 C 
ENDROOT
BRANCH   2   3
HETATM    3  N   UNL     1      42.502 -11.518   6.998  1.00  0.00    -0.332 N 
HETATM    4  C   UNL     1      43.339 -12.535   6.640  1.00  0.00     0.317 C 
HETATM    5  N   UNL     1      42.657 -13.629   6.192  1.00  0.00    -0.339 N 
HETATM    6  O   UNL     1      44.559 -12.463   6.708  1.00  0.00    -0.247 OA
HETATM    7  H   UNL     1      41.709 -13.736   6.519  1.00  0.00     0.164 HD
HETATM    8  H   UNL     1      41.548 -11.544   6.666  1.00  0.00     0.165 HD
BRANCH   5   9
HETATM    9  C   UNL     1      43.369 -14.842   5.864  1.00  0.00     0.162 C 
BRANCH   9  10
HETATM   10  C   UNL     1      42.760 -15.525   4.668  1.00  0.00    -0.040 A 
HETATM   11  C   UNL     1      43.469 -16.535   4.000  1.00  0.00     0.009 A 
HETATM   12  C   UNL     1      42.909 -17.186   2.899  1.00  0.00     0.001 A 
HETATM   13  C   UNL     1      41.637 -16.833   2.455  1.00  0.00     0.000 A 
HETATM   14  C   UNL     1      40.925 -15.827   3.107  1.00  0.00     0.001 A 
HETATM   15  C   UNL     1      41.484 -15.174   4.208  1.00  0.00     0.009 A 
ENDBRANCH   9  10
ENDBRANCH   5   9
ENDBRANCH   2   3
BRANCH   2  16
HETATM   16  C   UNL     1      43.197 -10.184   8.835  1.00  0.00     0.145 A 
HETATM   17  N   UNL     1      42.637  -9.379   9.716  1.00  0.00    -0.210 NA
HETATM   18  C   UNL     1      43.155  -9.801  10.923  1.00  0.00     0.181 A 
HETATM   19  N   UNL     1      44.015 -10.827  10.811  1.00  0.00    -0.152 NA
HETATM   20  N   UNL     1      44.015 -11.054   9.492  1.00  0.00    -0.261 N 
HETATM   21  H   UNL     1      44.585 -11.804   9.116  1.00  0.00     0.190 HD
BRANCH  18  22
HETATM   22  C   UNL     1      42.789  -9.180  12.194  1.00  0.00     0.014 A 
HETATM   23  C   UNL     1      43.487  -8.056  12.662  1.00  0.00     0.017 A 
HETATM   24  C   UNL     1      43.135  -7.453  13.873  1.00  0.00     0.025 A 
HETATM   25  C   UNL     1      42.083  -7.969  14.625  1.00  0.00     0.034 A 
HETATM   26 CL   UNL     1      41.648  -7.225  16.114  1.00  0.00    -0.084 Cl
HETATM   27  C   UNL     1      41.380  -9.086  14.177  1.00  0.00     0.025 A 
HETATM   28  C   UNL     1      41.732  -9.688  12.965  1.00  0.00     0.017 A 
ENDBRANCH  18  22
ENDBRANCH   2  16
TORSDOF 5
ENDMDL
MODEL 10
REMARK VINA RESULT:      -7.4      6.433      9.833
REMARK  5 active torsions:
REMARK  status: ('A' for Active; 'I' for Inactive)
REMARK    1  A    between atoms: C_2  and  N_3 
REMARK    2  A    between atoms: C_2  and  C_14 
REMARK       I    between atoms: N_3  and  C_4 
REMARK       I    between atoms: C_4  and  N_5 
REMARK    3  A    between atoms: N_5  and  C_6 
REMARK    4  A    between atoms: C_6  and  C_7 
REMARK    5  A    between atoms: C_16  and  C_17 
ROOT
HETATM    1  C   UNL     1      40.375 -11.036   5.211  1.00  0.00     0.041 C 
HETATM    2  C   UNL     1      39.628 -12.214   4.589  1.00  0.00     0.153 C 
ENDROOT
BRANCH   2   3
HETATM    3  N   UNL     1      40.179 -13.478   5.035  1.00  0.00    -0.332 N 
HETATM    4  C   UNL     1      41.497 -13.777   4.841  1.00  0.00     0.317 C 
HETATM    5  N   UNL     1      41.787 -15.066   5.185  1.00  0.00    -0.339 N 
HETATM    6  O   UNL     1      42.314 -12.979   4.402  1.00  0.00    -0.247 OA
HETATM    7  H   UNL     1      41.179 -15.501   5.862  1.00  0.00     0.164 HD
HETATM    8  H   UNL     1      39.524 -14.241   5.136  1.00  0.00     0.165 HD
BRANCH   5   9
HETATM    9  C   UNL     1      43.153 -15.535   5.144  1.00  0.00     0.162 C 
BRANCH   9  10
HETATM   10  C   UNL     1      43.283 -16.755   4.271  1.00  0.00    -0.040 A 
HETATM   11  C   UNL     1      42.508 -16.871   3.106  1.00  0.00     0.009 A 
HETATM   12  C   UNL     1      42.629 -17.989   2.281  1.00  0.00     0.001 A 
HETATM   13  C   UNL     1      43.525 -19.003   2.611  1.00  0.00     0.000 A 
HETATM   14  C   UNL     1      44.297 -18.903   3.767  1.00  0.00     0.001 A 
HETATM   15  C   UNL     1      44.176 -17.785   4.596  1.00  0.00     0.009 A 
ENDBRANCH   9  10
ENDBRANCH   5   9
ENDBRANCH   2   3
BRANCH   2  16
HETATM   16  C   UNL     1      39.728 -12.177   3.102  1.00  0.00     0.145 A 
HETATM   17  N   UNL     1      39.161 -12.972   2.216  1.00  0.00    -0.210 NA
HETATM   18  C   UNL     1      39.599 -12.479   1.003  1.00  0.00     0.181 A 
HETATM   19  N   UNL     1      40.417 -11.419   1.117  1.00  0.00    -0.152 NA
HETATM   20  N   UNL     1      40.472 -11.244   2.443  1.00  0.00    -0.261 N 
HETATM   21  H   UNL     1      41.026 -10.484   2.821  1.00  0.00     0.190 HD
BRANCH  18  22
HETATM   22  C   UNL     1      39.198 -13.066  -0.273  1.00  0.00     0.014 A 
HETATM   23  C   UNL     1      38.301 -12.390  -1.115  1.00  0.00     0.017 A 
HETATM   24  C   UNL     1      37.921 -12.944  -2.341  1.00  0.00     0.025 A 
HETATM   25  C   UNL     1      38.433 -14.178  -2.733  1.00  0.00     0.034 A 
HETATM   26 CL   UNL     1      37.967 -14.859  -4.243  1.00  0.00    -0.084 Cl
HETATM   27  C   UNL     1      39.323 -14.865  -1.909  1.00  0.00     0.025 A 
HETATM   28  C   UNL     1      39.703 -14.310  -0.684  1.00  0.00     0.017 A 
ENDBRANCH  18  22
ENDBRANCH   2  16
TORSDOF 5
ENDMDL
