MODEL 1
REMARK VINA RESULT:     -10.4      0.000      0.000
REMARK  3 active torsions:
REMARK  status: ('A' for Active; 'I' for Inactive)
REMARK    1  A    between atoms: C_7  and  C_8 
REMARK       I    between atoms: C_8  and  N_9 
REMARK    2  A    between atoms: N_9  and  C_10 
REMARK    3  A    between atoms: C_17  and  C_18 
REMARK       I    between atoms: C_18  and  N_19 
ROOT
HETATM    1  C   UNL     1      42.325 -15.121   1.969  1.00  0.00     0.258 C 
HETATM    2  N   UNL     1      40.958 -14.981   1.787  1.00  0.00    -0.323 N 
HETATM    3  O   UNL     1      43.186 -14.403   1.479  1.00  0.00    -0.267 OA
HETATM    4  H   UNL     1      40.340 -15.554   2.343  1.00  0.00     0.169 HD
ENDROOT
BRANCH   2   5
HETATM    5  C   UNL     1      40.308 -14.124   0.871  1.00  0.00     0.036 A 
HETATM    6  C   UNL     1      39.837 -14.548  -0.380  1.00  0.00     0.046 A 
HETATM    7  C   UNL     1      39.118 -13.645  -1.192  1.00  0.00     0.030 A 
HETATM    8  C   UNL     1      38.939 -12.340  -0.749  1.00  0.00     0.063 A 
HETATM    9  C   UNL     1      38.433 -13.705  -2.446  1.00  0.00     0.156 A 
HETATM   10  N   UNL     1      38.238 -11.712  -1.740  1.00  0.00    -0.277 N 
HETATM   11  C   UNL     1      39.412 -11.880   0.480  1.00  0.00     0.034 A 
HETATM   12  H   UNL     1      37.941 -10.744  -1.764  1.00  0.00     0.189 HD
HETATM   13  N   UNL     1      37.901 -12.505  -2.771  1.00  0.00    -0.168 NA
HETATM   14  C   UNL     1      40.081 -12.806   1.289  1.00  0.00     0.032 A 
BRANCH   9  15
HETATM   15  C   UNL     1      38.249 -14.879  -3.310  1.00  0.00     0.270 C 
HETATM   16  N   UNL     1      38.265 -16.072  -2.638  1.00  0.00    -0.365 N 
HETATM   17  H   UNL     1      38.426 -16.062  -1.638  1.00  0.00     0.159 HD
HETATM   18  H   UNL     1      38.200 -16.935  -3.154  1.00  0.00     0.159 HD
HETATM   19  O   UNL     1      38.115 -14.838  -4.527  1.00  0.00    -0.266 OA
ENDBRANCH   9  15
ENDBRANCH   2   5
BRANCH   1  20
HETATM   20  C   UNL     1      42.738 -16.254   2.852  1.00  0.00     0.057 A 
HETATM   21  C   UNL     1      43.048 -16.051   4.199  1.00  0.00     0.047 A 
HETATM   22  C   UNL     1      42.927 -14.714   4.874  1.00  0.00     0.071 C 
HETATM   23  N   UNL     1      43.492 -17.057   5.004  1.00  0.00    -0.252 NA
HETATM   24  C   UNL     1      43.638 -18.292   4.501  1.00  0.00     0.070 A 
HETATM   25  C   UNL     1      43.320 -18.595   3.161  1.00  0.00    -0.006 A 
HETATM   26  C   UNL     1      44.119 -19.305   5.314  1.00  0.00     0.074 A 
HETATM   27  C   UNL     1      42.850 -17.557   2.346  1.00  0.00     0.033 A 
HETATM   28  C   UNL     1      43.489 -19.904   2.670  1.00  0.00     0.017 A 
HETATM   29  C   UNL     1      43.981 -20.903   3.505  1.00  0.00     0.043 A 
HETATM   30  C   UNL     1      44.292 -20.593   4.821  1.00  0.00     0.118 A 
HETATM   31  F   UNL     1      44.769 -21.550   5.627  1.00  0.00    -0.206 F 
ENDBRANCH   1  20
TORSDOF 3
ENDMDL
MODEL 2
REMARK VINA RESULT:      -9.5      5.271      9.034
REMARK  3 active torsions:
REMARK  status: ('A' for Active; 'I' for Inactive)
REMARK    1  A    between atoms: C_7  and  C_8 
REMARK       I    between atoms: C_8  and  N_9 
REMARK    2  A    between atoms: N_9  and  C_10 
REMARK    3  A    between atoms: C_17  and  C_18 
REMARK       I    between atoms: C_18  and  N_19 
ROOT
HETATM    1  C   UNL     1      43.418 -14.211   6.417  1.00  0.00     0.258 C 
HETATM    2  N   UNL     1      44.091 -13.059   6.041  1.00  0.00    -0.323 N 
HETATM    3  O   UNL     1      42.965 -14.439   7.531  1.00  0.00    -0.267 OA
HETATM    4  H   UNL     1      44.306 -12.929   5.063  1.00  0.00     0.169 HD
ENDROOT
BRANCH   2   5
HETATM    5  C   UNL     1      44.548 -12.027   6.891  1.00  0.00     0.036 A 
HETATM    6  C   UNL     1      43.925 -11.694   8.102  1.00  0.00     0.046 A 
HETATM    7  C   UNL     1      44.504 -10.709   8.930  1.00  0.00     0.030 A 
HETATM    8  C   UNL     1      45.653 -10.059   8.498  1.00  0.00     0.063 A 
HETATM    9  C   UNL     1      44.234 -10.160  10.223  1.00  0.00     0.156 A 
HETATM   10  N   UNL     1      45.958  -9.163   9.485  1.00  0.00    -0.277 N 
HETATM   11  C   UNL     1      46.286 -10.351   7.289  1.00  0.00     0.034 A 
HETATM   12  H   UNL     1      46.729  -8.507   9.501  1.00  0.00     0.189 HD
HETATM   13  N   UNL     1      45.136  -9.205  10.546  1.00  0.00    -0.168 NA
HETATM   14  C   UNL     1      45.721 -11.364   6.507  1.00  0.00     0.032 A 
BRANCH   9  15
HETATM   15  C   UNL     1      43.168 -10.547  11.155  1.00  0.00     0.270 C 
HETATM   16  N   UNL     1      43.532 -11.525  12.041  1.00  0.00    -0.365 N 
HETATM   17  H   UNL     1      44.463 -11.918  11.973  1.00  0.00     0.159 HD
HETATM   18  H   UNL     1      42.850 -11.893  12.685  1.00  0.00     0.159 HD
HETATM   19  O   UNL     1      42.035 -10.079  11.158  1.00  0.00    -0.266 OA
ENDBRANCH   9  15
ENDBRANCH   2   5
BRANCH   1  20
HETATM   20  C   UNL     1      43.247 -15.231   5.339  1.00  0.00     0.057 A 
HETATM   21  C   UNL     1      42.319 -15.053   4.309  1.00  0.00     0.047 A 
HETATM   22  C   UNL     1      41.483 -13.813   4.167  1.00  0.00     0.071 C 
HETATM   23  N   UNL     1      42.098 -16.001   3.354  1.00  0.00    -0.252 NA
HETATM   24  C   UNL     1      42.792 -17.149   3.389  1.00  0.00     0.070 A 
HETATM   25  C   UNL     1      43.769 -17.402   4.374  1.00  0.00    -0.006 A 
HETATM   26  C   UNL     1      42.543 -18.123   2.436  1.00  0.00     0.074 A 
HETATM   27  C   UNL     1      43.998 -16.415   5.341  1.00  0.00     0.033 A 
HETATM   28  C   UNL     1      44.474 -18.621   4.377  1.00  0.00     0.017 A 
HETATM   29  C   UNL     1      44.200 -19.587   3.412  1.00  0.00     0.043 A 
HETATM   30  C   UNL     1      43.236 -19.327   2.450  1.00  0.00     0.118 A 
HETATM   31  F   UNL     1      42.967 -20.255   1.522  1.00  0.00    -0.206 F 
ENDBRANCH   1  20
TORSDOF 3
ENDMDL
MODEL 3
REMARK VINA RESULT:      -9.3      5.099      8.200
REMARK  3 active torsions:
REMARK  status: ('A' for Active; 'I' for Inactive)
REMARK    1  A    between atoms: C_7  and  C_8 
REMARK       I    between atoms: C_8  and  N_9 
REMARK    2  A    between atoms: N_9  and  C_10 
REMARK    3  A    between atoms: C_17  and  C_18 
REMARK       I    between atoms: C_18  and  N_19 
ROOT
HETATM    1  C   UNL     1      43.241 -14.223   6.081  1.00  0.00     0.258 C 
HETATM    2  N   UNL     1      43.701 -12.998   5.625  1.00  0.00    -0.323 N 
HETATM    3  O   UNL     1      42.909 -14.474   7.232  1.00  0.00    -0.267 OA
HETATM    4  H   UNL     1      43.825 -12.873   4.630  1.00  0.00     0.169 HD
ENDROOT
BRANCH   2   5
HETATM    5  C   UNL     1      44.053 -11.877   6.410  1.00  0.00     0.036 A 
HETATM    6  C   UNL     1      43.112 -10.997   6.963  1.00  0.00     0.046 A 
HETATM    7  C   UNL     1      43.550  -9.956   7.810  1.00  0.00     0.030 A 
HETATM    8  C   UNL     1      44.913  -9.801   8.033  1.00  0.00     0.063 A 
HETATM    9  C   UNL     1      42.929  -8.939   8.599  1.00  0.00     0.156 A 
HETATM   10  N   UNL     1      45.025  -8.719   8.860  1.00  0.00    -0.277 N 
HETATM   11  C   UNL     1      45.877 -10.646   7.482  1.00  0.00     0.034 A 
HETATM   12  H   UNL     1      45.878  -8.308   9.221  1.00  0.00     0.189 HD
HETATM   13  N   UNL     1      43.853  -8.182   9.236  1.00  0.00    -0.168 NA
HETATM   14  C   UNL     1      45.416 -11.700   6.684  1.00  0.00     0.032 A 
BRANCH   9  15
HETATM   15  C   UNL     1      41.492  -8.700   8.783  1.00  0.00     0.270 C 
HETATM   16  N   UNL     1      40.880  -9.601   9.613  1.00  0.00    -0.365 N 
HETATM   17  H   UNL     1      41.434 -10.355  10.000  1.00  0.00     0.159 HD
HETATM   18  H   UNL     1      39.884  -9.549   9.756  1.00  0.00     0.159 HD
HETATM   19  O   UNL     1      40.856  -7.803   8.242  1.00  0.00    -0.266 OA
ENDBRANCH   9  15
ENDBRANCH   2   5
BRANCH   1  20
HETATM   20  C   UNL     1      43.153 -15.297   5.046  1.00  0.00     0.057 A 
HETATM   21  C   UNL     1      42.319 -15.168   3.933  1.00  0.00     0.047 A 
HETATM   22  C   UNL     1      41.510 -13.932   3.656  1.00  0.00     0.071 C 
HETATM   23  N   UNL     1      42.171 -16.164   3.013  1.00  0.00    -0.252 NA
HETATM   24  C   UNL     1      42.847 -17.312   3.167  1.00  0.00     0.070 A 
HETATM   25  C   UNL     1      43.734 -17.518   4.244  1.00  0.00    -0.006 A 
HETATM   26  C   UNL     1      42.671 -18.333   2.248  1.00  0.00     0.074 A 
HETATM   27  C   UNL     1      43.890 -16.483   5.175  1.00  0.00     0.033 A 
HETATM   28  C   UNL     1      44.424 -18.739   4.371  1.00  0.00     0.017 A 
HETATM   29  C   UNL     1      44.225 -19.753   3.438  1.00  0.00     0.043 A 
HETATM   30  C   UNL     1      43.349 -19.539   2.383  1.00  0.00     0.118 A 
HETATM   31  F   UNL     1      43.151 -20.512   1.486  1.00  0.00    -0.206 F 
ENDBRANCH   1  20
TORSDOF 3
ENDMDL
MODEL 4
REMARK VINA RESULT:      -9.2      1.852      2.933
REMARK  3 active torsions:
REMARK  status: ('A' for Active; 'I' for Inactive)
REMARK    1  A    between atoms: C_7  and  C_8 
REMARK       I    between atoms: C_8  and  N_9 
REMARK    2  A    between atoms: N_9  and  C_10 
REMARK    3  A    between atoms: C_17  and  C_18 
REMARK       I    between atoms: C_18  and  N_19 
ROOT
HETATM    1  C   UNL     1      42.026 -14.887   1.913  1.00  0.00     0.258 C 
HETATM    2  N   UNL     1      40.660 -14.886   1.679  1.00  0.00    -0.323 N 
HETATM    3  O   UNL     1      42.820 -14.051   1.500  1.00  0.00    -0.267 OA
HETATM    4  H   UNL     1      40.089 -15.555   2.175  1.00  0.00     0.169 HD
ENDROOT
BRANCH   2   5
HETATM    5  C   UNL     1      39.953 -14.052   0.783  1.00  0.00     0.036 A 
HETATM    6  C   UNL     1      39.428 -12.803   1.145  1.00  0.00     0.046 A 
HETATM    7  C   UNL     1      38.815 -11.999   0.160  1.00  0.00     0.030 A 
HETATM    8  C   UNL     1      38.704 -12.490  -1.135  1.00  0.00     0.063 A 
HETATM    9  C   UNL     1      38.249 -10.687   0.106  1.00  0.00     0.156 A 
HETATM   10  N   UNL     1      38.061 -11.513  -1.841  1.00  0.00    -0.277 N 
HETATM   11  C   UNL     1      39.197 -13.736  -1.523  1.00  0.00     0.034 A 
HETATM   12  H   UNL     1      37.798 -11.534  -2.820  1.00  0.00     0.189 HD
HETATM   13  N   UNL     1      37.783 -10.406  -1.133  1.00  0.00    -0.168 NA
HETATM   14  C   UNL     1      39.843 -14.496  -0.541  1.00  0.00     0.032 A 
BRANCH   9  15
HETATM   15  C   UNL     1      38.175  -9.699   1.190  1.00  0.00     0.270 C 
HETATM   16  N   UNL     1      36.900  -9.436   1.616  1.00  0.00    -0.365 N 
HETATM   17  H   UNL     1      36.129  -9.899   1.151  1.00  0.00     0.159 HD
HETATM   18  H   UNL     1      36.746  -8.731   2.320  1.00  0.00     0.159 HD
HETATM   19  O   UNL     1      39.138  -9.122   1.679  1.00  0.00    -0.266 OA
ENDBRANCH   9  15
ENDBRANCH   2   5
BRANCH   1  20
HETATM   20  C   UNL     1      42.530 -16.018   2.749  1.00  0.00     0.057 A 
HETATM   21  C   UNL     1      42.943 -15.820   4.069  1.00  0.00     0.047 A 
HETATM   22  C   UNL     1      42.851 -14.490   4.763  1.00  0.00     0.071 C 
HETATM   23  N   UNL     1      43.469 -16.824   4.827  1.00  0.00    -0.252 NA
HETATM   24  C   UNL     1      43.596 -18.052   4.303  1.00  0.00     0.070 A 
HETATM   25  C   UNL     1      43.178 -18.350   2.989  1.00  0.00    -0.006 A 
HETATM   26  C   UNL     1      44.160 -19.061   5.065  1.00  0.00     0.074 A 
HETATM   27  C   UNL     1      42.626 -17.315   2.224  1.00  0.00     0.033 A 
HETATM   28  C   UNL     1      43.332 -19.652   2.475  1.00  0.00     0.017 A 
HETATM   29  C   UNL     1      43.908 -20.648   3.259  1.00  0.00     0.043 A 
HETATM   30  C   UNL     1      44.316 -20.342   4.549  1.00  0.00     0.118 A 
HETATM   31  F   UNL     1      44.874 -21.296   5.305  1.00  0.00    -0.206 F 
ENDBRANCH   1  20
TORSDOF 3
ENDMDL
MODEL 5
REMARK VINA RESULT:      -9.1      4.284      6.212
REMARK  3 active torsions:
REMARK  status: ('A' for Active; 'I' for Inactive)
REMARK    1  A    between atoms: C_7  and  C_8 
REMARK       I    between atoms: C_8  and  N_9 
REMARK    2  A    between atoms: N_9  and  C_10 
REMARK    3  A    between atoms: C_17  and  C_18 
REMARK       I    between atoms: C_18  and  N_19 
ROOT
HETATM    1  C   UNL     1      42.157 -14.077   3.991  1.00  0.00     0.258 C 
HETATM    2  N   UNL     1      40.818 -13.934   4.320  1.00  0.00    -0.323 N 
HETATM    3  O   UNL     1      42.984 -13.175   3.967  1.00  0.00    -0.267 OA
HETATM    4  H   UNL     1      40.260 -14.769   4.429  1.00  0.00     0.169 HD
ENDROOT
BRANCH   2   5
HETATM    5  C   UNL     1      40.113 -12.723   4.501  1.00  0.00     0.036 A 
HETATM    6  C   UNL     1      39.973 -12.091   5.745  1.00  0.00     0.046 A 
HETATM    7  C   UNL     1      39.330 -10.837   5.816  1.00  0.00     0.030 A 
HETATM    8  C   UNL     1      38.807 -10.283   4.653  1.00  0.00     0.063 A 
HETATM    9  C   UNL     1      39.064  -9.870   6.835  1.00  0.00     0.156 A 
HETATM   10  N   UNL     1      38.239  -9.101   5.037  1.00  0.00    -0.277 N 
HETATM   11  C   UNL     1      38.910 -10.895   3.404  1.00  0.00     0.034 A 
HETATM   12  H   UNL     1      37.750  -8.435   4.449  1.00  0.00     0.189 HD
HETATM   13  N   UNL     1      38.386  -8.810   6.340  1.00  0.00    -0.168 NA
HETATM   14  C   UNL     1      39.594 -12.115   3.350  1.00  0.00     0.032 A 
BRANCH   9  15
HETATM   15  C   UNL     1      39.468  -9.923   8.246  1.00  0.00     0.270 C 
HETATM   16  N   UNL     1      40.817  -9.791   8.443  1.00  0.00    -0.365 N 
HETATM   17  H   UNL     1      41.418  -9.702   7.633  1.00  0.00     0.159 HD
HETATM   18  H   UNL     1      41.194  -9.869   9.375  1.00  0.00     0.159 HD
HETATM   19  O   UNL     1      38.704 -10.093   9.188  1.00  0.00    -0.266 OA
ENDBRANCH   9  15
ENDBRANCH   2   5
BRANCH   1  20
HETATM   20  C   UNL     1      42.586 -15.468   3.652  1.00  0.00     0.057 A 
HETATM   21  C   UNL     1      42.463 -15.970   2.354  1.00  0.00     0.047 A 
HETATM   22  C   UNL     1      41.964 -15.146   1.201  1.00  0.00     0.071 C 
HETATM   23  N   UNL     1      42.784 -17.257   2.037  1.00  0.00    -0.252 NA
HETATM   24  C   UNL     1      43.240 -18.080   2.993  1.00  0.00     0.070 A 
HETATM   25  C   UNL     1      43.423 -17.650   4.324  1.00  0.00    -0.006 A 
HETATM   26  C   UNL     1      43.535 -19.395   2.674  1.00  0.00     0.074 A 
HETATM   27  C   UNL     1      43.104 -16.322   4.635  1.00  0.00     0.033 A 
HETATM   28  C   UNL     1      43.901 -18.546   5.299  1.00  0.00     0.017 A 
HETATM   29  C   UNL     1      44.185 -19.865   4.955  1.00  0.00     0.043 A 
HETATM   30  C   UNL     1      43.999 -20.277   3.644  1.00  0.00     0.118 A 
HETATM   31  F   UNL     1      44.266 -21.545   3.309  1.00  0.00    -0.206 F 
ENDBRANCH   1  20
TORSDOF 3
ENDMDL
MODEL 6
REMARK VINA RESULT:      -9.1      4.866      7.847
REMARK  3 active torsions:
REMARK  status: ('A' for Active; 'I' for Inactive)
REMARK    1  A    between atoms: C_7  and  C_8 
REMARK       I    between atoms: C_8  and  N_9 
REMARK    2  A    between atoms: N_9  and  C_10 
REMARK    3  A    between atoms: C_17  and  C_18 
REMARK       I    between atoms: C_18  and  N_19 
ROOT
HETATM    1  C   UNL     1      41.716 -14.060   5.250  1.00  0.00     0.258 C 
HETATM    2  N   UNL     1      42.345 -12.881   4.881  1.00  0.00    -0.323 N 
HETATM    3  O   UNL     1      40.934 -14.188   6.183  1.00  0.00    -0.267 OA
HETATM    4  H   UNL     1      42.869 -12.869   4.018  1.00  0.00     0.169 HD
ENDROOT
BRANCH   2   5
HETATM    5  C   UNL     1      42.361 -11.667   5.603  1.00  0.00     0.036 A 
HETATM    6  C   UNL     1      43.373 -11.325   6.512  1.00  0.00     0.046 A 
HETATM    7  C   UNL     1      43.356 -10.050   7.119  1.00  0.00     0.030 A 
HETATM    8  C   UNL     1      42.305  -9.186   6.837  1.00  0.00     0.063 A 
HETATM    9  C   UNL     1      44.208  -9.318   8.004  1.00  0.00     0.156 A 
HETATM   10  N   UNL     1      42.550  -8.062   7.575  1.00  0.00    -0.277 N 
HETATM   11  C   UNL     1      41.272  -9.503   5.955  1.00  0.00     0.034 A 
HETATM   12  H   UNL     1      41.982  -7.225   7.627  1.00  0.00     0.189 HD
HETATM   13  N   UNL     1      43.694  -8.098   8.279  1.00  0.00    -0.168 NA
HETATM   14  C   UNL     1      41.336 -10.753   5.327  1.00  0.00     0.032 A 
BRANCH   9  15
HETATM   15  C   UNL     1      45.501  -9.742   8.556  1.00  0.00     0.270 C 
HETATM   16  N   UNL     1      46.584  -9.257   7.872  1.00  0.00    -0.365 N 
HETATM   17  H   UNL     1      46.421  -8.690   7.049  1.00  0.00     0.159 HD
HETATM   18  H   UNL     1      47.512  -9.538   8.145  1.00  0.00     0.159 HD
HETATM   19  O   UNL     1      45.642 -10.480   9.523  1.00  0.00    -0.266 OA
ENDBRANCH   9  15
ENDBRANCH   2   5
BRANCH   1  20
HETATM   20  C   UNL     1      42.042 -15.249   4.405  1.00  0.00     0.057 A 
HETATM   21  C   UNL     1      41.350 -15.512   3.220  1.00  0.00     0.047 A 
HETATM   22  C   UNL     1      40.288 -14.600   2.674  1.00  0.00     0.071 C 
HETATM   23  N   UNL     1      41.585 -16.626   2.471  1.00  0.00    -0.252 NA
HETATM   24  C   UNL     1      42.513 -17.508   2.870  1.00  0.00     0.070 A 
HETATM   25  C   UNL     1      43.281 -17.310   4.036  1.00  0.00    -0.006 A 
HETATM   26  C   UNL     1      42.727 -18.655   2.123  1.00  0.00     0.074 A 
HETATM   27  C   UNL     1      43.041 -16.153   4.791  1.00  0.00     0.033 A 
HETATM   28  C   UNL     1      44.244 -18.260   4.422  1.00  0.00     0.017 A 
HETATM   29  C   UNL     1      44.436 -19.408   3.658  1.00  0.00     0.043 A 
HETATM   30  C   UNL     1      43.674 -19.594   2.514  1.00  0.00     0.118 A 
HETATM   31  F   UNL     1      43.853 -20.698   1.778  1.00  0.00    -0.206 F 
ENDBRANCH   1  20
TORSDOF 3
ENDMDL
MODEL 7
REMARK VINA RESULT:      -9.1      5.472      7.927
REMARK  3 active torsions:
REMARK  status: ('A' for Active; 'I' for Inactive)
REMARK    1  A    between atoms: C_7  and  C_8 
REMARK       I    between atoms: C_8  and  N_9 
REMARK    2  A    between atoms: N_9  and  C_10 
REMARK    3  A    between atoms: C_17  and  C_18 
REMARK       I    between atoms: C_18  and  N_19 
ROOT
HETATM    1  C   UNL     1      42.063 -14.513   6.031  1.00  0.00     0.258 C 
HETATM    2  N   UNL     1      42.856 -13.427   5.697  1.00  0.00    -0.323 N 
HETATM    3  O   UNL     1      41.021 -14.463   6.671  1.00  0.00    -0.267 OA
HETATM    4  H   UNL     1      43.625 -13.574   5.058  1.00  0.00     0.169 HD
ENDROOT
BRANCH   2   5
HETATM    5  C   UNL     1      42.730 -12.104   6.177  1.00  0.00     0.036 A 
HETATM    6  C   UNL     1      43.682 -11.490   7.003  1.00  0.00     0.046 A 
HETATM    7  C   UNL     1      43.518 -10.134   7.361  1.00  0.00     0.030 A 
HETATM    8  C   UNL     1      42.386  -9.457   6.923  1.00  0.00     0.063 A 
HETATM    9  C   UNL     1      44.270  -9.162   8.090  1.00  0.00     0.156 A 
HETATM   10  N   UNL     1      42.496  -8.195   7.436  1.00  0.00    -0.277 N 
HETATM   11  C   UNL     1      41.410 -10.044   6.118  1.00  0.00     0.034 A 
HETATM   12  H   UNL     1      41.841  -7.430   7.330  1.00  0.00     0.189 HD
HETATM   13  N   UNL     1      43.624  -7.974   8.131  1.00  0.00    -0.168 NA
HETATM   14  C   UNL     1      41.618 -11.375   5.736  1.00  0.00     0.032 A 
BRANCH   9  15
HETATM   15  C   UNL     1      45.591  -9.332   8.710  1.00  0.00     0.270 C 
HETATM   16  N   UNL     1      46.633  -9.270   7.824  1.00  0.00    -0.365 N 
HETATM   17  H   UNL     1      46.425  -9.148   6.840  1.00  0.00     0.159 HD
HETATM   18  H   UNL     1      47.573  -9.429   8.149  1.00  0.00     0.159 HD
HETATM   19  O   UNL     1      45.784  -9.537   9.902  1.00  0.00    -0.266 OA
ENDBRANCH   9  15
ENDBRANCH   2   5
BRANCH   1  20
HETATM   20  C   UNL     1      42.554 -15.837   5.542  1.00  0.00     0.057 A 
HETATM   21  C   UNL     1      43.332 -16.668   6.352  1.00  0.00     0.047 A 
HETATM   22  C   UNL     1      43.673 -16.336   7.777  1.00  0.00     0.071 C 
HETATM   23  N   UNL     1      43.848 -17.848   5.903  1.00  0.00    -0.252 NA
HETATM   24  C   UNL     1      43.604 -18.240   4.643  1.00  0.00     0.070 A 
HETATM   25  C   UNL     1      42.805 -17.479   3.765  1.00  0.00    -0.006 A 
HETATM   26  C   UNL     1      44.155 -19.424   4.182  1.00  0.00     0.074 A 
HETATM   27  C   UNL     1      42.268 -16.276   4.242  1.00  0.00     0.033 A 
HETATM   28  C   UNL     1      42.575 -17.924   2.450  1.00  0.00     0.017 A 
HETATM   29  C   UNL     1      43.146 -19.114   2.007  1.00  0.00     0.043 A 
HETATM   30  C   UNL     1      43.932 -19.853   2.879  1.00  0.00     0.118 A 
HETATM   31  F   UNL     1      44.486 -20.996   2.455  1.00  0.00    -0.206 F 
ENDBRANCH   1  20
TORSDOF 3
ENDMDL
MODEL 8
REMARK VINA RESULT:      -8.7      5.399      6.984
REMARK  3 active torsions:
REMARK  status: ('A' for Active; 'I' for Inactive)
REMARK    1  A    between atoms: C_7  and  C_8 
REMARK       I    between atoms: C_8  and  N_9 
REMARK    2  A    between atoms: N_9  and  C_10 
REMARK    3  A    between atoms: C_17  and  C_18 
REMARK       I    between atoms: C_18  and  N_19 
ROOT
HETATM    1  C   UNL     1      42.411 -14.486   5.999  1.00  0.00     0.258 C 
HETATM    2  N   UNL     1      43.392 -13.517   5.859  1.00  0.00    -0.323 N 
HETATM    3  O   UNL     1      41.291 -14.303   6.457  1.00  0.00    -0.267 OA
HETATM    4  H   UNL     1      44.232 -13.756   5.352  1.00  0.00     0.169 HD
ENDROOT
BRANCH   2   5
HETATM    5  C   UNL     1      43.368 -12.203   6.378  1.00  0.00     0.036 A 
HETATM    6  C   UNL     1      42.605 -11.167   5.819  1.00  0.00     0.046 A 
HETATM    7  C   UNL     1      42.571  -9.909   6.459  1.00  0.00     0.030 A 
HETATM    8  C   UNL     1      43.337  -9.716   7.602  1.00  0.00     0.063 A 
HETATM    9  C   UNL     1      41.885  -8.670   6.262  1.00  0.00     0.156 A 
HETATM   10  N   UNL     1      43.117  -8.420   7.973  1.00  0.00    -0.277 N 
HETATM   11  C   UNL     1      44.123 -10.718   8.172  1.00  0.00     0.034 A 
HETATM   12  H   UNL     1      43.525  -7.928   8.760  1.00  0.00     0.189 HD
HETATM   13  N   UNL     1      42.238  -7.762   7.200  1.00  0.00    -0.168 NA
HETATM   14  C   UNL     1      44.104 -11.971   7.548  1.00  0.00     0.032 A 
BRANCH   9  15
HETATM   15  C   UNL     1      40.889  -8.353   5.231  1.00  0.00     0.270 C 
HETATM   16  N   UNL     1      41.431  -7.967   4.034  1.00  0.00    -0.365 N 
HETATM   17  H   UNL     1      42.439  -7.901   3.959  1.00  0.00     0.159 HD
HETATM   18  H   UNL     1      40.825  -7.678   3.283  1.00  0.00     0.159 HD
HETATM   19  O   UNL     1      39.675  -8.393   5.393  1.00  0.00    -0.266 OA
ENDBRANCH   9  15
ENDBRANCH   2   5
BRANCH   1  20
HETATM   20  C   UNL     1      42.793 -15.853   5.533  1.00  0.00     0.057 A 
HETATM   21  C   UNL     1      43.446 -16.754   6.378  1.00  0.00     0.047 A 
HETATM   22  C   UNL     1      43.750 -16.451   7.818  1.00  0.00     0.071 C 
HETATM   23  N   UNL     1      43.864 -17.980   5.953  1.00  0.00    -0.252 NA
HETATM   24  C   UNL     1      43.644 -18.350   4.682  1.00  0.00     0.070 A 
HETATM   25  C   UNL     1      42.966 -17.518   3.768  1.00  0.00    -0.006 A 
HETATM   26  C   UNL     1      44.098 -19.584   4.246  1.00  0.00     0.074 A 
HETATM   27  C   UNL     1      42.528 -16.266   4.220  1.00  0.00     0.033 A 
HETATM   28  C   UNL     1      42.757 -17.943   2.442  1.00  0.00     0.017 A 
HETATM   29  C   UNL     1      43.229 -19.184   2.025  1.00  0.00     0.043 A 
HETATM   30  C   UNL     1      43.895 -19.994   2.933  1.00  0.00     0.118 A 
HETATM   31  F   UNL     1      44.354 -21.187   2.535  1.00  0.00    -0.206 F 
ENDBRANCH   1  20
TORSDOF 3
ENDMDL
MODEL 9
REMARK VINA RESULT:      -8.6      6.040      9.475
REMARK  3 active torsions:
REMARK  status: ('A' for Active; 'I' for Inactive)
REMARK    1  A    between atoms: C_7  and  C_8 
REMARK       I    between atoms: C_8  and  N_9 
REMARK    2  A    between atoms: N_9  and  C_10 
REMARK    3  A    between atoms: C_17  and  C_18 
REMARK       I    between atoms: C_18  and  N_19 
ROOT
HETATM    1  C   UNL     1      43.815 -11.987   6.680  1.00  0.00     0.258 C 
HETATM    2  N   UNL     1      43.052 -13.140   6.782  1.00  0.00    -0.323 N 
HETATM    3  O   UNL     1      44.762 -11.827   5.921  1.00  0.00    -0.267 OA
HETATM    4  H   UNL     1      42.218 -13.112   7.351  1.00  0.00     0.169 HD
ENDROOT
BRANCH   2   5
HETATM    5  C   UNL     1      43.322 -14.393   6.189  1.00  0.00     0.036 A 
HETATM    6  C   UNL     1      42.822 -14.776   4.936  1.00  0.00     0.046 A 
HETATM    7  C   UNL     1      43.219 -16.012   4.381  1.00  0.00     0.030 A 
HETATM    8  C   UNL     1      44.059 -16.840   5.116  1.00  0.00     0.063 A 
HETATM    9  C   UNL     1      43.005 -16.705   3.149  1.00  0.00     0.156 A 
HETATM   10  N   UNL     1      44.245 -17.950   4.341  1.00  0.00    -0.277 N 
HETATM   11  C   UNL     1      44.557 -16.498   6.374  1.00  0.00     0.034 A 
HETATM   12  H   UNL     1      44.793 -18.772   4.567  1.00  0.00     0.189 HD
HETATM   13  N   UNL     1      43.639 -17.900   3.143  1.00  0.00    -0.168 NA
HETATM   14  C   UNL     1      44.188 -15.248   6.883  1.00  0.00     0.032 A 
BRANCH   9  15
HETATM   15  C   UNL     1      42.246 -16.241   1.981  1.00  0.00     0.270 C 
HETATM   16  N   UNL     1      43.025 -15.715   0.985  1.00  0.00    -0.365 N 
HETATM   17  H   UNL     1      44.025 -15.658   1.132  1.00  0.00     0.159 HD
HETATM   18  H   UNL     1      42.588 -15.322   0.166  1.00  0.00     0.159 HD
HETATM   19  O   UNL     1      41.026 -16.281   1.877  1.00  0.00    -0.266 OA
ENDBRANCH   9  15
ENDBRANCH   2   5
BRANCH   1  20
HETATM   20  C   UNL     1      43.409 -10.870   7.584  1.00  0.00     0.057 A 
HETATM   21  C   UNL     1      42.597  -9.826   7.132  1.00  0.00     0.047 A 
HETATM   22  C   UNL     1      42.022  -9.779   5.745  1.00  0.00     0.071 C 
HETATM   23  N   UNL     1      42.271  -8.762   7.921  1.00  0.00    -0.252 NA
HETATM   24  C   UNL     1      42.735  -8.704   9.178  1.00  0.00     0.070 A 
HETATM   25  C   UNL     1      43.535  -9.727   9.728  1.00  0.00    -0.006 A 
HETATM   26  C   UNL     1      42.427  -7.607   9.965  1.00  0.00     0.074 A 
HETATM   27  C   UNL     1      43.851 -10.822   8.913  1.00  0.00     0.033 A 
HETATM   28  C   UNL     1      44.003  -9.627  11.052  1.00  0.00     0.017 A 
HETATM   29  C   UNL     1      43.686  -8.511  11.821  1.00  0.00     0.043 A 
HETATM   30  C   UNL     1      42.899  -7.510  11.269  1.00  0.00     0.118 A 
HETATM   31  F   UNL     1      42.595  -6.434  12.004  1.00  0.00    -0.206 F 
ENDBRANCH   1  20
TORSDOF 3
ENDMDL
MODEL 10
REMARK VINA RESULT:      -8.6      5.721      8.239
REMARK  3 active torsions:
REMARK  status: ('A' for Active; 'I' for Inactive)
REMARK    1  A    between atoms: C_7  and  C_8 
REMARK       I    between atoms: C_8  and  N_9 
REMARK    2  A    between atoms: N_9  and  C_10 
REMARK    3  A    between atoms: C_17  and  C_18 
REMARK       I    between atoms: C_18  and  N_19 
ROOT
HETATM    1  C   UNL     1      42.545 -10.877   5.534  1.00  0.00     0.258 C 
HETATM    2  N   UNL     1      41.476 -11.759   5.511  1.00  0.00    -0.323 N 
HETATM    3  O   UNL     1      43.112 -10.422   4.549  1.00  0.00    -0.267 OA
HETATM    4  H   UNL     1      41.009 -11.967   6.382  1.00  0.00     0.169 HD
ENDROOT
BRANCH   2   5
HETATM    5  C   UNL     1      40.961 -12.441   4.386  1.00  0.00     0.036 A 
HETATM    6  C   UNL     1      41.654 -13.463   3.722  1.00  0.00     0.046 A 
HETATM    7  C   UNL     1      41.023 -14.151   2.662  1.00  0.00     0.030 A 
HETATM    8  C   UNL     1      39.748 -13.761   2.273  1.00  0.00     0.063 A 
HETATM    9  C   UNL     1      41.345 -15.258   1.816  1.00  0.00     0.156 A 
HETATM   10  N   UNL     1      39.419 -14.583   1.231  1.00  0.00    -0.277 N 
HETATM   11  C   UNL     1      39.040 -12.735   2.898  1.00  0.00     0.034 A 
HETATM   12  H   UNL     1      38.562 -14.575   0.690  1.00  0.00     0.189 HD
HETATM   13  N   UNL     1      40.348 -15.507   0.937  1.00  0.00    -0.168 NA
HETATM   14  C   UNL     1      39.665 -12.099   3.977  1.00  0.00     0.032 A 
BRANCH   9  15
HETATM   15  C   UNL     1      42.553 -16.093   1.853  1.00  0.00     0.270 C 
HETATM   16  N   UNL     1      43.669 -15.477   1.354  1.00  0.00    -0.365 N 
HETATM   17  H   UNL     1      43.579 -14.540   0.981  1.00  0.00     0.159 HD
HETATM   18  H   UNL     1      44.534 -15.990   1.289  1.00  0.00     0.159 HD
HETATM   19  O   UNL     1      42.595 -17.246   2.263  1.00  0.00    -0.266 OA
ENDBRANCH   9  15
ENDBRANCH   2   5
BRANCH   1  20
HETATM   20  C   UNL     1      43.008 -10.470   6.895  1.00  0.00     0.057 A 
HETATM   21  C   UNL     1      44.039 -11.151   7.547  1.00  0.00     0.047 A 
HETATM   22  C   UNL     1      44.798 -12.284   6.916  1.00  0.00     0.071 C 
HETATM   23  N   UNL     1      44.431 -10.839   8.815  1.00  0.00    -0.252 NA
HETATM   24  C   UNL     1      43.817  -9.843   9.471  1.00  0.00     0.070 A 
HETATM   25  C   UNL     1      42.788  -9.082   8.880  1.00  0.00    -0.006 A 
HETATM   26  C   UNL     1      44.197  -9.550  10.770  1.00  0.00     0.074 A 
HETATM   27  C   UNL     1      42.403  -9.401   7.571  1.00  0.00     0.033 A 
HETATM   28  C   UNL     1      42.167  -8.045   9.603  1.00  0.00     0.017 A 
HETATM   29  C   UNL     1      42.562  -7.775  10.910  1.00  0.00     0.043 A 
HETATM   30  C   UNL     1      43.575  -8.531  11.482  1.00  0.00     0.118 A 
HETATM   31  F   UNL     1      43.954  -8.276  12.740  1.00  0.00    -0.206 F 
ENDBRANCH   1  20
TORSDOF 3
ENDMDL
