MODEL 1
REMARK VINA RESULT:      -8.5      0.000      0.000
REMARK  7 active torsions:
REMARK  status: ('A' for Active; 'I' for Inactive)
REMARK    1  A    between atoms: C_3  and  N_4 
REMARK       I    between atoms: N_4  and  C_5 
REMARK    2  A    between atoms: C_5  and  C_6 
REMARK    3  A    between atoms: C_6  and  C_14 
REMARK    4  A    between atoms: C_8  and  C_9 
REMARK    5  A    between atoms: C_9  and  O_15 
REMARK    6  A    between atoms: C_10  and  O_17 
REMARK    7  A    between atoms: C_22  and  N_23 
REMARK       I    between atoms: N_23  and  C_24 
REMARK       I    between atoms: C_24  and  N_25 
ROOT
HETATM    1  C           1      41.316 -14.342   5.629  0.00  0.00     0.016 C 
HETATM    2  C           1      42.845 -14.556   3.543  0.00  0.00     0.012 C 
HETATM    3  C           1      42.763 -14.326   5.089  0.00  0.00    -0.030 C 
HETATM    4  C           1      42.690 -16.012   2.982  0.00  0.00     0.008 C 
HETATM    5  C           1      43.568 -16.957   3.827  0.00  0.00     0.128 C 
HETATM    6  C           1      43.593 -15.418   5.809  0.00  0.00     0.013 C 
HETATM    7  C           1      42.759 -11.871   4.529  0.00  0.00     0.056 A 
HETATM    8  C           1      43.390 -12.922   5.406  0.00  0.00     0.056 C 
HETATM    9  C           1      43.239 -16.042   1.528  0.00  0.00     0.020 C 
HETATM   10  C           1      43.308 -16.841   5.323  0.00  0.00     0.033 C 
HETATM   11  C           1      42.032 -13.499   2.764  0.00  0.00     0.055 C 
HETATM   12  C           1      42.176 -12.126   3.353  0.00  0.00     0.012 A 
HETATM   13  N           1      42.686 -10.645   4.828  0.00  0.00    -0.227 NA
HETATM   14  C           1      42.083 -10.044   3.892  0.00  0.00     0.175 A 
HETATM   15  S           1      41.652 -10.886   2.776  0.00  0.00    -0.055 SA
ENDROOT
BRANCH  14  16
HETATM   16  N           1      41.754  -8.741   3.810  0.00  0.00    -0.287 N 
HETATM   17  C           1      40.702  -7.983   4.236  0.00  0.00     0.324 C 
HETATM   18  O           1      40.545  -6.939   3.659  0.00  0.00    -0.247 OA
HETATM   19  N           1      39.811  -8.363   5.211  0.00  0.00    -0.330 N 
HETATM   20  C           1      40.178  -9.121   6.398  0.00  0.00     0.153 C 
HETATM   21  C           1      38.433  -7.887   5.252  0.00  0.00     0.153 C 
HETATM   22  C           1      39.852  -8.307   7.651  0.00  0.00     0.187 C 
HETATM   23  O           1      38.500  -7.922   7.656  0.00  0.00    -0.388 OA
HETATM   24  C           1      38.190  -7.118   6.546  0.00  0.00     0.187 C 
HETATM   25  H           1      42.409  -8.238   3.228  0.00  0.00     0.172 HD
ENDBRANCH  14  16
BRANCH   8  26
HETATM   26  C           1      43.414 -12.503   6.891  0.00  0.00     0.114 C 
BRANCH  26  27
HETATM   27  C           1      44.611 -11.659   7.323  0.00  0.00     0.218 C 
HETATM   28  N           1      44.362 -10.896   8.434  0.00  0.00    -0.357 N 
HETATM   29  H           1      43.411 -10.921   8.805  0.00  0.00     0.162 HD
HETATM   30  O           1      45.664 -11.692   6.738  0.00  0.00    -0.274 OA
BRANCH  28  31
HETATM   31  C           1      45.314  -9.998   9.109  0.00  0.00     0.076 C 
HETATM   32  C           1      44.943  -9.874  10.595  0.00  0.00     0.032 C 
HETATM   33  C           1      45.577  -8.610   8.505  0.00  0.00     0.032 C 
ENDBRANCH  28  31
ENDBRANCH  26  27
ENDBRANCH   8  26
BRANCH   4  34
HETATM   34  C           1      41.233 -16.512   2.929  0.00  0.00     0.176 C 
BRANCH  34  35
HETATM   35  O           1      40.666 -16.339   1.642  0.00  0.00    -0.400 OA
HETATM   36  H           1      39.954 -15.700   1.681  0.00  0.00     0.209 HD
ENDBRANCH  34  35
ENDBRANCH   4  34
BRANCH   5  37
HETATM   37  O           1      43.373 -18.301   3.452  0.00  0.00    -0.395 OA
HETATM   38  H           1      43.855 -18.491   2.646  0.00  0.00     0.210 HD
ENDBRANCH   5  37
TORSDOF 7
ENDMDL
MODEL 2
REMARK VINA RESULT:      -8.4      3.137      5.262
REMARK  7 active torsions:
REMARK  status: ('A' for Active; 'I' for Inactive)
REMARK    1  A    between atoms: C_3  and  N_4 
REMARK       I    between atoms: N_4  and  C_5 
REMARK    2  A    between atoms: C_5  and  C_6 
REMARK    3  A    between atoms: C_6  and  C_14 
REMARK    4  A    between atoms: C_8  and  C_9 
REMARK    5  A    between atoms: C_9  and  O_15 
REMARK    6  A    between atoms: C_10  and  O_17 
REMARK    7  A    between atoms: C_22  and  N_23 
REMARK       I    between atoms: N_23  and  C_24 
REMARK       I    between atoms: C_24  and  N_25 
ROOT
HETATM    1  C           1      40.504 -13.956   5.808  0.00  0.00     0.016 C 
HETATM    2  C           1      41.838 -13.752   3.592  0.00  0.00     0.012 C 
HETATM    3  C           1      41.569 -14.590   4.887  0.00  0.00    -0.030 C 
HETATM    4  C           1      40.815 -13.836   2.407  0.00  0.00     0.008 C 
HETATM    5  C           1      40.471 -15.320   2.162  0.00  0.00     0.128 C 
HETATM    6  C           1      41.118 -16.016   4.484  0.00  0.00     0.013 C 
HETATM    7  C           1      43.501 -13.315   5.879  0.00  0.00     0.056 A 
HETATM    8  C           1      42.915 -14.691   5.688  0.00  0.00     0.056 C 
HETATM    9  C           1      41.503 -13.300   1.120  0.00  0.00     0.020 C 
HETATM   10  C           1      40.018 -16.046   3.421  0.00  0.00     0.033 C 
HETATM   11  C           1      42.289 -12.314   3.924  0.00  0.00     0.055 C 
HETATM   12  C           1      43.238 -12.271   5.087  0.00  0.00     0.012 A 
HETATM   13  N           1      44.277 -12.997   6.825  0.00  0.00    -0.227 NA
HETATM   14  C           1      44.567 -11.771   6.705  0.00  0.00     0.175 A 
HETATM   15  S           1      43.955 -11.087   5.565  0.00  0.00    -0.055 SA
ENDROOT
BRANCH  14  16
HETATM   16  N           1      45.331 -11.010   7.510  0.00  0.00    -0.287 N 
HETATM   17  C           1      45.166  -9.816   8.150  0.00  0.00     0.324 C 
HETATM   18  O           1      46.180  -9.249   8.463  0.00  0.00    -0.247 OA
HETATM   19  N           1      43.950  -9.223   8.393  0.00  0.00    -0.330 N 
HETATM   20  C           1      42.741  -9.955   8.738  0.00  0.00     0.153 C 
HETATM   21  C           1      43.785  -7.778   8.512  0.00  0.00     0.153 C 
HETATM   22  C           1      42.243  -9.511  10.113  0.00  0.00     0.187 C 
HETATM   23  O           1      42.056  -8.119  10.149  0.00  0.00    -0.388 OA
HETATM   24  C           1      43.256  -7.432   9.900  0.00  0.00     0.187 C 
HETATM   25  H           1      46.267 -11.384   7.582  0.00  0.00     0.172 HD
ENDBRANCH  14  16
BRANCH   8  26
HETATM   26  C           1      42.867 -15.490   7.008  0.00  0.00     0.114 C 
BRANCH  26  27
HETATM   27  C           1      43.610 -16.824   7.003  0.00  0.00     0.218 C 
HETATM   28  N           1      43.472 -17.516   5.828  0.00  0.00    -0.357 N 
HETATM   29  H           1      42.853 -17.110   5.125  0.00  0.00     0.162 HD
HETATM   30  O           1      44.259 -17.200   7.947  0.00  0.00    -0.274 OA
BRANCH  28  31
HETATM   31  C           1      44.083 -18.816   5.503  0.00  0.00     0.076 C 
HETATM   32  C           1      44.242 -18.945   3.980  0.00  0.00     0.032 C 
HETATM   33  C           1      43.457 -20.093   6.086  0.00  0.00     0.032 C 
ENDBRANCH  28  31
ENDBRANCH  26  27
ENDBRANCH   8  26
BRANCH   4  34
HETATM   34  C           1      39.536 -13.001   2.621  0.00  0.00     0.176 C 
BRANCH  34  35
HETATM   35  O           1      38.850 -12.772   1.403  0.00  0.00    -0.400 OA
HETATM   36  H           1      38.142 -12.141   1.540  0.00  0.00     0.209 HD
ENDBRANCH  34  35
ENDBRANCH   4  34
BRANCH   5  37
HETATM   37  O           1      39.458 -15.452   1.193  0.00  0.00    -0.395 OA
HETATM   38  H           1      39.480 -16.331   0.809  0.00  0.00     0.210 HD
ENDBRANCH   5  37
TORSDOF 7
ENDMDL
MODEL 3
REMARK VINA RESULT:      -8.0      2.416      4.831
REMARK  7 active torsions:
REMARK  status: ('A' for Active; 'I' for Inactive)
REMARK    1  A    between atoms: C_3  and  N_4 
REMARK       I    between atoms: N_4  and  C_5 
REMARK    2  A    between atoms: C_5  and  C_6 
REMARK    3  A    between atoms: C_6  and  C_14 
REMARK    4  A    between atoms: C_8  and  C_9 
REMARK    5  A    between atoms: C_9  and  O_15 
REMARK    6  A    between atoms: C_10  and  O_17 
REMARK    7  A    between atoms: C_22  and  N_23 
REMARK       I    between atoms: N_23  and  C_24 
REMARK       I    between atoms: C_24  and  N_25 
ROOT
HETATM    1  C           1      41.398 -11.366   3.026  0.00  0.00     0.016 C 
HETATM    2  C           1      42.044 -13.591   4.195  0.00  0.00     0.012 C 
HETATM    3  C           1      41.032 -12.399   4.114  0.00  0.00    -0.030 C 
HETATM    4  C           1      41.954 -14.737   3.128  0.00  0.00     0.008 C 
HETATM    5  C           1      40.475 -15.148   2.976  0.00  0.00     0.128 C 
HETATM    6  C           1      39.613 -12.955   3.840  0.00  0.00     0.013 C 
HETATM    7  C           1      42.444 -11.333   5.907  0.00  0.00     0.056 A 
HETATM    8  C           1      41.030 -11.668   5.503  0.00  0.00     0.056 C 
HETATM    9  C           1      42.728 -15.974   3.666  0.00  0.00     0.020 C 
HETATM   10  C           1      39.551 -13.971   2.696  0.00  0.00     0.033 C 
HETATM   11  C           1      43.483 -13.102   4.464  0.00  0.00     0.055 C 
HETATM   12  C           1      43.524 -11.981   5.461  0.00  0.00     0.012 A 
HETATM   13  N           1      42.756 -10.386   6.683  0.00  0.00    -0.227 NA
HETATM   14  C           1      44.016 -10.367   6.797  0.00  0.00     0.175 A 
HETATM   15  S           1      44.734 -11.390   6.037  0.00  0.00    -0.055 SA
ENDROOT
BRANCH  14  16
HETATM   16  N           1      44.779  -9.504   7.495  0.00  0.00    -0.287 N 
HETATM   17  C           1      44.635  -8.818   8.665  0.00  0.00     0.324 C 
HETATM   18  O           1      45.337  -7.849   8.790  0.00  0.00    -0.247 OA
HETATM   19  N           1      43.721  -9.128   9.644  0.00  0.00    -0.330 N 
HETATM   20  C           1      43.348 -10.487  10.007  0.00  0.00     0.153 C 
HETATM   21  C           1      43.166  -8.131  10.553  0.00  0.00     0.153 C 
HETATM   22  C           1      43.691 -10.743  11.474  0.00  0.00     0.187 C 
HETATM   23  O           1      43.087  -9.780  12.301  0.00  0.00    -0.388 OA
HETATM   24  C           1      43.530  -8.484  11.991  0.00  0.00     0.187 C 
HETATM   25  H           1      45.613  -9.259   6.979  0.00  0.00     0.172 HD
ENDBRANCH  14  16
BRANCH   8  26
HETATM   26  C           1      40.084 -10.456   5.638  0.00  0.00     0.114 C 
BRANCH  26  27
HETATM   27  C           1      39.329 -10.346   6.959  0.00  0.00     0.218 C 
HETATM   28  N           1      39.772  -9.321   7.753  0.00  0.00    -0.357 N 
HETATM   29  H           1      40.580  -8.795   7.416  0.00  0.00     0.162 HD
HETATM   30  O           1      38.424 -11.091   7.245  0.00  0.00    -0.274 OA
BRANCH  28  31
HETATM   31  C           1      39.235  -8.941   9.070  0.00  0.00     0.076 C 
HETATM   32  C           1      39.366  -7.422   9.262  0.00  0.00     0.032 C 
HETATM   33  C           1      39.741  -9.683  10.317  0.00  0.00     0.032 C 
ENDBRANCH  28  31
ENDBRANCH  26  27
ENDBRANCH   8  26
BRANCH   4  34
HETATM   34  C           1      42.569 -14.372   1.763  0.00  0.00     0.176 C 
BRANCH  34  35
HETATM   35  O           1      43.681 -15.194   1.453  0.00  0.00    -0.400 OA
HETATM   36  H           1      44.492 -14.692   1.532  0.00  0.00     0.209 HD
ENDBRANCH  34  35
ENDBRANCH   4  34
BRANCH   5  37
HETATM   37  O           1      40.314 -16.086   1.938  0.00  0.00    -0.395 OA
HETATM   38  H           1      39.383 -16.216   1.752  0.00  0.00     0.210 HD
ENDBRANCH   5  37
TORSDOF 7
ENDMDL
MODEL 4
REMARK VINA RESULT:      -7.9      3.279      7.873
REMARK  7 active torsions:
REMARK  status: ('A' for Active; 'I' for Inactive)
REMARK    1  A    between atoms: C_3  and  N_4 
REMARK       I    between atoms: N_4  and  C_5 
REMARK    2  A    between atoms: C_5  and  C_6 
REMARK    3  A    between atoms: C_6  and  C_14 
REMARK    4  A    between atoms: C_8  and  C_9 
REMARK    5  A    between atoms: C_9  and  O_15 
REMARK    6  A    between atoms: C_10  and  O_17 
REMARK    7  A    between atoms: C_22  and  N_23 
REMARK       I    between atoms: N_23  and  C_24 
REMARK       I    between atoms: C_24  and  N_25 
ROOT
HETATM    1  C           1      41.964  -6.989  10.498  0.00  0.00     0.016 C 
HETATM    2  C           1      40.949  -9.258  11.242  0.00  0.00     0.012 C 
HETATM    3  C           1      42.230  -8.483  10.785  0.00  0.00    -0.030 C 
HETATM    4  C           1      40.453  -9.100  12.721  0.00  0.00     0.008 C 
HETATM    5  C           1      41.668  -9.239  13.662  0.00  0.00     0.128 C 
HETATM    6  C           1      43.319  -8.612  11.879  0.00  0.00     0.013 C 
HETATM    7  C           1      41.634  -9.258   8.464  0.00  0.00     0.056 A 
HETATM    8  C           1      42.756  -9.150   9.465  0.00  0.00     0.056 C 
HETATM    9  C           1      39.479 -10.268  13.044  0.00  0.00     0.020 C 
HETATM   10  C           1      42.819  -8.313  13.295  0.00  0.00     0.033 C 
HETATM   11  C           1      39.820  -9.166  10.194  0.00  0.00     0.055 C 
HETATM   12  C           1      40.338  -9.285   8.790  0.00  0.00     0.012 A 
HETATM   13  N           1      41.800  -9.303   7.212  0.00  0.00    -0.227 NA
HETATM   14  C           1      40.661  -9.372   6.663  0.00  0.00     0.175 A 
HETATM   15  S           1      39.520  -9.377   7.579  0.00  0.00    -0.055 SA
ENDROOT
BRANCH  14  16
HETATM   16  N           1      40.366  -9.402   5.350  0.00  0.00    -0.287 N 
HETATM   17  C           1      40.753 -10.172   4.292  0.00  0.00     0.324 C 
HETATM   18  O           1      40.596  -9.680   3.205  0.00  0.00    -0.247 OA
HETATM   19  N           1      41.344 -11.408   4.402  0.00  0.00    -0.330 N 
HETATM   20  C           1      40.997 -12.389   5.419  0.00  0.00     0.153 C 
HETATM   21  C           1      42.255 -11.941   3.394  0.00  0.00     0.153 C 
HETATM   22  C           1      40.486 -13.666   4.752  0.00  0.00     0.187 C 
HETATM   23  O           1      41.428 -14.156   3.830  0.00  0.00    -0.388 OA
HETATM   24  C           1      41.681 -13.227   2.809  0.00  0.00     0.187 C 
HETATM   25  H           1      39.786  -8.616   5.092  0.00  0.00     0.172 HD
ENDBRANCH  14  16
BRANCH   8  26
HETATM   26  C           1      44.029  -8.534   8.847  0.00  0.00     0.114 C 
BRANCH  26  27
HETATM   27  C           1      45.021  -9.524   8.243  0.00  0.00     0.218 C 
HETATM   28  N           1      44.419 -10.624   7.691  0.00  0.00    -0.357 N 
HETATM   29  H           1      43.406 -10.696   7.798  0.00  0.00     0.162 HD
HETATM   30  O           1      46.210  -9.326   8.249  0.00  0.00    -0.274 OA
BRANCH  28  31
HETATM   31  C           1      45.095 -11.742   7.012  0.00  0.00     0.076 C 
HETATM   32  C           1      45.680 -11.258   5.677  0.00  0.00     0.032 C 
HETATM   33  C           1      44.329 -13.059   6.814  0.00  0.00     0.032 C 
ENDBRANCH  28  31
ENDBRANCH  26  27
ENDBRANCH   8  26
BRANCH   4  34
HETATM   34  C           1      39.693  -7.786  12.991  0.00  0.00     0.176 C 
BRANCH  34  35
HETATM   35  O           1      38.292  -7.991  13.034  0.00  0.00    -0.400 OA
HETATM   36  H           1      38.100  -8.908  13.229  0.00  0.00     0.209 HD
ENDBRANCH  34  35
ENDBRANCH   4  34
BRANCH   5  37
HETATM   37  O           1      41.307  -8.979  14.998  0.00  0.00    -0.395 OA
HETATM   38  H           1      42.090  -8.810  15.524  0.00  0.00     0.210 HD
ENDBRANCH   5  37
TORSDOF 7
ENDMDL
MODEL 5
REMARK VINA RESULT:      -7.8      2.940      6.050
REMARK  7 active torsions:
REMARK  status: ('A' for Active; 'I' for Inactive)
REMARK    1  A    between atoms: C_3  and  N_4 
REMARK       I    between atoms: N_4  and  C_5 
REMARK    2  A    between atoms: C_5  and  C_6 
REMARK    3  A    between atoms: C_6  and  C_14 
REMARK    4  A    between atoms: C_8  and  C_9 
REMARK    5  A    between atoms: C_9  and  O_15 
REMARK    6  A    between atoms: C_10  and  O_17 
REMARK    7  A    between atoms: C_22  and  N_23 
REMARK       I    between atoms: N_23  and  C_24 
REMARK       I    between atoms: C_24  and  N_25 
ROOT
HETATM    1  C           1      43.062 -13.543   3.155  0.00  0.00     0.016 C 
HETATM    2  C           1      41.740 -15.238   4.608  0.00  0.00     0.012 C 
HETATM    3  C           1      41.988 -14.651   3.178  0.00  0.00    -0.030 C 
HETATM    4  C           1      42.765 -16.270   5.194  0.00  0.00     0.008 C 
HETATM    5  C           1      43.079 -17.318   4.106  0.00  0.00     0.128 C 
HETATM    6  C           1      42.410 -15.798   2.225  0.00  0.00     0.013 C 
HETATM    7  C           1      40.080 -13.092   3.699  0.00  0.00     0.056 A 
HETATM    8  C           1      40.638 -14.036   2.665  0.00  0.00     0.056 C 
HETATM    9  C           1      42.092 -17.017   6.380  0.00  0.00     0.020 C 
HETATM   10  C           1      43.513 -16.700   2.784  0.00  0.00     0.033 C 
HETATM   11  C           1      41.319 -14.142   5.611  0.00  0.00     0.055 C 
HETATM   12  C           1      40.367 -13.153   5.003  0.00  0.00     0.012 A 
HETATM   13  N           1      39.308 -12.126   3.437  0.00  0.00    -0.227 NA
HETATM   14  C           1      39.044 -11.525   4.519  0.00  0.00     0.175 A 
HETATM   15  S           1      39.673 -12.080   5.718  0.00  0.00    -0.055 SA
ENDROOT
BRANCH  14  16
HETATM   16  N           1      38.293 -10.423   4.702  0.00  0.00    -0.287 N 
HETATM   17  C           1      38.512  -9.184   5.231  0.00  0.00     0.324 C 
HETATM   18  O           1      37.528  -8.590   5.587  0.00  0.00    -0.247 OA
HETATM   19  N           1      39.753  -8.627   5.426  0.00  0.00    -0.330 N 
HETATM   20  C           1      40.876  -8.804   4.519  0.00  0.00     0.153 C 
HETATM   21  C           1      40.024  -7.645   6.471  0.00  0.00     0.153 C 
HETATM   22  C           1      41.321  -7.446   3.976  0.00  0.00     0.187 C 
HETATM   23  O           1      41.614  -6.562   5.029  0.00  0.00    -0.388 OA
HETATM   24  C           1      40.491  -6.337   5.841  0.00  0.00     0.187 C 
HETATM   25  H           1      37.328 -10.597   4.458  0.00  0.00     0.172 HD
ENDBRANCH  14  16
BRANCH   8  26
HETATM   26  C           1      40.665 -13.406   1.256  0.00  0.00     0.114 C 
BRANCH  26  27
HETATM   27  C           1      39.831 -14.118   0.194  0.00  0.00     0.218 C 
HETATM   28  N           1      39.227 -13.259  -0.686  0.00  0.00    -0.357 N 
HETATM   29  H           1      39.340 -12.260  -0.505  0.00  0.00     0.162 HD
HETATM   30  O           1      39.742 -15.320   0.146  0.00  0.00    -0.274 OA
BRANCH  28  31
HETATM   31  C           1      38.381 -13.633  -1.831  0.00  0.00     0.076 C 
HETATM   32  C           1      39.260 -14.180  -2.966  0.00  0.00     0.032 C 
HETATM   33  C           1      37.380 -12.603  -2.379  0.00  0.00     0.032 C 
ENDBRANCH  28  31
ENDBRANCH  26  27
ENDBRANCH   8  26
BRANCH   4  34
HETATM   34  C           1      44.060 -15.631   5.734  0.00  0.00     0.176 C 
BRANCH  34  35
HETATM   35  O           1      44.658 -16.429   6.741  0.00  0.00    -0.400 OA
HETATM   36  H           1      44.254 -17.297   6.753  0.00  0.00     0.209 HD
ENDBRANCH  34  35
ENDBRANCH   4  34
BRANCH   5  37
HETATM   37  O           1      44.092 -18.200   4.530  0.00  0.00    -0.395 OA
HETATM   38  H           1      43.905 -19.089   4.223  0.00  0.00     0.210 HD
ENDBRANCH   5  37
TORSDOF 7
ENDMDL
MODEL 6
REMARK VINA RESULT:      -7.8      2.129      3.097
REMARK  7 active torsions:
REMARK  status: ('A' for Active; 'I' for Inactive)
REMARK    1  A    between atoms: C_3  and  N_4 
REMARK       I    between atoms: N_4  and  C_5 
REMARK    2  A    between atoms: C_5  and  C_6 
REMARK    3  A    between atoms: C_6  and  C_14 
REMARK    4  A    between atoms: C_8  and  C_9 
REMARK    5  A    between atoms: C_9  and  O_15 
REMARK    6  A    between atoms: C_10  and  O_17 
REMARK    7  A    between atoms: C_22  and  N_23 
REMARK       I    between atoms: N_23  and  C_24 
REMARK       I    between atoms: C_24  and  N_25 
ROOT
HETATM    1  C           1      40.951 -14.224   5.409  0.00  0.00     0.016 C 
HETATM    2  C           1      41.338 -12.833   3.253  0.00  0.00     0.012 C 
HETATM    3  C           1      41.938 -13.353   4.602  0.00  0.00    -0.030 C 
HETATM    4  C           1      41.258 -13.811   2.030  0.00  0.00     0.008 C 
HETATM    5  C           1      42.609 -14.543   1.901  0.00  0.00     0.128 C 
HETATM    6  C           1      43.222 -14.168   4.306  0.00  0.00     0.013 C 
HETATM    7  C           1      41.144 -11.169   5.574  0.00  0.00     0.056 A 
HETATM    8  C           1      42.321 -12.106   5.476  0.00  0.00     0.056 C 
HETATM    9  C           1      41.059 -12.971   0.738  0.00  0.00     0.020 C 
HETATM   10  C           1      43.057 -15.209   3.195  0.00  0.00     0.033 C 
HETATM   11  C           1      40.050 -12.012   3.479  0.00  0.00     0.055 C 
HETATM   12  C           1      40.152 -11.116   4.679  0.00  0.00     0.012 A 
HETATM   13  N           1      40.956 -10.359   6.525  0.00  0.00    -0.227 NA
HETATM   14  C           1      39.873  -9.740   6.311  0.00  0.00     0.175 A 
HETATM   15  S           1      39.166 -10.112   5.086  0.00  0.00    -0.055 SA
ENDROOT
BRANCH  14  16
HETATM   16  N           1      39.272  -8.816   7.083  0.00  0.00    -0.287 N 
HETATM   17  C           1      39.265  -8.531   8.418  0.00  0.00     0.324 C 
HETATM   18  O           1      38.323  -7.891   8.808  0.00  0.00    -0.247 OA
HETATM   19  N           1      40.209  -8.971   9.314  0.00  0.00    -0.330 N 
HETATM   20  C           1      41.626  -9.096   9.009  0.00  0.00     0.153 C 
HETATM   21  C           1      39.918  -9.183  10.728  0.00  0.00     0.153 C 
HETATM   22  C           1      42.437  -8.194   9.938  0.00  0.00     0.187 C 
HETATM   23  O           1      42.150  -8.481  11.284  0.00  0.00    -0.388 OA
HETATM   24  C           1      40.793  -8.268  11.578  0.00  0.00     0.187 C 
HETATM   25  H           1      38.617  -8.265   6.546  0.00  0.00     0.172 HD
ENDBRANCH  14  16
BRANCH   8  26
HETATM   26  C           1      42.943 -12.403   6.857  0.00  0.00     0.114 C 
BRANCH  26  27
HETATM   27  C           1      44.307 -11.772   7.121  0.00  0.00     0.218 C 
HETATM   28  N           1      44.354 -11.051   8.285  0.00  0.00    -0.357 N 
HETATM   29  H           1      43.480 -10.958   8.804  0.00  0.00     0.162 HD
HETATM   30  O           1      45.239 -11.923   6.372  0.00  0.00    -0.274 OA
BRANCH  28  31
HETATM   31  C           1      45.526 -10.345   8.829  0.00  0.00     0.076 C 
HETATM   32  C           1      45.362 -10.164  10.346  0.00  0.00     0.032 C 
HETATM   33  C           1      45.963  -9.024   8.177  0.00  0.00     0.032 C 
ENDBRANCH  28  31
ENDBRANCH  26  27
ENDBRANCH   8  26
BRANCH   4  34
HETATM   34  C           1      40.091 -14.815   2.105  0.00  0.00     0.176 C 
BRANCH  34  35
HETATM   35  O           1      39.626 -15.175   0.817  0.00  0.00    -0.400 OA
HETATM   36  H           1      39.185 -16.025   0.853  0.00  0.00     0.209 HD
ENDBRANCH  34  35
ENDBRANCH   4  34
BRANCH   5  37
HETATM   37  O           1      42.557 -15.530   0.898  0.00  0.00    -0.395 OA
HETATM   38  H           1      43.413 -15.614   0.473  0.00  0.00     0.210 HD
ENDBRANCH   5  37
TORSDOF 7
ENDMDL
MODEL 7
REMARK VINA RESULT:      -7.8      1.813      2.632
REMARK  7 active torsions:
REMARK  status: ('A' for Active; 'I' for Inactive)
REMARK    1  A    between atoms: C_3  and  N_4 
REMARK       I    between atoms: N_4  and  C_5 
REMARK    2  A    between atoms: C_5  and  C_6 
REMARK    3  A    between atoms: C_6  and  C_14 
REMARK    4  A    between atoms: C_8  and  C_9 
REMARK    5  A    between atoms: C_9  and  O_15 
REMARK    6  A    between atoms: C_10  and  O_17 
REMARK    7  A    between atoms: C_22  and  N_23 
REMARK       I    between atoms: N_23  and  C_24 
REMARK       I    between atoms: C_24  and  N_25 
ROOT
HETATM    1  C           1      41.015 -14.732   5.365  0.00  0.00     0.016 C 
HETATM    2  C           1      41.388 -13.375   3.185  0.00  0.00     0.012 C 
HETATM    3  C           1      41.982 -13.841   4.557  0.00  0.00    -0.030 C 
HETATM    4  C           1      41.369 -14.382   1.984  0.00  0.00     0.008 C 
HETATM    5  C           1      42.750 -15.064   1.896  0.00  0.00     0.128 C 
HETATM    6  C           1      43.302 -14.611   4.302  0.00  0.00     0.013 C 
HETATM    7  C           1      41.085 -11.669   5.463  0.00  0.00     0.056 A 
HETATM    8  C           1      42.299 -12.561   5.409  0.00  0.00     0.056 C 
HETATM    9  C           1      41.162 -13.579   0.669  0.00  0.00     0.020 C 
HETATM   10  C           1      43.199 -15.682   3.213  0.00  0.00     0.033 C 
HETATM   11  C           1      40.065 -12.601   3.370  0.00  0.00     0.055 C 
HETATM   12  C           1      40.108 -11.675   4.551  0.00  0.00     0.012 A 
HETATM   13  N           1      40.848 -10.847   6.393  0.00  0.00    -0.227 NA
HETATM   14  C           1      39.746 -10.276   6.145  0.00  0.00     0.175 A 
HETATM   15  S           1      39.077 -10.703   4.916  0.00  0.00    -0.055 SA
ENDROOT
BRANCH  14  16
HETATM   16  N           1      39.094  -9.359   6.885  0.00  0.00    -0.287 N 
HETATM   17  C           1      39.459  -8.234   7.567  0.00  0.00     0.324 C 
HETATM   18  O           1      38.699  -7.879   8.430  0.00  0.00    -0.247 OA
HETATM   19  N           1      40.633  -7.548   7.369  0.00  0.00    -0.330 N 
HETATM   20  C           1      41.261  -7.367   6.069  0.00  0.00     0.153 C 
HETATM   21  C           1      41.281  -6.769   8.419  0.00  0.00     0.153 C 
HETATM   22  C           1      41.359  -5.876   5.747  0.00  0.00     0.187 C 
HETATM   23  O           1      42.035  -5.190   6.770  0.00  0.00    -0.388 OA
HETATM   24  C           1      41.364  -5.305   7.999  0.00  0.00     0.187 C 
HETATM   25  H           1      38.129  -9.623   7.023  0.00  0.00     0.172 HD
ENDBRANCH  14  16
BRANCH   8  26
HETATM   26  C           1      42.906 -12.803   6.807  0.00  0.00     0.114 C 
BRANCH  26  27
HETATM   27  C           1      44.131 -11.961   7.155  0.00  0.00     0.218 C 
HETATM   28  N           1      43.975 -11.227   8.301  0.00  0.00    -0.357 N 
HETATM   29  H           1      43.061 -11.268   8.753  0.00  0.00     0.162 HD
HETATM   30  O           1      45.129 -11.973   6.479  0.00  0.00    -0.274 OA
BRANCH  28  31
HETATM   31  C           1      44.978 -10.339   8.913  0.00  0.00     0.076 C 
HETATM   32  C           1      44.682 -10.180  10.412  0.00  0.00     0.032 C 
HETATM   33  C           1      45.240  -8.968   8.271  0.00  0.00     0.032 C 
ENDBRANCH  28  31
ENDBRANCH  26  27
ENDBRANCH   8  26
BRANCH   4  34
HETATM   34  C           1      40.240 -15.429   2.061  0.00  0.00     0.176 C 
BRANCH  34  35
HETATM   35  O           1      39.694 -15.705   0.783  0.00  0.00    -0.400 OA
HETATM   36  H           1      38.891 -15.199   0.653  0.00  0.00     0.209 HD
ENDBRANCH  34  35
ENDBRANCH   4  34
BRANCH   5  37
HETATM   37  O           1      42.755 -16.073   0.914  0.00  0.00    -0.395 OA
HETATM   38  H           1      41.857 -16.328   0.698  0.00  0.00     0.210 HD
ENDBRANCH   5  37
TORSDOF 7
ENDMDL
MODEL 8
REMARK VINA RESULT:      -7.7      2.562      7.390
REMARK  7 active torsions:
REMARK  status: ('A' for Active; 'I' for Inactive)
REMARK    1  A    between atoms: C_3  and  N_4 
REMARK       I    between atoms: N_4  and  C_5 
REMARK    2  A    between atoms: C_5  and  C_6 
REMARK    3  A    between atoms: C_6  and  C_14 
REMARK    4  A    between atoms: C_8  and  C_9 
REMARK    5  A    between atoms: C_9  and  O_15 
REMARK    6  A    between atoms: C_10  and  O_17 
REMARK    7  A    between atoms: C_22  and  N_23 
REMARK       I    between atoms: N_23  and  C_24 
REMARK       I    between atoms: C_24  and  N_25 
ROOT
HETATM    1  C           1      43.765  -7.964   8.716  0.00  0.00     0.016 C 
HETATM    2  C           1      41.394  -8.870   9.253  0.00  0.00     0.012 C 
HETATM    3  C           1      42.917  -9.196   9.097  0.00  0.00    -0.030 C 
HETATM    4  C           1      40.898  -8.170  10.565  0.00  0.00     0.008 C 
HETATM    5  C           1      41.537  -8.885  11.773  0.00  0.00     0.128 C 
HETATM    6  C           1      43.446  -9.796  10.423  0.00  0.00     0.013 C 
HETATM    7  C           1      42.344  -9.807   6.721  0.00  0.00     0.056 A 
HETATM    8  C           1      43.070 -10.268   7.959  0.00  0.00     0.056 C 
HETATM    9  C           1      39.358  -8.357  10.674  0.00  0.00     0.020 C 
HETATM   10  C           1      43.051  -9.000  11.670  0.00  0.00     0.033 C 
HETATM   11  C           1      40.804  -8.264   7.962  0.00  0.00     0.055 C 
HETATM   12  C           1      41.330  -8.936   6.727  0.00  0.00     0.012 A 
HETATM   13  N           1      42.639 -10.170   5.547  0.00  0.00    -0.227 NA
HETATM   14  C           1      41.853  -9.588   4.743  0.00  0.00     0.175 A 
HETATM   15  S           1      40.870  -8.696   5.358  0.00  0.00    -0.055 SA
ENDROOT
BRANCH  14  16
HETATM   16  N           1      41.832  -9.656   3.399  0.00  0.00    -0.287 N 
HETATM   17  C           1      41.748 -10.666   2.485  0.00  0.00     0.324 C 
HETATM   18  O           1      42.147 -10.402   1.381  0.00  0.00    -0.247 OA
HETATM   19  N           1      41.306 -11.936   2.765  0.00  0.00    -0.330 N 
HETATM   20  C           1      40.225 -12.237   3.693  0.00  0.00     0.153 C 
HETATM   21  C           1      41.750 -13.110   2.021  0.00  0.00     0.153 C 
HETATM   22  C           1      39.095 -12.952   2.954  0.00  0.00     0.187 C 
HETATM   23  O           1      39.575 -14.099   2.300  0.00  0.00    -0.388 OA
HETATM   24  C           1      40.555 -13.776   1.347  0.00  0.00     0.187 C 
HETATM   25  H           1      41.998  -8.748   2.988  0.00  0.00     0.172 HD
ENDBRANCH  14  16
BRANCH   8  26
HETATM   26  C           1      44.508 -10.736   7.650  0.00  0.00     0.114 C 
BRANCH  26  27
HETATM   27  C           1      44.632 -12.101   6.977  0.00  0.00     0.218 C 
HETATM   28  N           1      43.628 -12.967   7.323  0.00  0.00    -0.357 N 
HETATM   29  H           1      42.960 -12.642   8.023  0.00  0.00     0.162 HD
HETATM   30  O           1      45.524 -12.359   6.210  0.00  0.00    -0.274 OA
BRANCH  28  31
HETATM   31  C           1      43.452 -14.343   6.828  0.00  0.00     0.076 C 
HETATM   32  C           1      42.675 -14.320   5.502  0.00  0.00     0.032 C 
HETATM   33  C           1      42.863 -15.400   7.775  0.00  0.00     0.032 C 
ENDBRANCH  28  31
ENDBRANCH  26  27
ENDBRANCH   8  26
BRANCH   4  34
HETATM   34  C           1      41.176  -6.654  10.610  0.00  0.00     0.176 C 
BRANCH  34  35
HETATM   35  O           1      40.247  -5.975  11.437  0.00  0.00    -0.400 OA
HETATM   36  H           1      40.645  -5.779  12.285  0.00  0.00     0.209 HD
ENDBRANCH  34  35
ENDBRANCH   4  34
BRANCH   5  37
HETATM   37  O           1      41.230  -8.221  12.976  0.00  0.00    -0.395 OA
HETATM   38  H           1      41.560  -8.722  13.723  0.00  0.00     0.210 HD
ENDBRANCH   5  37
TORSDOF 7
ENDMDL
MODEL 9
REMARK VINA RESULT:      -7.4      3.978      7.875
REMARK  7 active torsions:
REMARK  status: ('A' for Active; 'I' for Inactive)
REMARK    1  A    between atoms: C_3  and  N_4 
REMARK       I    between atoms: N_4  and  C_5 
REMARK    2  A    between atoms: C_5  and  C_6 
REMARK    3  A    between atoms: C_6  and  C_14 
REMARK    4  A    between atoms: C_8  and  C_9 
REMARK    5  A    between atoms: C_9  and  O_15 
REMARK    6  A    between atoms: C_10  and  O_17 
REMARK    7  A    between atoms: C_22  and  N_23 
REMARK       I    between atoms: N_23  and  C_24 
REMARK       I    between atoms: C_24  and  N_25 
ROOT
HETATM    1  C           1      42.773 -10.721   3.964  0.00  0.00     0.016 C 
HETATM    2  C           1      40.183 -10.604   4.059  0.00  0.00     0.012 C 
HETATM    3  C           1      41.462 -11.488   4.239  0.00  0.00    -0.030 C 
HETATM    4  C           1      39.789  -9.597   5.194  0.00  0.00     0.008 C 
HETATM    5  C           1      39.890 -10.325   6.550  0.00  0.00     0.128 C 
HETATM    6  C           1      41.488 -12.054   5.681  0.00  0.00     0.013 C 
HETATM    7  C           1      41.097 -12.162   1.839  0.00  0.00     0.056 A 
HETATM    8  C           1      41.371 -12.685   3.227  0.00  0.00     0.056 C 
HETATM    9  C           1      38.303  -9.185   4.997  0.00  0.00     0.020 C 
HETATM   10  C           1      41.235 -11.006   6.767  0.00  0.00     0.033 C 
HETATM   11  C           1      40.098 -10.005   2.638  0.00  0.00     0.055 C 
HETATM   12  C           1      40.517 -10.986   1.583  0.00  0.00     0.012 A 
HETATM   13  N           1      41.416 -12.766   0.776  0.00  0.00    -0.227 NA
HETATM   14  C           1      41.064 -12.050  -0.207  0.00  0.00     0.175 A 
HETATM   15  S           1      40.420 -10.782   0.136  0.00  0.00    -0.055 SA
ENDROOT
BRANCH  14  16
HETATM   16  N           1      41.241 -12.288  -1.520  0.00  0.00    -0.287 N 
HETATM   17  C           1      40.619 -13.069  -2.451  0.00  0.00     0.324 C 
HETATM   18  O           1      41.273 -13.337  -3.425  0.00  0.00    -0.247 OA
HETATM   19  N           1      39.357 -13.595  -2.311  0.00  0.00    -0.330 N 
HETATM   20  C           1      38.252 -12.899  -1.669  0.00  0.00     0.153 C 
HETATM   21  C           1      38.941 -14.835  -2.957  0.00  0.00     0.153 C 
HETATM   22  C           1      37.111 -12.711  -2.667  0.00  0.00     0.187 C 
HETATM   23  O           1      36.722 -13.945  -3.217  0.00  0.00    -0.388 OA
HETATM   24  C           1      37.781 -14.557  -3.907  0.00  0.00     0.187 C 
HETATM   25  H           1      42.079 -11.839  -1.860  0.00  0.00     0.172 HD
ENDBRANCH  14  16
BRANCH   8  26
HETATM   26  C           1      42.543 -13.690   3.249  0.00  0.00     0.114 C 
BRANCH  26  27
HETATM   27  C           1      42.152 -15.165   3.300  0.00  0.00     0.218 C 
HETATM   28  N           1      43.207 -15.995   3.573  0.00  0.00    -0.357 N 
HETATM   29  H           1      44.128 -15.560   3.646  0.00  0.00     0.162 HD
HETATM   30  O           1      41.017 -15.534   3.130  0.00  0.00    -0.274 OA
BRANCH  28  31
HETATM   31  C           1      43.153 -17.460   3.713  0.00  0.00     0.076 C 
HETATM   32  C           1      44.259 -17.928   4.672  0.00  0.00     0.032 C 
HETATM   33  C           1      43.145 -18.324   2.443  0.00  0.00     0.032 C 
ENDBRANCH  28  31
ENDBRANCH  26  27
ENDBRANCH   8  26
BRANCH   4  34
HETATM   34  C           1      40.625  -8.301   5.201  0.00  0.00     0.176 C 
BRANCH  34  35
HETATM   35  O           1      39.897  -7.212   5.741  0.00  0.00    -0.400 OA
HETATM   36  H           1      40.081  -7.127   6.677  0.00  0.00     0.209 HD
ENDBRANCH  34  35
ENDBRANCH   4  34
BRANCH   5  37
HETATM   37  O           1      39.672  -9.437   7.621  0.00  0.00    -0.395 OA
HETATM   38  H           1      40.505  -9.060   7.911  0.00  0.00     0.210 HD
ENDBRANCH   5  37
TORSDOF 7
ENDMDL
MODEL 10
REMARK VINA RESULT:      -7.4      4.177      9.668
REMARK  7 active torsions:
REMARK  status: ('A' for Active; 'I' for Inactive)
REMARK    1  A    between atoms: C_3  and  N_4 
REMARK       I    between atoms: N_4  and  C_5 
REMARK    2  A    between atoms: C_5  and  C_6 
REMARK    3  A    between atoms: C_6  and  C_14 
REMARK    4  A    between atoms: C_8  and  C_9 
REMARK    5  A    between atoms: C_9  and  O_15 
REMARK    6  A    between atoms: C_10  and  O_17 
REMARK    7  A    between atoms: C_22  and  N_23 
REMARK       I    between atoms: N_23  and  C_24 
REMARK       I    between atoms: C_24  and  N_25 
ROOT
HETATM    1  C           1      40.565  -8.465  10.948  0.00  0.00     0.016 C 
HETATM    2  C           1      42.471  -7.367  12.325  0.00  0.00     0.012 C 
HETATM    3  C           1      41.424  -7.202  11.172  0.00  0.00    -0.030 C 
HETATM    4  C           1      41.986  -7.257  13.812  0.00  0.00     0.008 C 
HETATM    5  C           1      41.070  -6.022  13.937  0.00  0.00     0.128 C 
HETATM    6  C           1      40.501  -6.000  11.493  0.00  0.00     0.013 C 
HETATM    7  C           1      43.286  -7.932   9.640  0.00  0.00     0.056 A 
HETATM    8  C           1      42.207  -6.899   9.845  0.00  0.00     0.056 C 
HETATM    9  C           1      43.225  -7.011  14.718  0.00  0.00     0.020 C 
HETATM   10  C           1      39.940  -6.008  12.918  0.00  0.00     0.033 C 
HETATM   11  C           1      43.423  -8.554  12.066  0.00  0.00     0.055 C 
HETATM   12  C           1      43.835  -8.648  10.626  0.00  0.00     0.012 A 
HETATM   13  N           1      43.760  -8.251   8.513  0.00  0.00    -0.227 NA
HETATM   14  C           1      44.628  -9.155   8.690  0.00  0.00     0.175 A 
HETATM   15  S           1      44.834  -9.568  10.078  0.00  0.00    -0.055 SA
ENDROOT
BRANCH  14  16
HETATM   16  N           1      45.353  -9.810   7.764  0.00  0.00    -0.287 N 
HETATM   17  C           1      45.197 -10.967   7.058  0.00  0.00     0.324 C 
HETATM   18  O           1      46.207 -11.445   6.612  0.00  0.00    -0.247 OA
HETATM   19  N           1      44.001 -11.622   6.889  0.00  0.00    -0.330 N 
HETATM   20  C           1      42.722 -10.950   6.712  0.00  0.00     0.153 C 
HETATM   21  C           1      43.910 -13.064   6.682  0.00  0.00     0.153 C 
HETATM   22  C           1      42.119 -11.334   5.361  0.00  0.00     0.187 C 
HETATM   23  O           1      42.012 -12.731   5.243  0.00  0.00    -0.388 OA
HETATM   24  C           1      43.269 -13.352   5.328  0.00  0.00     0.187 C 
HETATM   25  H           1      46.253  -9.371   7.632  0.00  0.00     0.172 HD
ENDBRANCH  14  16
BRANCH   8  26
HETATM   26  C           1      41.351  -6.692   8.578  0.00  0.00     0.114 C 
BRANCH  26  27
HETATM   27  C           1      41.496  -5.337   7.891  0.00  0.00     0.218 C 
HETATM   28  N           1      41.545  -5.425   6.524  0.00  0.00    -0.357 N 
HETATM   29  H           1      41.545  -6.364   6.124  0.00  0.00     0.162 HD
HETATM   30  O           1      41.545  -4.305   8.512  0.00  0.00    -0.274 OA
BRANCH  28  31
HETATM   31  C           1      41.656  -4.301   5.580  0.00  0.00     0.076 C 
HETATM   32  C           1      40.254  -3.787   5.221  0.00  0.00     0.032 C 
HETATM   33  C           1      42.500  -4.485   4.309  0.00  0.00     0.032 C 
ENDBRANCH  28  31
ENDBRANCH  26  27
ENDBRANCH   8  26
BRANCH   4  34
HETATM   34  C           1      41.282  -8.523  14.337  0.00  0.00     0.176 C 
BRANCH  34  35
HETATM   35  O           1      41.290  -8.578  15.753  0.00  0.00    -0.400 OA
HETATM   36  H           1      42.015  -9.126  16.056  0.00  0.00     0.209 HD
ENDBRANCH  34  35
ENDBRANCH   4  34
BRANCH   5  37
HETATM   37  O           1      40.500  -5.943  15.223  0.00  0.00    -0.395 OA
HETATM   38  H           1      40.525  -5.038  15.539  0.00  0.00     0.210 HD
ENDBRANCH   5  37
TORSDOF 7
ENDMDL
