MODEL 1
REMARK VINA RESULT:      -9.1      0.000      0.000
REMARK  7 active torsions:
REMARK  status: ('A' for Active; 'I' for Inactive)
REMARK    1  A    between atoms: C_5  and  O_6 
REMARK    2  A    between atoms: O_6  and  C_7 
REMARK    3  A    between atoms: C_7  and  C_8 
REMARK    4  A    between atoms: C_8  and  N_9 
REMARK       I    between atoms: N_9  and  C_10 
REMARK       I    between atoms: C_10  and  N_11 
REMARK    5  A    between atoms: N_11  and  C_12 
REMARK    6  A    between atoms: N_15  and  S_16 
REMARK    7  A    between atoms: S_16  and  C_17 
ROOT
HETATM    1  C   UNL     1      41.380 -12.486   4.966  1.00  0.00     0.103 A 
HETATM    2  S   UNL     1      41.739 -12.995   3.327  1.00  0.00    -0.032 SA
HETATM    3  C   UNL     1      40.057 -12.725   2.815  1.00  0.00     0.185 A 
HETATM    4  N   UNL     1      39.546 -12.870   1.641  1.00  0.00    -0.134 NA
HETATM    5  N   UNL     1      39.365 -12.302   3.925  1.00  0.00    -0.336 N 
HETATM    6  C   UNL     1      40.088 -12.129   5.102  1.00  0.00     0.041 A 
HETATM    7  C   UNL     1      39.415 -11.470   6.262  1.00  0.00     0.071 C 
HETATM    8  H   UNL     1      38.414 -11.971   3.845  1.00  0.00     0.168 HD
ENDROOT
BRANCH   1   9
HETATM    9  N   UNL     1      42.450 -12.470   5.801  1.00  0.00    -0.301 N 
HETATM   10  C   UNL     1      42.905 -13.251   6.811  1.00  0.00     0.321 C 
HETATM   11  N   UNL     1      42.357 -14.493   6.953  1.00  0.00    -0.341 N 
HETATM   12  O   UNL     1      43.849 -12.850   7.487  1.00  0.00    -0.247 OA
HETATM   13  H   UNL     1      41.899 -14.835   6.122  1.00  0.00     0.164 HD
HETATM   14  H   UNL     1      43.125 -11.743   5.589  1.00  0.00     0.171 HD
BRANCH  11  15
HETATM   15  C   UNL     1      43.085 -15.498   7.716  1.00  0.00     0.151 C 
BRANCH  15  16
HETATM   16  C   UNL     1      43.969 -16.420   6.876  1.00  0.00     0.195 C 
BRANCH  16  17
HETATM   17  O   UNL     1      43.792 -16.017   5.517  1.00  0.00    -0.350 OA
BRANCH  17  18
HETATM   18  C   UNL     1      43.706 -16.976   4.551  1.00  0.00     0.068 A 
HETATM   19  C   UNL     1      44.165 -18.233   4.950  1.00  0.00     0.037 A 
HETATM   20  C   UNL     1      44.128 -19.321   4.075  1.00  0.00     0.009 A 
HETATM   21  C   UNL     1      43.632 -19.161   2.780  1.00  0.00    -0.062 A 
HETATM   22  C   UNL     1      43.558 -20.328   1.840  1.00  0.00     0.048 C 
HETATM   23  C   UNL     1      43.167 -17.901   2.384  1.00  0.00     0.009 A 
HETATM   24  C   UNL     1      43.209 -16.810   3.262  1.00  0.00     0.037 A 
ENDBRANCH  17  18
ENDBRANCH  16  17
ENDBRANCH  15  16
ENDBRANCH  11  15
ENDBRANCH   1   9
BRANCH   4  25
HETATM   25  S   UNL     1      40.470 -13.382   0.413  1.00  0.00     0.285 S 
HETATM   26  O   UNL     1      41.400 -12.328   0.052  1.00  0.00    -0.198 OA
HETATM   27  O   UNL     1      40.930 -14.730   0.684  1.00  0.00    -0.198 OA
BRANCH  25  28
HETATM   28  C   UNL     1      39.340 -13.538  -0.959  1.00  0.00     0.081 A 
HETATM   29  C   UNL     1      39.422 -14.655  -1.798  1.00  0.00     0.025 A 
HETATM   30  C   UNL     1      38.526 -14.786  -2.857  1.00  0.00     0.002 A 
HETATM   31  C   UNL     1      37.558 -13.804  -3.077  1.00  0.00     0.000 A 
HETATM   32  C   UNL     1      37.484 -12.688  -2.240  1.00  0.00     0.002 A 
HETATM   33  C   UNL     1      38.376 -12.550  -1.176  1.00  0.00     0.025 A 
ENDBRANCH  25  28
ENDBRANCH   4  25
TORSDOF 7
ENDMDL
MODEL 2
REMARK VINA RESULT:      -9.0      0.664      1.157
REMARK  7 active torsions:
REMARK  status: ('A' for Active; 'I' for Inactive)
REMARK    1  A    between atoms: C_5  and  O_6 
REMARK    2  A    between atoms: O_6  and  C_7 
REMARK    3  A    between atoms: C_7  and  C_8 
REMARK    4  A    between atoms: C_8  and  N_9 
REMARK       I    between atoms: N_9  and  C_10 
REMARK       I    between atoms: C_10  and  N_11 
REMARK    5  A    between atoms: N_11  and  C_12 
REMARK    6  A    between atoms: N_15  and  S_16 
REMARK    7  A    between atoms: S_16  and  C_17 
ROOT
HETATM    1  C   UNL     1      41.419 -12.882   4.917  1.00  0.00     0.103 A 
HETATM    2  S   UNL     1      41.772 -13.280   3.246  1.00  0.00    -0.032 SA
HETATM    3  C   UNL     1      40.058 -13.144   2.792  1.00  0.00     0.185 A 
HETATM    4  N   UNL     1      39.525 -13.281   1.626  1.00  0.00    -0.134 NA
HETATM    5  N   UNL     1      39.364 -12.838   3.940  1.00  0.00    -0.336 N 
HETATM    6  C   UNL     1      40.105 -12.653   5.104  1.00  0.00     0.041 A 
HETATM    7  C   UNL     1      39.410 -12.114   6.312  1.00  0.00     0.071 C 
HETATM    8  H   UNL     1      38.384 -12.594   3.901  1.00  0.00     0.168 HD
ENDROOT
BRANCH   1   9
HETATM    9  N   UNL     1      42.508 -12.805   5.723  1.00  0.00    -0.301 N 
HETATM   10  C   UNL     1      42.977 -13.497   6.789  1.00  0.00     0.321 C 
HETATM   11  N   UNL     1      42.418 -14.714   7.057  1.00  0.00    -0.341 N 
HETATM   12  O   UNL     1      43.942 -13.049   7.405  1.00  0.00    -0.247 OA
HETATM   13  H   UNL     1      41.936 -15.123   6.270  1.00  0.00     0.164 HD
HETATM   14  H   UNL     1      43.187 -12.110   5.430  1.00  0.00     0.171 HD
BRANCH  11  15
HETATM   15  C   UNL     1      43.151 -15.655   7.891  1.00  0.00     0.151 C 
BRANCH  15  16
HETATM   16  C   UNL     1      44.140 -16.542   7.136  1.00  0.00     0.195 C 
BRANCH  16  17
HETATM   17  O   UNL     1      43.440 -17.749   6.826  1.00  0.00    -0.350 OA
BRANCH  17  18
HETATM   18  C   UNL     1      43.545 -18.267   5.568  1.00  0.00     0.068 A 
HETATM   19  C   UNL     1      43.824 -19.635   5.534  1.00  0.00     0.037 A 
HETATM   20  C   UNL     1      43.948 -20.312   4.318  1.00  0.00     0.009 A 
HETATM   21  C   UNL     1      43.795 -19.621   3.114  1.00  0.00    -0.062 A 
HETATM   22  C   UNL     1      43.894 -20.341   1.802  1.00  0.00     0.048 C 
HETATM   23  C   UNL     1      43.509 -18.251   3.151  1.00  0.00     0.009 A 
HETATM   24  C   UNL     1      43.390 -17.573   4.372  1.00  0.00     0.037 A 
ENDBRANCH  17  18
ENDBRANCH  16  17
ENDBRANCH  15  16
ENDBRANCH  11  15
ENDBRANCH   1   9
BRANCH   4  25
HETATM   25  S   UNL     1      40.454 -13.649   0.352  1.00  0.00     0.285 S 
HETATM   26  O   UNL     1      41.332 -12.528   0.070  1.00  0.00    -0.198 OA
HETATM   27  O   UNL     1      40.976 -14.993   0.504  1.00  0.00    -0.198 OA
BRANCH  25  28
HETATM   28  C   UNL     1      39.313 -13.741  -1.018  1.00  0.00     0.081 A 
HETATM   29  C   UNL     1      38.389 -12.710  -1.217  1.00  0.00     0.025 A 
HETATM   30  C   UNL     1      37.513 -12.772  -2.299  1.00  0.00     0.002 A 
HETATM   31  C   UNL     1      37.560 -13.861  -3.173  1.00  0.00     0.000 A 
HETATM   32  C   UNL     1      38.482 -14.890  -2.967  1.00  0.00     0.002 A 
HETATM   33  C   UNL     1      39.364 -14.834  -1.887  1.00  0.00     0.025 A 
ENDBRANCH  25  28
ENDBRANCH   4  25
TORSDOF 7
ENDMDL
MODEL 3
REMARK VINA RESULT:      -8.6      5.148      9.419
REMARK  7 active torsions:
REMARK  status: ('A' for Active; 'I' for Inactive)
REMARK    1  A    between atoms: C_5  and  O_6 
REMARK    2  A    between atoms: O_6  and  C_7 
REMARK    3  A    between atoms: C_7  and  C_8 
REMARK    4  A    between atoms: C_8  and  N_9 
REMARK       I    between atoms: N_9  and  C_10 
REMARK       I    between atoms: C_10  and  N_11 
REMARK    5  A    between atoms: N_11  and  C_12 
REMARK    6  A    between atoms: N_15  and  S_16 
REMARK    7  A    between atoms: S_16  and  C_17 
ROOT
HETATM    1  C   UNL     1      43.328 -10.375   6.878  1.00  0.00     0.103 A 
HETATM    2  S   UNL     1      42.133  -9.684   7.958  1.00  0.00    -0.032 SA
HETATM    3  C   UNL     1      43.196  -9.902   9.367  1.00  0.00     0.185 A 
HETATM    4  N   UNL     1      42.980  -9.567  10.592  1.00  0.00    -0.134 NA
HETATM    5  N   UNL     1      44.347 -10.500   8.908  1.00  0.00    -0.336 N 
HETATM    6  C   UNL     1      44.448 -10.729   7.539  1.00  0.00     0.041 A 
HETATM    7  C   UNL     1      45.761 -11.176   6.986  1.00  0.00     0.071 C 
HETATM    8  H   UNL     1      45.147 -10.612   9.516  1.00  0.00     0.168 HD
ENDROOT
BRANCH   1   9
HETATM    9  N   UNL     1      42.971 -10.384   5.569  1.00  0.00    -0.301 N 
HETATM   10  C   UNL     1      42.855 -11.324   4.600  1.00  0.00     0.321 C 
HETATM   11  N   UNL     1      42.855 -12.636   4.981  1.00  0.00    -0.341 N 
HETATM   12  O   UNL     1      42.660 -10.959   3.443  1.00  0.00    -0.247 OA
HETATM   13  H   UNL     1      42.627 -12.779   5.953  1.00  0.00     0.164 HD
HETATM   14  H   UNL     1      42.636  -9.488   5.229  1.00  0.00     0.171 HD
BRANCH  11  15
HETATM   15  C   UNL     1      42.316 -13.632   4.066  1.00  0.00     0.151 C 
BRANCH  15  16
HETATM   16  C   UNL     1      42.037 -14.995   4.698  1.00  0.00     0.195 C 
BRANCH  16  17
HETATM   17  O   UNL     1      43.297 -15.664   4.783  1.00  0.00    -0.350 OA
BRANCH  17  18
HETATM   18  C   UNL     1      43.446 -16.870   4.165  1.00  0.00     0.068 A 
HETATM   19  C   UNL     1      42.777 -16.974   2.943  1.00  0.00     0.037 A 
HETATM   20  C   UNL     1      42.846 -18.145   2.185  1.00  0.00     0.009 A 
HETATM   21  C   UNL     1      43.588 -19.234   2.646  1.00  0.00    -0.062 A 
HETATM   22  C   UNL     1      43.697 -20.487   1.827  1.00  0.00     0.048 C 
HETATM   23  C   UNL     1      44.264 -19.125   3.867  1.00  0.00     0.009 A 
HETATM   24  C   UNL     1      44.189 -17.951   4.629  1.00  0.00     0.037 A 
ENDBRANCH  17  18
ENDBRANCH  16  17
ENDBRANCH  15  16
ENDBRANCH  11  15
ENDBRANCH   1   9
BRANCH   4  25
HETATM   25  S   UNL     1      41.577  -8.873  11.005  1.00  0.00     0.285 S 
HETATM   26  O   UNL     1      41.397  -7.668  10.216  1.00  0.00    -0.198 OA
HETATM   27  O   UNL     1      40.540  -9.883  11.080  1.00  0.00    -0.198 OA
BRANCH  25  28
HETATM   28  C   UNL     1      41.826  -8.330  12.686  1.00  0.00     0.081 A 
HETATM   29  C   UNL     1      40.901  -8.689  13.672  1.00  0.00     0.025 A 
HETATM   30  C   UNL     1      41.107  -8.282  14.990  1.00  0.00     0.002 A 
HETATM   31  C   UNL     1      42.230  -7.518  15.315  1.00  0.00     0.000 A 
HETATM   32  C   UNL     1      43.149  -7.159  14.326  1.00  0.00     0.002 A 
HETATM   33  C   UNL     1      42.950  -7.563  13.005  1.00  0.00     0.025 A 
ENDBRANCH  25  28
ENDBRANCH   4  25
TORSDOF 7
ENDMDL
MODEL 4
REMARK VINA RESULT:      -8.5      4.300      8.772
REMARK  7 active torsions:
REMARK  status: ('A' for Active; 'I' for Inactive)
REMARK    1  A    between atoms: C_5  and  O_6 
REMARK    2  A    between atoms: O_6  and  C_7 
REMARK    3  A    between atoms: C_7  and  C_8 
REMARK    4  A    between atoms: C_8  and  N_9 
REMARK       I    between atoms: N_9  and  C_10 
REMARK       I    between atoms: C_10  and  N_11 
REMARK    5  A    between atoms: N_11  and  C_12 
REMARK    6  A    between atoms: N_15  and  S_16 
REMARK    7  A    between atoms: S_16  and  C_17 
ROOT
HETATM    1  C   UNL     1      42.300 -12.137   5.355  1.00  0.00     0.103 A 
HETATM    2  S   UNL     1      42.584 -13.677   6.145  1.00  0.00    -0.032 SA
HETATM    3  C   UNL     1      42.961 -14.466   4.597  1.00  0.00     0.185 A 
HETATM    4  N   UNL     1      43.320 -15.686   4.388  1.00  0.00    -0.134 NA
HETATM    5  N   UNL     1      42.815 -13.513   3.617  1.00  0.00    -0.336 N 
HETATM    6  C   UNL     1      42.491 -12.221   4.024  1.00  0.00     0.041 A 
HETATM    7  C   UNL     1      42.535 -11.123   3.012  1.00  0.00     0.071 C 
HETATM    8  H   UNL     1      43.095 -13.704   2.665  1.00  0.00     0.168 HD
ENDROOT
BRANCH   1   9
HETATM    9  N   UNL     1      42.005 -11.115   6.197  1.00  0.00    -0.301 N 
HETATM   10  C   UNL     1      42.650 -10.458   7.192  1.00  0.00     0.321 C 
HETATM   11  N   UNL     1      43.999 -10.638   7.303  1.00  0.00    -0.341 N 
HETATM   12  O   UNL     1      42.016  -9.663   7.882  1.00  0.00    -0.247 OA
HETATM   13  H   UNL     1      44.436 -10.983   6.462  1.00  0.00     0.164 HD
HETATM   14  H   UNL     1      41.113 -10.669   6.005  1.00  0.00     0.171 HD
BRANCH  11  15
HETATM   15  C   UNL     1      44.778  -9.657   8.048  1.00  0.00     0.151 C 
BRANCH  15  16
HETATM   16  C   UNL     1      45.321 -10.157   9.386  1.00  0.00     0.195 C 
BRANCH  16  17
HETATM   17  O   UNL     1      44.225 -10.782  10.056  1.00  0.00    -0.350 OA
BRANCH  17  18
HETATM   18  C   UNL     1      43.702 -10.184  11.165  1.00  0.00     0.068 A 
HETATM   19  C   UNL     1      43.914  -8.804  11.225  1.00  0.00     0.037 A 
HETATM   20  C   UNL     1      43.426  -8.049  12.294  1.00  0.00     0.009 A 
HETATM   21  C   UNL     1      42.718  -8.671  13.324  1.00  0.00    -0.062 A 
HETATM   22  C   UNL     1      42.161  -7.869  14.463  1.00  0.00     0.048 C 
HETATM   23  C   UNL     1      42.502 -10.053  13.259  1.00  0.00     0.009 A 
HETATM   24  C   UNL     1      42.996 -10.809  12.188  1.00  0.00     0.037 A 
ENDBRANCH  17  18
ENDBRANCH  16  17
ENDBRANCH  15  16
ENDBRANCH  11  15
ENDBRANCH   1   9
BRANCH   4  25
HETATM   25  S   UNL     1      43.451 -16.715   5.631  1.00  0.00     0.285 S 
HETATM   26  O   UNL     1      44.694 -16.453   6.332  1.00  0.00    -0.198 OA
HETATM   27  O   UNL     1      42.188 -16.780   6.341  1.00  0.00    -0.198 OA
BRANCH  25  28
HETATM   28  C   UNL     1      43.642 -18.316   4.866  1.00  0.00     0.081 A 
HETATM   29  C   UNL     1      43.645 -18.418   3.471  1.00  0.00     0.025 A 
HETATM   30  C   UNL     1      43.816 -19.666   2.874  1.00  0.00     0.002 A 
HETATM   31  C   UNL     1      43.978 -20.803   3.668  1.00  0.00     0.000 A 
HETATM   32  C   UNL     1      43.970 -20.696   5.062  1.00  0.00     0.002 A 
HETATM   33  C   UNL     1      43.801 -19.450   5.667  1.00  0.00     0.025 A 
ENDBRANCH  25  28
ENDBRANCH   4  25
TORSDOF 7
ENDMDL
MODEL 5
REMARK VINA RESULT:      -8.4      5.125      9.357
REMARK  7 active torsions:
REMARK  status: ('A' for Active; 'I' for Inactive)
REMARK    1  A    between atoms: C_5  and  O_6 
REMARK    2  A    between atoms: O_6  and  C_7 
REMARK    3  A    between atoms: C_7  and  C_8 
REMARK    4  A    between atoms: C_8  and  N_9 
REMARK       I    between atoms: N_9  and  C_10 
REMARK       I    between atoms: C_10  and  N_11 
REMARK    5  A    between atoms: N_11  and  C_12 
REMARK    6  A    between atoms: N_15  and  S_16 
REMARK    7  A    between atoms: S_16  and  C_17 
ROOT
HETATM    1  C   UNL     1      43.010 -10.878   6.607  1.00  0.00     0.103 A 
HETATM    2  S   UNL     1      42.186 -12.070   5.619  1.00  0.00    -0.032 SA
HETATM    3  C   UNL     1      43.425 -13.298   5.966  1.00  0.00     0.185 A 
HETATM    4  N   UNL     1      43.468 -14.525   5.574  1.00  0.00    -0.134 NA
HETATM    5  N   UNL     1      44.365 -12.699   6.772  1.00  0.00    -0.336 N 
HETATM    6  C   UNL     1      44.129 -11.384   7.163  1.00  0.00     0.041 A 
HETATM    7  C   UNL     1      45.014 -10.780   8.203  1.00  0.00     0.071 C 
HETATM    8  H   UNL     1      45.104 -13.244   7.195  1.00  0.00     0.168 HD
ENDROOT
BRANCH   1   9
HETATM    9  N   UNL     1      42.372  -9.685   6.706  1.00  0.00    -0.301 N 
HETATM   10  C   UNL     1      41.363  -9.184   7.459  1.00  0.00     0.321 C 
HETATM   11  N   UNL     1      40.980  -9.889   8.564  1.00  0.00    -0.341 N 
HETATM   12  O   UNL     1      40.906  -8.079   7.173  1.00  0.00    -0.247 OA
HETATM   13  H   UNL     1      41.675 -10.541   8.893  1.00  0.00     0.164 HD
HETATM   14  H   UNL     1      42.780  -8.952   6.136  1.00  0.00     0.171 HD
BRANCH  11  15
HETATM   15  C   UNL     1      40.230  -9.204   9.608  1.00  0.00     0.151 C 
BRANCH  15  16
HETATM   16  C   UNL     1      40.392  -9.801  11.006  1.00  0.00     0.195 C 
BRANCH  16  17
HETATM   17  O   UNL     1      41.739  -9.537  11.401  1.00  0.00    -0.350 OA
BRANCH  17  18
HETATM   18  C   UNL     1      41.964  -8.823  12.541  1.00  0.00     0.068 A 
HETATM   19  C   UNL     1      41.045  -9.072  13.563  1.00  0.00     0.037 A 
HETATM   20  C   UNL     1      41.153  -8.425  14.796  1.00  0.00     0.009 A 
HETATM   21  C   UNL     1      42.186  -7.513  15.022  1.00  0.00    -0.062 A 
HETATM   22  C   UNL     1      42.332  -6.835  16.352  1.00  0.00     0.048 C 
HETATM   23  C   UNL     1      43.109  -7.270  13.998  1.00  0.00     0.009 A 
HETATM   24  C   UNL     1      42.998  -7.917  12.759  1.00  0.00     0.037 A 
ENDBRANCH  17  18
ENDBRANCH  16  17
ENDBRANCH  15  16
ENDBRANCH  11  15
ENDBRANCH   1   9
BRANCH   4  25
HETATM   25  S   UNL     1      42.298 -15.109   4.619  1.00  0.00     0.285 S 
HETATM   26  O   UNL     1      41.152 -15.458   5.438  1.00  0.00    -0.198 OA
HETATM   27  O   UNL     1      42.157 -14.261   3.451  1.00  0.00    -0.198 OA
BRANCH  25  28
HETATM   28  C   UNL     1      42.954 -16.650   4.003  1.00  0.00     0.081 A 
HETATM   29  C   UNL     1      43.862 -17.374   4.783  1.00  0.00     0.025 A 
HETATM   30  C   UNL     1      44.358 -18.588   4.311  1.00  0.00     0.002 A 
HETATM   31  C   UNL     1      43.950 -19.071   3.066  1.00  0.00     0.000 A 
HETATM   32  C   UNL     1      43.046 -18.342   2.289  1.00  0.00     0.002 A 
HETATM   33  C   UNL     1      42.544 -17.126   2.756  1.00  0.00     0.025 A 
ENDBRANCH  25  28
ENDBRANCH   4  25
TORSDOF 7
ENDMDL
MODEL 6
REMARK VINA RESULT:      -8.4      5.377      9.652
REMARK  7 active torsions:
REMARK  status: ('A' for Active; 'I' for Inactive)
REMARK    1  A    between atoms: C_5  and  O_6 
REMARK    2  A    between atoms: O_6  and  C_7 
REMARK    3  A    between atoms: C_7  and  C_8 
REMARK    4  A    between atoms: C_8  and  N_9 
REMARK       I    between atoms: N_9  and  C_10 
REMARK       I    between atoms: C_10  and  N_11 
REMARK    5  A    between atoms: N_11  and  C_12 
REMARK    6  A    between atoms: N_15  and  S_16 
REMARK    7  A    between atoms: S_16  and  C_17 
ROOT
HETATM    1  C   UNL     1      42.168  -9.869   7.273  1.00  0.00     0.103 A 
HETATM    2  S   UNL     1      43.135  -9.767   8.732  1.00  0.00    -0.032 SA
HETATM    3  C   UNL     1      41.698  -9.456   9.732  1.00  0.00     0.185 A 
HETATM    4  N   UNL     1      41.631  -9.297  11.009  1.00  0.00    -0.134 NA
HETATM    5  N   UNL     1      40.618  -9.428   8.880  1.00  0.00    -0.336 N 
HETATM    6  C   UNL     1      40.858  -9.692   7.535  1.00  0.00     0.041 A 
HETATM    7  C   UNL     1      39.687  -9.880   6.626  1.00  0.00     0.071 C 
HETATM    8  H   UNL     1      39.676  -9.385   9.243  1.00  0.00     0.168 HD
ENDROOT
BRANCH   1   9
HETATM    9  N   UNL     1      42.867 -10.167   6.149  1.00  0.00    -0.301 N 
HETATM   10  C   UNL     1      43.058 -11.273   5.389  1.00  0.00     0.321 C 
HETATM   11  N   UNL     1      42.218 -12.332   5.582  1.00  0.00    -0.341 N 
HETATM   12  O   UNL     1      43.909 -11.240   4.503  1.00  0.00    -0.247 OA
HETATM   13  H   UNL     1      41.351 -12.088   6.036  1.00  0.00     0.164 HD
HETATM   14  H   UNL     1      43.305  -9.362   5.712  1.00  0.00     0.171 HD
BRANCH  11  15
HETATM   15  C   UNL     1      42.105 -13.338   4.534  1.00  0.00     0.151 C 
BRANCH  15  16
HETATM   16  C   UNL     1      42.149 -14.783   5.029  1.00  0.00     0.195 C 
BRANCH  16  17
HETATM   17  O   UNL     1      43.421 -15.303   4.637  1.00  0.00    -0.350 OA
BRANCH  17  18
HETATM   18  C   UNL     1      43.483 -16.549   4.087  1.00  0.00     0.068 A 
HETATM   19  C   UNL     1      42.915 -16.642   2.814  1.00  0.00     0.037 A 
HETATM   20  C   UNL     1      42.914 -17.852   2.116  1.00  0.00     0.009 A 
HETATM   21  C   UNL     1      43.481 -18.992   2.690  1.00  0.00    -0.062 A 
HETATM   22  C   UNL     1      43.515 -20.290   1.939  1.00  0.00     0.048 C 
HETATM   23  C   UNL     1      44.055 -18.895   3.963  1.00  0.00     0.009 A 
HETATM   24  C   UNL     1      44.051 -17.681   4.664  1.00  0.00     0.037 A 
ENDBRANCH  17  18
ENDBRANCH  16  17
ENDBRANCH  15  16
ENDBRANCH  11  15
ENDBRANCH   1   9
BRANCH   4  25
HETATM   25  S   UNL     1      42.981  -9.347  11.902  1.00  0.00     0.285 S 
HETATM   26  O   UNL     1      43.263 -10.726  12.254  1.00  0.00    -0.198 OA
HETATM   27  O   UNL     1      43.994  -8.504  11.296  1.00  0.00    -0.198 OA
BRANCH  25  28
HETATM   28  C   UNL     1      42.538  -8.528  13.424  1.00  0.00     0.081 A 
HETATM   29  C   UNL     1      43.256  -7.400  13.836  1.00  0.00     0.025 A 
HETATM   30  C   UNL     1      42.896  -6.749  15.014  1.00  0.00     0.002 A 
HETATM   31  C   UNL     1      41.828  -7.227  15.777  1.00  0.00     0.000 A 
HETATM   32  C   UNL     1      41.118  -8.357  15.364  1.00  0.00     0.002 A 
HETATM   33  C   UNL     1      41.471  -9.013  14.184  1.00  0.00     0.025 A 
ENDBRANCH  25  28
ENDBRANCH   4  25
TORSDOF 7
ENDMDL
MODEL 7
REMARK VINA RESULT:      -8.3      5.208      9.605
REMARK  7 active torsions:
REMARK  status: ('A' for Active; 'I' for Inactive)
REMARK    1  A    between atoms: C_5  and  O_6 
REMARK    2  A    between atoms: O_6  and  C_7 
REMARK    3  A    between atoms: C_7  and  C_8 
REMARK    4  A    between atoms: C_8  and  N_9 
REMARK       I    between atoms: N_9  and  C_10 
REMARK       I    between atoms: C_10  and  N_11 
REMARK    5  A    between atoms: N_11  and  C_12 
REMARK    6  A    between atoms: N_15  and  S_16 
REMARK    7  A    between atoms: S_16  and  C_17 
ROOT
HETATM    1  C   UNL     1      43.560 -11.782   6.222  1.00  0.00     0.103 A 
HETATM    2  S   UNL     1      43.959 -13.417   6.716  1.00  0.00    -0.032 SA
HETATM    3  C   UNL     1      43.021 -14.112   5.374  1.00  0.00     0.185 A 
HETATM    4  N   UNL     1      42.874 -15.353   5.059  1.00  0.00    -0.134 NA
HETATM    5  N   UNL     1      42.467 -13.057   4.687  1.00  0.00    -0.336 N 
HETATM    6  C   UNL     1      42.787 -11.773   5.119  1.00  0.00     0.041 A 
HETATM    7  C   UNL     1      42.378 -10.613   4.271  1.00  0.00     0.071 C 
HETATM    8  H   UNL     1      41.988 -13.208   3.809  1.00  0.00     0.168 HD
ENDROOT
BRANCH   1   9
HETATM    9  N   UNL     1      44.133 -10.808   6.973  1.00  0.00    -0.301 N 
HETATM   10  C   UNL     1      43.701  -9.904   7.885  1.00  0.00     0.321 C 
HETATM   11  N   UNL     1      42.454 -10.079   8.415  1.00  0.00    -0.341 N 
HETATM   12  O   UNL     1      44.478  -9.031   8.266  1.00  0.00    -0.247 OA
HETATM   13  H   UNL     1      42.098 -11.018   8.320  1.00  0.00     0.164 HD
HETATM   14  H   UNL     1      45.145 -10.778   6.903  1.00  0.00     0.171 HD
BRANCH  11  15
HETATM   15  C   UNL     1      42.125  -9.416   9.669  1.00  0.00     0.151 C 
BRANCH  15  16
HETATM   16  C   UNL     1      42.989  -9.834  10.858  1.00  0.00     0.195 C 
BRANCH  16  17
HETATM   17  O   UNL     1      42.103  -9.962  11.972  1.00  0.00    -0.350 OA
BRANCH  17  18
HETATM   18  C   UNL     1      42.190  -9.059  12.990  1.00  0.00     0.068 A 
HETATM   19  C   UNL     1      41.187  -9.185  13.955  1.00  0.00     0.037 A 
HETATM   20  C   UNL     1      41.151  -8.339  15.066  1.00  0.00     0.009 A 
HETATM   21  C   UNL     1      42.123  -7.349  15.224  1.00  0.00    -0.062 A 
HETATM   22  C   UNL     1      42.114  -6.454  16.428  1.00  0.00     0.048 C 
HETATM   23  C   UNL     1      43.130  -7.228  14.259  1.00  0.00     0.009 A 
HETATM   24  C   UNL     1      43.162  -8.075  13.143  1.00  0.00     0.037 A 
ENDBRANCH  17  18
ENDBRANCH  16  17
ENDBRANCH  15  16
ENDBRANCH  11  15
ENDBRANCH   1   9
BRANCH   4  25
HETATM   25  S   UNL     1      43.576 -16.504   5.956  1.00  0.00     0.285 S 
HETATM   26  O   UNL     1      44.944 -16.111   6.239  1.00  0.00    -0.198 OA
HETATM   27  O   UNL     1      42.675 -16.907   7.018  1.00  0.00    -0.198 OA
BRANCH  25  28
HETATM   28  C   UNL     1      43.682 -17.914   4.868  1.00  0.00     0.081 A 
HETATM   29  C   UNL     1      43.946 -19.180   5.401  1.00  0.00     0.025 A 
HETATM   30  C   UNL     1      44.007 -20.284   4.553  1.00  0.00     0.002 A 
HETATM   31  C   UNL     1      43.810 -20.121   3.180  1.00  0.00     0.000 A 
HETATM   32  C   UNL     1      43.550 -18.853   2.652  1.00  0.00     0.002 A 
HETATM   33  C   UNL     1      43.486 -17.743   3.495  1.00  0.00     0.025 A 
ENDBRANCH  25  28
ENDBRANCH   4  25
TORSDOF 7
ENDMDL
MODEL 8
REMARK VINA RESULT:      -8.3      2.945      3.706
REMARK  7 active torsions:
REMARK  status: ('A' for Active; 'I' for Inactive)
REMARK    1  A    between atoms: C_5  and  O_6 
REMARK    2  A    between atoms: O_6  and  C_7 
REMARK    3  A    between atoms: C_7  and  C_8 
REMARK    4  A    between atoms: C_8  and  N_9 
REMARK       I    between atoms: N_9  and  C_10 
REMARK       I    between atoms: C_10  and  N_11 
REMARK    5  A    between atoms: N_11  and  C_12 
REMARK    6  A    between atoms: N_15  and  S_16 
REMARK    7  A    between atoms: S_16  and  C_17 
ROOT
HETATM    1  C   UNL     1      40.101 -13.451   2.985  1.00  0.00     0.103 A 
HETATM    2  S   UNL     1      40.359 -11.796   2.465  1.00  0.00    -0.032 SA
HETATM    3  C   UNL     1      40.553 -12.298   0.770  1.00  0.00     0.185 A 
HETATM    4  N   UNL     1      40.751 -11.558  -0.266  1.00  0.00    -0.134 NA
HETATM    5  N   UNL     1      40.434 -13.668   0.744  1.00  0.00    -0.336 N 
HETATM    6  C   UNL     1      40.147 -14.308   1.947  1.00  0.00     0.041 A 
HETATM    7  C   UNL     1      39.804 -15.762   1.916  1.00  0.00     0.071 C 
HETATM    8  H   UNL     1      40.391 -14.166  -0.134  1.00  0.00     0.168 HD
ENDROOT
BRANCH   1   9
HETATM    9  N   UNL     1      39.837 -13.595   4.308  1.00  0.00    -0.301 N 
HETATM   10  C   UNL     1      40.454 -14.180   5.363  1.00  0.00     0.321 C 
HETATM   11  N   UNL     1      41.763 -14.543   5.216  1.00  0.00    -0.341 N 
HETATM   12  O   UNL     1      39.845 -14.270   6.427  1.00  0.00    -0.247 OA
HETATM   13  H   UNL     1      42.236 -14.067   4.463  1.00  0.00     0.164 HD
HETATM   14  H   UNL     1      39.017 -13.086   4.621  1.00  0.00     0.171 HD
BRANCH  11  15
HETATM   15  C   UNL     1      42.567 -14.766   6.410  1.00  0.00     0.151 C 
BRANCH  15  16
HETATM   16  C   UNL     1      42.983 -16.219   6.636  1.00  0.00     0.195 C 
BRANCH  16  17
HETATM   17  O   UNL     1      44.055 -16.475   5.727  1.00  0.00    -0.350 OA
BRANCH  17  18
HETATM   18  C   UNL     1      43.933 -17.501   4.836  1.00  0.00     0.068 A 
HETATM   19  C   UNL     1      43.440 -17.118   3.586  1.00  0.00     0.037 A 
HETATM   20  C   UNL     1      43.271 -18.056   2.565  1.00  0.00     0.009 A 
HETATM   21  C   UNL     1      43.593 -19.396   2.784  1.00  0.00    -0.062 A 
HETATM   22  C   UNL     1      43.446 -20.408   1.686  1.00  0.00     0.048 C 
HETATM   23  C   UNL     1      44.092 -19.776   4.036  1.00  0.00     0.009 A 
HETATM   24  C   UNL     1      44.256 -18.836   5.061  1.00  0.00     0.037 A 
ENDBRANCH  17  18
ENDBRANCH  16  17
ENDBRANCH  15  16
ENDBRANCH  11  15
ENDBRANCH   1   9
BRANCH   4  25
HETATM   25  S   UNL     1      40.878  -9.952  -0.100  1.00  0.00     0.285 S 
HETATM   26  O   UNL     1      39.610  -9.426   0.372  1.00  0.00    -0.198 OA
HETATM   27  O   UNL     1      42.122  -9.631   0.571  1.00  0.00    -0.198 OA
BRANCH  25  28
HETATM   28  C   UNL     1      41.074  -9.347  -1.767  1.00  0.00     0.081 A 
HETATM   29  C   UNL     1      40.284  -9.878  -2.792  1.00  0.00     0.025 A 
HETATM   30  C   UNL     1      40.423  -9.389  -4.091  1.00  0.00     0.002 A 
HETATM   31  C   UNL     1      41.350  -8.380  -4.360  1.00  0.00     0.000 A 
HETATM   32  C   UNL     1      42.140  -7.856  -3.333  1.00  0.00     0.002 A 
HETATM   33  C   UNL     1      42.005  -8.339  -2.031  1.00  0.00     0.025 A 
ENDBRANCH  25  28
ENDBRANCH   4  25
TORSDOF 7
ENDMDL
MODEL 9
REMARK VINA RESULT:      -8.2      4.960      9.119
REMARK  7 active torsions:
REMARK  status: ('A' for Active; 'I' for Inactive)
REMARK    1  A    between atoms: C_5  and  O_6 
REMARK    2  A    between atoms: O_6  and  C_7 
REMARK    3  A    between atoms: C_7  and  C_8 
REMARK    4  A    between atoms: C_8  and  N_9 
REMARK       I    between atoms: N_9  and  C_10 
REMARK       I    between atoms: C_10  and  N_11 
REMARK    5  A    between atoms: N_11  and  C_12 
REMARK    6  A    between atoms: N_15  and  S_16 
REMARK    7  A    between atoms: S_16  and  C_17 
ROOT
HETATM    1  C   UNL     1      40.395 -11.442   5.630  1.00  0.00     0.103 A 
HETATM    2  S   UNL     1      40.491 -13.152   6.008  1.00  0.00    -0.032 SA
HETATM    3  C   UNL     1      41.609 -13.446   4.657  1.00  0.00     0.185 A 
HETATM    4  N   UNL     1      42.174 -14.552   4.312  1.00  0.00    -0.134 NA
HETATM    5  N   UNL     1      41.793 -12.240   4.022  1.00  0.00    -0.336 N 
HETATM    6  C   UNL     1      41.164 -11.126   4.570  1.00  0.00     0.041 A 
HETATM    7  C   UNL     1      41.512  -9.776   4.034  1.00  0.00     0.071 C 
HETATM    8  H   UNL     1      42.487 -12.142   3.293  1.00  0.00     0.168 HD
ENDROOT
BRANCH   1   9
HETATM    9  N   UNL     1      39.633 -10.715   6.485  1.00  0.00    -0.301 N 
HETATM   10  C   UNL     1      39.821 -10.121   7.689  1.00  0.00     0.321 C 
HETATM   11  N   UNL     1      41.104  -9.963   8.129  1.00  0.00    -0.341 N 
HETATM   12  O   UNL     1      38.845  -9.667   8.282  1.00  0.00    -0.247 OA
HETATM   13  H   UNL     1      41.796 -10.013   7.396  1.00  0.00     0.164 HD
HETATM   14  H   UNL     1      38.713 -10.487   6.122  1.00  0.00     0.171 HD
BRANCH  11  15
HETATM   15  C   UNL     1      41.374  -8.980   9.168  1.00  0.00     0.151 C 
BRANCH  15  16
HETATM   16  C   UNL     1      42.551  -9.321  10.080  1.00  0.00     0.195 C 
BRANCH  16  17
HETATM   17  O   UNL     1      41.994  -9.944  11.239  1.00  0.00    -0.350 OA
BRANCH  17  18
HETATM   18  C   UNL     1      42.009  -9.268  12.423  1.00  0.00     0.068 A 
HETATM   19  C   UNL     1      43.018  -8.306  12.520  1.00  0.00     0.037 A 
HETATM   20  C   UNL     1      43.153  -7.522  13.668  1.00  0.00     0.009 A 
HETATM   21  C   UNL     1      42.278  -7.696  14.742  1.00  0.00    -0.062 A 
HETATM   22  C   UNL     1      42.392  -6.840  15.969  1.00  0.00     0.048 C 
HETATM   23  C   UNL     1      41.265  -8.657  14.641  1.00  0.00     0.009 A 
HETATM   24  C   UNL     1      41.133  -9.446  13.490  1.00  0.00     0.037 A 
ENDBRANCH  17  18
ENDBRANCH  16  17
ENDBRANCH  15  16
ENDBRANCH  11  15
ENDBRANCH   1   9
BRANCH   4  25
HETATM   25  S   UNL     1      41.869 -15.909   5.142  1.00  0.00     0.285 S 
HETATM   26  O   UNL     1      42.488 -15.810   6.451  1.00  0.00    -0.198 OA
HETATM   27  O   UNL     1      40.470 -16.261   4.997  1.00  0.00    -0.198 OA
BRANCH  25  28
HETATM   28  C   UNL     1      42.766 -17.178   4.265  1.00  0.00     0.081 A 
HETATM   29  C   UNL     1      42.486 -17.414   2.915  1.00  0.00     0.025 A 
HETATM   30  C   UNL     1      43.202 -18.391   2.225  1.00  0.00     0.002 A 
HETATM   31  C   UNL     1      44.187 -19.129   2.885  1.00  0.00     0.000 A 
HETATM   32  C   UNL     1      44.459 -18.893   4.235  1.00  0.00     0.002 A 
HETATM   33  C   UNL     1      43.748 -17.915   4.932  1.00  0.00     0.025 A 
ENDBRANCH  25  28
ENDBRANCH   4  25
TORSDOF 7
ENDMDL
MODEL 10
REMARK VINA RESULT:      -8.0      2.319      7.566
REMARK  7 active torsions:
REMARK  status: ('A' for Active; 'I' for Inactive)
REMARK    1  A    between atoms: C_5  and  O_6 
REMARK    2  A    between atoms: O_6  and  C_7 
REMARK    3  A    between atoms: C_7  and  C_8 
REMARK    4  A    between atoms: C_8  and  N_9 
REMARK       I    between atoms: N_9  and  C_10 
REMARK       I    between atoms: C_10  and  N_11 
REMARK    5  A    between atoms: N_11  and  C_12 
REMARK    6  A    between atoms: N_15  and  S_16 
REMARK    7  A    between atoms: S_16  and  C_17 
ROOT
HETATM    1  C   UNL     1      41.419 -12.032   3.760  1.00  0.00     0.103 A 
HETATM    2  S   UNL     1      41.484 -13.465   2.751  1.00  0.00    -0.032 SA
HETATM    3  C   UNL     1      42.577 -14.286   3.889  1.00  0.00     0.185 A 
HETATM    4  N   UNL     1      43.059 -15.479   3.816  1.00  0.00    -0.134 NA
HETATM    5  N   UNL     1      42.820 -13.403   4.915  1.00  0.00    -0.336 N 
HETATM    6  C   UNL     1      42.160 -12.178   4.875  1.00  0.00     0.041 A 
HETATM    7  C   UNL     1      42.235 -11.289   6.074  1.00  0.00     0.071 C 
HETATM    8  H   UNL     1      43.322 -13.698   5.741  1.00  0.00     0.168 HD
ENDROOT
BRANCH   1   9
HETATM    9  N   UNL     1      40.600 -11.052   3.300  1.00  0.00    -0.301 N 
HETATM   10  C   UNL     1      40.700 -10.048   2.395  1.00  0.00     0.321 C 
HETATM   11  N   UNL     1      41.749 -10.080   1.521  1.00  0.00    -0.341 N 
HETATM   12  O   UNL     1      39.799  -9.215   2.337  1.00  0.00    -0.247 OA
HETATM   13  H   UNL     1      42.168 -10.992   1.419  1.00  0.00     0.164 HD
HETATM   14  H   UNL     1      39.652 -11.109   3.656  1.00  0.00     0.171 HD
BRANCH  11  15
HETATM   15  C   UNL     1      41.664  -9.297   0.295  1.00  0.00     0.151 C 
BRANCH  15  16
HETATM   16  C   UNL     1      41.308 -10.103  -0.953  1.00  0.00     0.195 C 
BRANCH  16  17
HETATM   17  O   UNL     1      39.905 -10.365  -0.876  1.00  0.00    -0.350 OA
BRANCH  17  18
HETATM   18  C   UNL     1      39.406 -11.470  -1.499  1.00  0.00     0.068 A 
HETATM   19  C   UNL     1      40.382 -12.353  -1.969  1.00  0.00     0.037 A 
HETATM   20  C   UNL     1      40.025 -13.537  -2.617  1.00  0.00     0.009 A 
HETATM   21  C   UNL     1      38.678 -13.853  -2.807  1.00  0.00    -0.062 A 
HETATM   22  C   UNL     1      38.280 -15.137  -3.474  1.00  0.00     0.048 C 
HETATM   23  C   UNL     1      37.702 -12.970  -2.330  1.00  0.00     0.009 A 
HETATM   24  C   UNL     1      38.062 -11.780  -1.684  1.00  0.00     0.037 A 
ENDBRANCH  17  18
ENDBRANCH  16  17
ENDBRANCH  15  16
ENDBRANCH  11  15
ENDBRANCH   1   9
BRANCH   4  25
HETATM   25  S   UNL     1      42.699 -16.420   2.548  1.00  0.00     0.285 S 
HETATM   26  O   UNL     1      41.255 -16.509   2.423  1.00  0.00    -0.198 OA
HETATM   27  O   UNL     1      43.530 -16.051   1.419  1.00  0.00    -0.198 OA
BRANCH  25  28
HETATM   28  C   UNL     1      43.255 -18.046   3.029  1.00  0.00     0.081 A 
HETATM   29  C   UNL     1      43.808 -18.239   4.299  1.00  0.00     0.025 A 
HETATM   30  C   UNL     1      44.223 -19.514   4.681  1.00  0.00     0.002 A 
HETATM   31  C   UNL     1      44.088 -20.585   3.797  1.00  0.00     0.000 A 
HETATM   32  C   UNL     1      43.539 -20.386   2.527  1.00  0.00     0.002 A 
HETATM   33  C   UNL     1      43.120 -19.114   2.138  1.00  0.00     0.025 A 
ENDBRANCH  25  28
ENDBRANCH   4  25
TORSDOF 7
ENDMDL
