MODEL 1
REMARK VINA RESULT:      -8.5      0.000      0.000
REMARK  4 active torsions:
REMARK  status: ('A' for Active; 'I' for Inactive)
REMARK    1  A    between atoms: C_5  and  C_6 
REMARK    2  A    between atoms: C_6  and  N_7 
REMARK    3  A    between atoms: C_6  and  C_18 
REMARK    4  A    between atoms: N_7  and  C_8 
ROOT
HETATM    1  C   UNL     1      42.566 -16.243   3.647  1.00  0.00     0.288 C 
ENDROOT
BRANCH   1   2
HETATM    2  C   UNL     1      42.655 -15.784   5.093  1.00  0.00    -0.003 A 
HETATM    3  C   UNL     1      41.905 -16.346   6.122  1.00  0.00     0.126 A 
HETATM    4  N   UNL     1      41.951 -15.947   7.413  1.00  0.00    -0.272 NA
HETATM    5  C   UNL     1      42.826 -14.967   7.718  1.00  0.00     0.116 A 
HETATM    6  C   UNL     1      43.644 -14.356   6.783  1.00  0.00     0.020 A 
HETATM    7  C   UNL     1      43.554 -14.770   5.457  1.00  0.00     0.012 A 
ENDBRANCH   1   2
BRANCH   1   8
HETATM    8  N   UNL     1      41.240 -16.102   3.015  1.00  0.00     0.101 N 
HETATM    9  H   UNL     1      40.529 -16.121   3.746  1.00  0.00     0.317 HD
BRANCH   8  10
HETATM   10  C   UNL     1      41.051 -14.982   2.090  1.00  0.00     0.225 C 
HETATM   11  C   UNL     1      40.384 -15.412   0.767  1.00  0.00     0.069 C 
HETATM   12  C   UNL     1      40.092 -14.187  -0.081  1.00  0.00     0.190 C 
HETATM   13  N   UNL     1      39.189 -13.269   0.694  1.00  0.00    -0.067 N 
HETATM   14  C   UNL     1      39.285 -14.399  -1.345  1.00  0.00     0.035 C 
HETATM   15  H   UNL     1      38.366 -13.813   0.997  1.00  0.00     0.280 HD
HETATM   16  C   UNL     1      39.843 -12.733   1.925  1.00  0.00     0.237 C 
HETATM   17  C   UNL     1      38.680 -12.264  -0.307  1.00  0.00     0.235 C 
HETATM   18  C   UNL     1      40.198 -13.917   2.819  1.00  0.00     0.063 C 
HETATM   19  C   UNL     1      38.753 -12.998  -1.647  1.00  0.00     0.030 C 
ENDBRANCH   8  10
ENDBRANCH   1   8
BRANCH   1  20
HETATM   20  C   UNL     1      43.067 -17.672   3.427  1.00  0.00    -0.021 A 
HETATM   21  C   UNL     1      42.701 -18.356   2.251  1.00  0.00     0.012 A 
HETATM   22  C   UNL     1      43.117 -19.670   2.028  1.00  0.00     0.043 A 
HETATM   23  C   UNL     1      43.893 -20.314   2.980  1.00  0.00     0.116 A 
HETATM   24  F   UNL     1      44.290 -21.574   2.768  1.00  0.00    -0.206 F 
HETATM   25  C   UNL     1      44.260 -19.670   4.155  1.00  0.00     0.043 A 
HETATM   26  C   UNL     1      43.844 -18.355   4.382  1.00  0.00     0.012 A 
ENDBRANCH   1  20
TORSDOF 4
ENDMDL
MODEL 2
REMARK VINA RESULT:      -8.5      2.225      2.867
REMARK  4 active torsions:
REMARK  status: ('A' for Active; 'I' for Inactive)
REMARK    1  A    between atoms: C_5  and  C_6 
REMARK    2  A    between atoms: C_6  and  N_7 
REMARK    3  A    between atoms: C_6  and  C_18 
REMARK    4  A    between atoms: N_7  and  C_8 
ROOT
HETATM    1  C   UNL     1      42.309 -14.097   2.531  1.00  0.00     0.288 C 
ENDROOT
BRANCH   1   2
HETATM    2  C   UNL     1      42.622 -13.012   3.548  1.00  0.00    -0.003 A 
HETATM    3  C   UNL     1      43.745 -12.191   3.470  1.00  0.00     0.126 A 
HETATM    4  N   UNL     1      44.057 -11.230   4.367  1.00  0.00    -0.272 NA
HETATM    5  C   UNL     1      43.185 -11.031   5.376  1.00  0.00     0.116 A 
HETATM    6  C   UNL     1      42.023 -11.766   5.538  1.00  0.00     0.020 A 
HETATM    7  C   UNL     1      41.742 -12.768   4.612  1.00  0.00     0.012 A 
ENDBRANCH   1   2
BRANCH   1   8
HETATM    8  N   UNL     1      40.889 -14.219   2.147  1.00  0.00     0.101 N 
HETATM    9  H   UNL     1      40.317 -13.826   2.895  1.00  0.00     0.317 HD
BRANCH   8  10
HETATM   10  C   UNL     1      40.502 -13.708   0.830  1.00  0.00     0.225 C 
HETATM   11  C   UNL     1      40.018 -14.825  -0.119  1.00  0.00     0.069 C 
HETATM   12  C   UNL     1      39.503 -14.213  -1.409  1.00  0.00     0.190 C 
HETATM   13  N   UNL     1      38.379 -13.271  -1.081  1.00  0.00    -0.067 N 
HETATM   14  C   UNL     1      38.831 -15.145  -2.396  1.00  0.00     0.035 C 
HETATM   15  H   UNL     1      37.684 -13.788  -0.520  1.00  0.00     0.280 HD
HETATM   16  C   UNL     1      38.832 -12.108  -0.261  1.00  0.00     0.237 C 
HETATM   17  C   UNL     1      37.711 -12.967  -2.397  1.00  0.00     0.235 C 
HETATM   18  C   UNL     1      39.396 -12.650   1.049  1.00  0.00     0.063 C 
HETATM   19  C   UNL     1      38.016 -14.189  -3.265  1.00  0.00     0.030 C 
ENDBRANCH   8  10
ENDBRANCH   1   8
BRANCH   1  20
HETATM   20  C   UNL     1      42.831 -15.479   2.930  1.00  0.00    -0.021 A 
HETATM   21  C   UNL     1      42.845 -16.512   1.972  1.00  0.00     0.012 A 
HETATM   22  C   UNL     1      43.290 -17.793   2.307  1.00  0.00     0.043 A 
HETATM   23  C   UNL     1      43.714 -18.054   3.601  1.00  0.00     0.116 A 
HETATM   24  F   UNL     1      44.137 -19.283   3.923  1.00  0.00    -0.206 F 
HETATM   25  C   UNL     1      43.699 -17.060   4.571  1.00  0.00     0.043 A 
HETATM   26  C   UNL     1      43.254 -15.777   4.240  1.00  0.00     0.012 A 
ENDBRANCH   1  20
TORSDOF 4
ENDMDL
MODEL 3
REMARK VINA RESULT:      -8.5      3.034      5.873
REMARK  4 active torsions:
REMARK  status: ('A' for Active; 'I' for Inactive)
REMARK    1  A    between atoms: C_5  and  C_6 
REMARK    2  A    between atoms: C_6  and  N_7 
REMARK    3  A    between atoms: C_6  and  C_18 
REMARK    4  A    between atoms: N_7  and  C_8 
ROOT
HETATM    1  C   UNL     1      43.205 -16.168   4.060  1.00  0.00     0.288 C 
ENDROOT
BRANCH   1   2
HETATM    2  C   UNL     1      43.516 -17.651   4.168  1.00  0.00    -0.003 A 
HETATM    3  C   UNL     1      43.687 -18.311   5.382  1.00  0.00     0.126 A 
HETATM    4  N   UNL     1      43.980 -19.624   5.508  1.00  0.00    -0.272 NA
HETATM    5  C   UNL     1      44.062 -20.343   4.370  1.00  0.00     0.116 A 
HETATM    6  C   UNL     1      43.882 -19.800   3.109  1.00  0.00     0.020 A 
HETATM    7  C   UNL     1      43.607 -18.438   3.010  1.00  0.00     0.012 A 
ENDBRANCH   1   2
BRANCH   1   8
HETATM    8  N   UNL     1      42.790 -15.511   5.316  1.00  0.00     0.101 N 
HETATM    9  H   UNL     1      43.198 -16.024   6.098  1.00  0.00     0.317 HD
BRANCH   8  10
HETATM   10  C   UNL     1      43.012 -14.068   5.425  1.00  0.00     0.225 C 
HETATM   11  C   UNL     1      41.699 -13.280   5.616  1.00  0.00     0.069 C 
HETATM   12  C   UNL     1      42.012 -11.815   5.863  1.00  0.00     0.190 C 
HETATM   13  N   UNL     1      42.879 -11.707   7.086  1.00  0.00    -0.067 N 
HETATM   14  C   UNL     1      40.853 -10.915   6.239  1.00  0.00     0.035 C 
HETATM   15  H   UNL     1      42.404 -12.201   7.857  1.00  0.00     0.280 HD
HETATM   16  C   UNL     1      44.211 -12.355   6.899  1.00  0.00     0.237 C 
HETATM   17  C   UNL     1      42.870 -10.246   7.457  1.00  0.00     0.235 C 
HETATM   18  C   UNL     1      43.975 -13.835   6.613  1.00  0.00     0.063 C 
HETATM   19  C   UNL     1      41.549  -9.722   6.893  1.00  0.00     0.030 C 
ENDBRANCH   8  10
ENDBRANCH   1   8
BRANCH   1  20
HETATM   20  C   UNL     1      42.185 -15.833   2.969  1.00  0.00    -0.021 A 
HETATM   21  C   UNL     1      42.623 -15.203   1.788  1.00  0.00     0.012 A 
HETATM   22  C   UNL     1      41.717 -14.859   0.782  1.00  0.00     0.043 A 
HETATM   23  C   UNL     1      40.368 -15.132   0.953  1.00  0.00     0.116 A 
HETATM   24  F   UNL     1      39.499 -14.800  -0.010  1.00  0.00    -0.206 F 
HETATM   25  C   UNL     1      39.905 -15.741   2.112  1.00  0.00     0.043 A 
HETATM   26  C   UNL     1      40.808 -16.086   3.121  1.00  0.00     0.012 A 
ENDBRANCH   1  20
TORSDOF 4
ENDMDL
MODEL 4
REMARK VINA RESULT:      -8.3      2.354      3.037
REMARK  4 active torsions:
REMARK  status: ('A' for Active; 'I' for Inactive)
REMARK    1  A    between atoms: C_5  and  C_6 
REMARK    2  A    between atoms: C_6  and  N_7 
REMARK    3  A    between atoms: C_6  and  C_18 
REMARK    4  A    between atoms: N_7  and  C_8 
ROOT
HETATM    1  C   UNL     1      42.238 -14.208   2.749  1.00  0.00     0.288 C 
ENDROOT
BRANCH   1   2
HETATM    2  C   UNL     1      42.678 -13.128   3.724  1.00  0.00    -0.003 A 
HETATM    3  C   UNL     1      43.733 -12.255   3.473  1.00  0.00     0.126 A 
HETATM    4  N   UNL     1      44.157 -11.297   4.327  1.00  0.00    -0.272 NA
HETATM    5  C   UNL     1      43.468 -11.158   5.478  1.00  0.00     0.116 A 
HETATM    6  C   UNL     1      42.385 -11.949   5.820  1.00  0.00     0.020 A 
HETATM    7  C   UNL     1      41.989 -12.945   4.931  1.00  0.00     0.012 A 
ENDBRANCH   1   2
BRANCH   1   8
HETATM    8  N   UNL     1      40.780 -14.335   2.556  1.00  0.00     0.101 N 
HETATM    9  H   UNL     1      40.310 -13.930   3.366  1.00  0.00     0.317 HD
BRANCH   8  10
HETATM   10  C   UNL     1      40.222 -13.846   1.293  1.00  0.00     0.225 C 
HETATM   11  C   UNL     1      41.124 -12.791   0.619  1.00  0.00     0.069 C 
HETATM   12  C   UNL     1      40.560 -12.433  -0.745  1.00  0.00     0.190 C 
HETATM   13  N   UNL     1      40.488 -13.681  -1.580  1.00  0.00    -0.067 N 
HETATM   14  C   UNL     1      41.403 -11.535  -1.627  1.00  0.00     0.035 C 
HETATM   15  H   UNL     1      41.423 -14.118  -1.580  1.00  0.00     0.280 HD
HETATM   16  C   UNL     1      39.532 -14.684  -1.023  1.00  0.00     0.237 C 
HETATM   17  C   UNL     1      40.247 -13.209  -2.990  1.00  0.00     0.235 C 
HETATM   18  C   UNL     1      40.018 -15.070   0.371  1.00  0.00     0.063 C 
HETATM   19  C   UNL     1      40.835 -11.798  -3.021  1.00  0.00     0.030 C 
ENDBRANCH   8  10
ENDBRANCH   1   8
BRANCH   1  20
HETATM   20  C   UNL     1      42.816 -15.589   3.062  1.00  0.00    -0.021 A 
HETATM   21  C   UNL     1      42.854 -16.566   2.048  1.00  0.00     0.012 A 
HETATM   22  C   UNL     1      43.350 -17.846   2.305  1.00  0.00     0.043 A 
HETATM   23  C   UNL     1      43.801 -18.163   3.577  1.00  0.00     0.116 A 
HETATM   24  F   UNL     1      44.274 -19.391   3.823  1.00  0.00    -0.206 F 
HETATM   25  C   UNL     1      43.764 -17.225   4.601  1.00  0.00     0.043 A 
HETATM   26  C   UNL     1      43.268 -15.944   4.348  1.00  0.00     0.012 A 
ENDBRANCH   1  20
TORSDOF 4
ENDMDL
MODEL 5
REMARK VINA RESULT:      -8.0      2.705      6.141
REMARK  4 active torsions:
REMARK  status: ('A' for Active; 'I' for Inactive)
REMARK    1  A    between atoms: C_5  and  C_6 
REMARK    2  A    between atoms: C_6  and  N_7 
REMARK    3  A    between atoms: C_6  and  C_18 
REMARK    4  A    between atoms: N_7  and  C_8 
ROOT
HETATM    1  C   UNL     1      42.258 -15.160   4.380  1.00  0.00     0.288 C 
ENDROOT
BRANCH   1   2
HETATM    2  C   UNL     1      41.567 -15.052   3.031  1.00  0.00    -0.003 A 
HETATM    3  C   UNL     1      41.965 -14.162   2.037  1.00  0.00     0.126 A 
HETATM    4  N   UNL     1      41.360 -14.032   0.835  1.00  0.00    -0.272 NA
HETATM    5  C   UNL     1      40.330 -14.864   0.577  1.00  0.00     0.116 A 
HETATM    6  C   UNL     1      39.867 -15.807   1.478  1.00  0.00     0.020 A 
HETATM    7  C   UNL     1      40.494 -15.899   2.719  1.00  0.00     0.012 A 
ENDBRANCH   1   2
BRANCH   1   8
HETATM    8  N   UNL     1      43.279 -14.130   4.657  1.00  0.00     0.101 N 
HETATM    9  H   UNL     1      43.468 -13.622   3.793  1.00  0.00     0.317 HD
BRANCH   8  10
HETATM   10  C   UNL     1      43.036 -13.229   5.786  1.00  0.00     0.225 C 
HETATM   11  C   UNL     1      44.344 -12.726   6.432  1.00  0.00     0.069 C 
HETATM   12  C   UNL     1      44.023 -11.693   7.498  1.00  0.00     0.190 C 
HETATM   13  N   UNL     1      43.276 -10.556   6.858  1.00  0.00    -0.067 N 
HETATM   14  C   UNL     1      45.192 -10.962   8.126  1.00  0.00     0.035 C 
HETATM   15  H   UNL     1      43.833 -10.219   6.058  1.00  0.00     0.280 HD
HETATM   16  C   UNL     1      41.946 -10.979   6.324  1.00  0.00     0.237 C 
HETATM   17  C   UNL     1      43.287  -9.444   7.874  1.00  0.00     0.235 C 
HETATM   18  C   UNL     1      42.187 -12.047   5.262  1.00  0.00     0.063 C 
HETATM   19  C   UNL     1      44.536  -9.714   8.715  1.00  0.00     0.030 C 
ENDBRANCH   8  10
ENDBRANCH   1   8
BRANCH   1  20
HETATM   20  C   UNL     1      42.864 -16.539   4.649  1.00  0.00    -0.021 A 
HETATM   21  C   UNL     1      42.761 -17.097   5.938  1.00  0.00     0.012 A 
HETATM   22  C   UNL     1      43.325 -18.342   6.227  1.00  0.00     0.043 A 
HETATM   23  C   UNL     1      44.004 -19.033   5.235  1.00  0.00     0.116 A 
HETATM   24  F   UNL     1      44.547 -20.224   5.513  1.00  0.00    -0.206 F 
HETATM   25  C   UNL     1      44.133 -18.503   3.958  1.00  0.00     0.043 A 
HETATM   26  C   UNL     1      43.571 -17.258   3.665  1.00  0.00     0.012 A 
ENDBRANCH   1  20
TORSDOF 4
ENDMDL
MODEL 6
REMARK VINA RESULT:      -7.9     13.869     15.820
REMARK  4 active torsions:
REMARK  status: ('A' for Active; 'I' for Inactive)
REMARK    1  A    between atoms: C_5  and  C_6 
REMARK    2  A    between atoms: C_6  and  N_7 
REMARK    3  A    between atoms: C_6  and  C_18 
REMARK    4  A    between atoms: N_7  and  C_8 
ROOT
HETATM    1  C   UNL     1      45.110 -29.486  -0.259  1.00  0.00     0.288 C 
ENDROOT
BRANCH   1   2
HETATM    2  C   UNL     1      43.893 -29.862   0.569  1.00  0.00    -0.003 A 
HETATM    3  C   UNL     1      42.801 -29.017   0.751  1.00  0.00     0.126 A 
HETATM    4  N   UNL     1      41.713 -29.318   1.495  1.00  0.00    -0.272 NA
HETATM    5  C   UNL     1      41.676 -30.545   2.054  1.00  0.00     0.116 A 
HETATM    6  C   UNL     1      42.690 -31.478   1.916  1.00  0.00     0.020 A 
HETATM    7  C   UNL     1      43.810 -31.129   1.165  1.00  0.00     0.012 A 
ENDBRANCH   1   2
BRANCH   1   8
HETATM    8  N   UNL     1      45.768 -28.218   0.114  1.00  0.00     0.101 N 
HETATM    9  H   UNL     1      45.104 -27.654   0.645  1.00  0.00     0.317 HD
BRANCH   8  10
HETATM   10  C   UNL     1      47.072 -28.304   0.774  1.00  0.00     0.225 C 
HETATM   11  C   UNL     1      46.959 -28.729   2.254  1.00  0.00     0.069 C 
HETATM   12  C   UNL     1      48.346 -28.935   2.834  1.00  0.00     0.190 C 
HETATM   13  N   UNL     1      49.053 -29.991   2.032  1.00  0.00    -0.067 N 
HETATM   14  C   UNL     1      48.432 -29.517   4.230  1.00  0.00     0.035 C 
HETATM   15  H   UNL     1      48.449 -30.826   2.004  1.00  0.00     0.280 HD
HETATM   16  C   UNL     1      49.290 -29.568   0.619  1.00  0.00     0.237 C 
HETATM   17  C   UNL     1      50.261 -30.375   2.847  1.00  0.00     0.235 C 
HETATM   18  C   UNL     1      47.931 -29.311  -0.026  1.00  0.00     0.063 C 
HETATM   19  C   UNL     1      49.861 -30.054   4.287  1.00  0.00     0.030 C 
ENDBRANCH   8  10
ENDBRANCH   1   8
BRANCH   1  20
HETATM   20  C   UNL     1      44.848 -29.480  -1.767  1.00  0.00    -0.021 A 
HETATM   21  C   UNL     1      44.365 -30.650  -2.386  1.00  0.00     0.012 A 
HETATM   22  C   UNL     1      44.138 -30.689  -3.763  1.00  0.00     0.043 A 
HETATM   23  C   UNL     1      44.402 -29.566  -4.533  1.00  0.00     0.116 A 
HETATM   24  F   UNL     1      44.188 -29.605  -5.854  1.00  0.00    -0.206 F 
HETATM   25  C   UNL     1      44.891 -28.403  -3.953  1.00  0.00     0.043 A 
HETATM   26  C   UNL     1      45.119 -28.360  -2.576  1.00  0.00     0.012 A 
ENDBRANCH   1  20
TORSDOF 4
ENDMDL
MODEL 7
REMARK VINA RESULT:      -7.9      3.162      6.678
REMARK  4 active torsions:
REMARK  status: ('A' for Active; 'I' for Inactive)
REMARK    1  A    between atoms: C_5  and  C_6 
REMARK    2  A    between atoms: C_6  and  N_7 
REMARK    3  A    between atoms: C_6  and  C_18 
REMARK    4  A    between atoms: N_7  and  C_8 
ROOT
HETATM    1  C   UNL     1      41.718 -14.123   2.681  1.00  0.00     0.288 C 
ENDROOT
BRANCH   1   2
HETATM    2  C   UNL     1      41.981 -12.794   3.370  1.00  0.00    -0.003 A 
HETATM    3  C   UNL     1      43.248 -12.224   3.474  1.00  0.00     0.126 A 
HETATM    4  N   UNL     1      43.514 -11.054   4.095  1.00  0.00    -0.272 NA
HETATM    5  C   UNL     1      42.463 -10.378   4.602  1.00  0.00     0.116 A 
HETATM    6  C   UNL     1      41.157 -10.833   4.531  1.00  0.00     0.020 A 
HETATM    7  C   UNL     1      40.917 -12.056   3.909  1.00  0.00     0.012 A 
ENDBRANCH   1   2
BRANCH   1   8
HETATM    8  N   UNL     1      42.877 -15.033   2.588  1.00  0.00     0.101 N 
HETATM    9  H   UNL     1      43.702 -14.541   2.931  1.00  0.00     0.317 HD
BRANCH   8  10
HETATM   10  C   UNL     1      42.738 -16.363   3.185  1.00  0.00     0.225 C 
HETATM   11  C   UNL     1      43.149 -17.492   2.217  1.00  0.00     0.069 C 
HETATM   12  C   UNL     1      43.116 -18.825   2.943  1.00  0.00     0.190 C 
HETATM   13  N   UNL     1      44.057 -18.761   4.113  1.00  0.00    -0.067 N 
HETATM   14  C   UNL     1      43.651 -20.031   2.198  1.00  0.00     0.035 C 
HETATM   15  H   UNL     1      44.980 -18.462   3.763  1.00  0.00     0.280 HD
HETATM   16  C   UNL     1      43.626 -17.760   5.135  1.00  0.00     0.237 C 
HETATM   17  C   UNL     1      44.224 -20.185   4.574  1.00  0.00     0.235 C 
HETATM   18  C   UNL     1      43.605 -16.389   4.466  1.00  0.00     0.063 C 
HETATM   19  C   UNL     1      43.948 -21.021   3.323  1.00  0.00     0.030 C 
ENDBRANCH   8  10
ENDBRANCH   1   8
BRANCH   1  20
HETATM   20  C   UNL     1      41.091 -13.979   1.293  1.00  0.00    -0.021 A 
HETATM   21  C   UNL     1      41.269 -12.777   0.579  1.00  0.00     0.012 A 
HETATM   22  C   UNL     1      40.690 -12.600  -0.680  1.00  0.00     0.043 A 
HETATM   23  C   UNL     1      39.922 -13.615  -1.229  1.00  0.00     0.116 A 
HETATM   24  F   UNL     1      39.365 -13.444  -2.434  1.00  0.00    -0.206 F 
HETATM   25  C   UNL     1      39.718 -14.806  -0.544  1.00  0.00     0.043 A 
HETATM   26  C   UNL     1      40.295 -14.986   0.715  1.00  0.00     0.012 A 
ENDBRANCH   1  20
TORSDOF 4
ENDMDL
MODEL 8
REMARK VINA RESULT:      -7.5      2.729      6.603
REMARK  4 active torsions:
REMARK  status: ('A' for Active; 'I' for Inactive)
REMARK    1  A    between atoms: C_5  and  C_6 
REMARK    2  A    between atoms: C_6  and  N_7 
REMARK    3  A    between atoms: C_6  and  C_18 
REMARK    4  A    between atoms: N_7  and  C_8 
ROOT
HETATM    1  C   UNL     1      41.140 -13.449   1.810  1.00  0.00     0.288 C 
ENDROOT
BRANCH   1   2
HETATM    2  C   UNL     1      40.693 -13.332   0.362  1.00  0.00    -0.003 A 
HETATM    3  C   UNL     1      40.992 -12.237  -0.445  1.00  0.00     0.126 A 
HETATM    4  N   UNL     1      40.595 -12.098  -1.729  1.00  0.00    -0.272 NA
HETATM    5  C   UNL     1      39.903 -13.123  -2.268  1.00  0.00     0.116 A 
HETATM    6  C   UNL     1      39.576 -14.273  -1.572  1.00  0.00     0.020 A 
HETATM    7  C   UNL     1      39.976 -14.375  -0.241  1.00  0.00     0.012 A 
ENDBRANCH   1   2
BRANCH   1   8
HETATM    8  N   UNL     1      42.039 -12.380   2.287  1.00  0.00     0.101 N 
HETATM    9  H   UNL     1      41.688 -11.485   1.945  1.00  0.00     0.317 HD
BRANCH   8  10
HETATM   10  C   UNL     1      42.341 -12.344   3.720  1.00  0.00     0.225 C 
HETATM   11  C   UNL     1      43.816 -11.995   4.005  1.00  0.00     0.069 C 
HETATM   12  C   UNL     1      44.025 -11.837   5.501  1.00  0.00     0.190 C 
HETATM   13  N   UNL     1      43.116 -10.750   6.002  1.00  0.00    -0.067 N 
HETATM   14  C   UNL     1      45.376 -11.329   5.961  1.00  0.00     0.035 C 
HETATM   15  H   UNL     1      43.285  -9.907   5.433  1.00  0.00     0.280 HD
HETATM   16  C   UNL     1      41.672 -11.102   5.853  1.00  0.00     0.237 C 
HETATM   17  C   UNL     1      43.605 -10.424   7.390  1.00  0.00     0.235 C 
HETATM   18  C   UNL     1      41.392 -11.309   4.368  1.00  0.00     0.063 C 
HETATM   19  C   UNL     1      45.083 -10.813   7.369  1.00  0.00     0.030 C 
ENDBRANCH   8  10
ENDBRANCH   1   8
BRANCH   1  20
HETATM   20  C   UNL     1      41.761 -14.805   2.151  1.00  0.00    -0.021 A 
HETATM   21  C   UNL     1      41.126 -15.634   3.097  1.00  0.00     0.012 A 
HETATM   22  C   UNL     1      41.678 -16.867   3.453  1.00  0.00     0.043 A 
HETATM   23  C   UNL     1      42.872 -17.275   2.877  1.00  0.00     0.116 A 
HETATM   24  F   UNL     1      43.402 -18.455   3.220  1.00  0.00    -0.206 F 
HETATM   25  C   UNL     1      43.528 -16.473   1.951  1.00  0.00     0.043 A 
HETATM   26  C   UNL     1      42.979 -15.239   1.593  1.00  0.00     0.012 A 
ENDBRANCH   1  20
TORSDOF 4
ENDMDL
MODEL 9
REMARK VINA RESULT:      -7.4     13.835     17.942
REMARK  4 active torsions:
REMARK  status: ('A' for Active; 'I' for Inactive)
REMARK    1  A    between atoms: C_5  and  C_6 
REMARK    2  A    between atoms: C_6  and  N_7 
REMARK    3  A    between atoms: C_6  and  C_18 
REMARK    4  A    between atoms: N_7  and  C_8 
ROOT
HETATM    1  C   UNL     1      40.217  -7.118  16.606  1.00  0.00     0.288 C 
ENDROOT
BRANCH   1   2
HETATM    2  C   UNL     1      39.263  -6.002  16.216  1.00  0.00    -0.003 A 
HETATM    3  C   UNL     1      38.398  -6.079  15.127  1.00  0.00     0.126 A 
HETATM    4  N   UNL     1      37.551  -5.096  14.748  1.00  0.00    -0.272 NA
HETATM    5  C   UNL     1      37.518  -3.988  15.517  1.00  0.00     0.116 A 
HETATM    6  C   UNL     1      38.310  -3.814  16.639  1.00  0.00     0.020 A 
HETATM    7  C   UNL     1      39.192  -4.833  16.989  1.00  0.00     0.012 A 
ENDBRANCH   1   2
BRANCH   1   8
HETATM    8  N   UNL     1      40.960  -6.911  17.865  1.00  0.00     0.101 N 
HETATM    9  H   UNL     1      40.488  -6.182  18.402  1.00  0.00     0.317 HD
BRANCH   8  10
HETATM   10  C   UNL     1      41.251  -8.094  18.677  1.00  0.00     0.225 C 
HETATM   11  C   UNL     1      42.438  -7.874  19.638  1.00  0.00     0.069 C 
HETATM   12  C   UNL     1      42.595  -9.083  20.543  1.00  0.00     0.190 C 
HETATM   13  N   UNL     1      41.318  -9.278  21.313  1.00  0.00    -0.067 N 
HETATM   14  C   UNL     1      43.605  -8.979  21.667  1.00  0.00     0.035 C 
HETATM   15  H   UNL     1      41.093  -8.389  21.785  1.00  0.00     0.280 HD
HETATM   16  C   UNL     1      40.164  -9.613  20.425  1.00  0.00     0.237 C 
HETATM   17  C   UNL     1      41.652 -10.259  22.406  1.00  0.00     0.235 C 
HETATM   18  C   UNL     1      39.965  -8.449  19.459  1.00  0.00     0.063 C 
HETATM   19  C   UNL     1      43.154 -10.074  22.632  1.00  0.00     0.030 C 
ENDBRANCH   8  10
ENDBRANCH   1   8
BRANCH   1  20
HETATM   20  C   UNL     1      41.211  -7.488  15.503  1.00  0.00    -0.021 A 
HETATM   21  C   UNL     1      42.281  -6.617  15.222  1.00  0.00     0.012 A 
HETATM   22  C   UNL     1      43.193  -6.909  14.204  1.00  0.00     0.043 A 
HETATM   23  C   UNL     1      43.036  -8.065  13.455  1.00  0.00     0.116 A 
HETATM   24  F   UNL     1      43.908  -8.343  12.478  1.00  0.00    -0.206 F 
HETATM   25  C   UNL     1      41.983  -8.936  13.700  1.00  0.00     0.043 A 
HETATM   26  C   UNL     1      41.068  -8.647  14.716  1.00  0.00     0.012 A 
ENDBRANCH   1  20
TORSDOF 4
ENDMDL
MODEL 10
REMARK VINA RESULT:      -7.4      3.230      7.508
REMARK  4 active torsions:
REMARK  status: ('A' for Active; 'I' for Inactive)
REMARK    1  A    between atoms: C_5  and  C_6 
REMARK    2  A    between atoms: C_6  and  N_7 
REMARK    3  A    between atoms: C_6  and  C_18 
REMARK    4  A    between atoms: N_7  and  C_8 
ROOT
HETATM    1  C   UNL     1      40.201 -12.898   0.495  1.00  0.00     0.288 C 
ENDROOT
BRANCH   1   2
HETATM    2  C   UNL     1      40.391 -11.395   0.611  1.00  0.00    -0.003 A 
HETATM    3  C   UNL     1      39.765 -10.616   1.581  1.00  0.00     0.126 A 
HETATM    4  N   UNL     1      39.903  -9.277   1.698  1.00  0.00    -0.272 NA
HETATM    5  C   UNL     1      40.747  -8.673   0.836  1.00  0.00     0.116 A 
HETATM    6  C   UNL     1      41.445  -9.349  -0.149  1.00  0.00     0.020 A 
HETATM    7  C   UNL     1      41.262 -10.725  -0.261  1.00  0.00     0.012 A 
ENDBRANCH   1   2
BRANCH   1   8
HETATM    8  N   UNL     1      41.433 -13.705   0.595  1.00  0.00     0.101 N 
HETATM    9  H   UNL     1      42.235 -13.087   0.470  1.00  0.00     0.317 HD
BRANCH   8  10
HETATM   10  C   UNL     1      41.579 -14.568   1.770  1.00  0.00     0.225 C 
HETATM   11  C   UNL     1      42.262 -15.911   1.436  1.00  0.00     0.069 C 
HETATM   12  C   UNL     1      42.507 -16.692   2.715  1.00  0.00     0.190 C 
HETATM   13  N   UNL     1      43.375 -15.867   3.624  1.00  0.00    -0.067 N 
HETATM   14  C   UNL     1      43.322 -17.964   2.602  1.00  0.00     0.035 C 
HETATM   15  H   UNL     1      44.217 -15.592   3.097  1.00  0.00     0.280 HD
HETATM   16  C   UNL     1      42.701 -14.610   4.068  1.00  0.00     0.237 C 
HETATM   17  C   UNL     1      43.845 -16.813   4.699  1.00  0.00     0.235 C 
HETATM   18  C   UNL     1      42.392 -13.782   2.825  1.00  0.00     0.063 C 
HETATM   19  C   UNL     1      43.800 -18.190   4.035  1.00  0.00     0.030 C 
ENDBRANCH   8  10
ENDBRANCH   1   8
BRANCH   1  20
HETATM   20  C   UNL     1      39.433 -13.324  -0.758  1.00  0.00    -0.021 A 
HETATM   21  C   UNL     1      39.889 -14.431  -1.500  1.00  0.00     0.012 A 
HETATM   22  C   UNL     1      39.229 -14.833  -2.664  1.00  0.00     0.043 A 
HETATM   23  C   UNL     1      38.118 -14.127  -3.100  1.00  0.00     0.116 A 
HETATM   24  F   UNL     1      37.487 -14.510  -4.216  1.00  0.00    -0.206 F 
HETATM   25  C   UNL     1      37.653 -13.023  -2.396  1.00  0.00     0.043 A 
HETATM   26  C   UNL     1      38.311 -12.618  -1.232  1.00  0.00     0.012 A 
ENDBRANCH   1  20
TORSDOF 4
ENDMDL
