MODEL 1
REMARK VINA RESULT:      -7.3      0.000      0.000
REMARK  3 active torsions:
REMARK  status: ('A' for Active; 'I' for Inactive)
REMARK    1  A    between atoms: C_2  and  N_3 
REMARK    2  A    between atoms: N_3  and  C_4 
REMARK    3  A    between atoms: C_12  and  C_13 
ROOT
HETATM    1  C   UNL     1      41.472 -12.967   5.471  1.00  0.00     0.139 A 
HETATM    2  N   UNL     1      40.460 -12.091   5.288  1.00  0.00    -0.224 NA
HETATM    3  C   UNL     1      39.503 -12.360   4.391  1.00  0.00     0.236 A 
HETATM    4  N   UNL     1      39.404 -13.434   3.612  1.00  0.00    -0.234 NA
HETATM    5  C   UNL     1      40.406 -14.303   3.817  1.00  0.00     0.113 A 
HETATM    6  C   UNL     1      41.462 -14.167   4.709  1.00  0.00     0.055 A 
HETATM    7  S   UNL     1      40.463 -15.751   2.928  1.00  0.00    -0.081 SA
HETATM    8  C   UNL     1      41.887 -16.248   3.717  1.00  0.00     0.062 A 
HETATM    9  C   UNL     1      42.339 -15.338   4.659  1.00  0.00    -0.003 A 
ENDROOT
BRANCH   9  10
HETATM   10  C   UNL     1      43.575 -15.516   5.528  1.00  0.00     0.188 C 
HETATM   11  O   UNL     1      44.498 -16.455   4.938  1.00  0.00    -0.336 OA
HETATM   12  C   UNL     1      44.201 -17.752   5.264  1.00  0.00     0.103 A 
HETATM   13  C   UNL     1      43.366 -18.103   6.329  1.00  0.00     0.102 A 
HETATM   14  C   UNL     1      44.776 -18.742   4.470  1.00  0.00     0.040 A 
HETATM   15  O   UNL     1      42.781 -17.188   7.163  1.00  0.00    -0.345 OA
HETATM   16  C   UNL     1      43.077 -19.444   6.572  1.00  0.00     0.039 A 
HETATM   17  C   UNL     1      43.341 -15.879   6.999  1.00  0.00     0.213 C 
HETATM   18  C   UNL     1      43.640 -20.436   5.769  1.00  0.00     0.003 A 
HETATM   19  C   UNL     1      44.494 -20.086   4.721  1.00  0.00     0.003 A 
ENDBRANCH   9  10
BRANCH   1  20
HETATM   20  N   UNL     1      42.480 -12.689   6.389  1.00  0.00    -0.366 N 
HETATM   21  H   UNL     1      42.869 -13.561   6.747  1.00  0.00     0.162 HD
BRANCH  20  22
HETATM   22  C   UNL     1      43.516 -11.667   6.172  1.00  0.00     0.021 C 
HETATM   23  C   UNL     1      43.176 -10.338   6.861  1.00  0.00     0.037 C 
HETATM   24  C   UNL     1      43.792 -11.472   4.675  1.00  0.00     0.037 C 
HETATM   25  C   UNL     1      44.801 -12.214   6.831  1.00  0.00     0.037 C 
ENDBRANCH  20  22
ENDBRANCH   1  20
TORSDOF 3
ENDMDL
MODEL 2
REMARK VINA RESULT:      -7.2      3.356      6.603
REMARK  3 active torsions:
REMARK  status: ('A' for Active; 'I' for Inactive)
REMARK    1  A    between atoms: C_2  and  N_3 
REMARK    2  A    between atoms: N_3  and  C_4 
REMARK    3  A    between atoms: C_12  and  C_13 
ROOT
HETATM    1  C   UNL     1      40.880 -14.509   1.464  1.00  0.00     0.139 A 
HETATM    2  N   UNL     1      40.235 -15.183   0.488  1.00  0.00    -0.224 NA
HETATM    3  C   UNL     1      39.790 -14.526  -0.591  1.00  0.00     0.236 A 
HETATM    4  N   UNL     1      39.905 -13.226  -0.850  1.00  0.00    -0.234 NA
HETATM    5  C   UNL     1      40.562 -12.572   0.121  1.00  0.00     0.113 A 
HETATM    6  C   UNL     1      41.084 -13.113   1.288  1.00  0.00     0.055 A 
HETATM    7  S   UNL     1      40.827 -10.899  -0.019  1.00  0.00    -0.081 SA
HETATM    8  C   UNL     1      41.659 -10.847   1.465  1.00  0.00     0.062 A 
HETATM    9  C   UNL     1      41.752 -12.083   2.085  1.00  0.00    -0.003 A 
ENDROOT
BRANCH   9  10
HETATM   10  C   UNL     1      42.449 -12.348   3.412  1.00  0.00     0.188 C 
HETATM   11  O   UNL     1      41.522 -12.849   4.397  1.00  0.00    -0.336 OA
HETATM   12  C   UNL     1      40.867 -11.841   5.054  1.00  0.00     0.103 A 
HETATM   13  C   UNL     1      41.305 -10.515   5.056  1.00  0.00     0.102 A 
HETATM   14  C   UNL     1      39.706 -12.196   5.741  1.00  0.00     0.040 A 
HETATM   15  O   UNL     1      42.444 -10.095   4.421  1.00  0.00    -0.345 OA
HETATM   16  C   UNL     1      40.561  -9.537   5.713  1.00  0.00     0.039 A 
HETATM   17  C   UNL     1      43.264 -11.196   4.010  1.00  0.00     0.213 C 
HETATM   18  C   UNL     1      39.391  -9.887   6.388  1.00  0.00     0.003 A 
HETATM   19  C   UNL     1      38.966 -11.218   6.406  1.00  0.00     0.003 A 
ENDBRANCH   9  10
BRANCH   1  20
HETATM   20  N   UNL     1      41.331 -15.180   2.596  1.00  0.00    -0.366 N 
HETATM   21  H   UNL     1      40.545 -15.622   3.070  1.00  0.00     0.162 HD
BRANCH  20  22
HETATM   22  C   UNL     1      42.535 -16.026   2.610  1.00  0.00     0.021 C 
HETATM   23  C   UNL     1      43.598 -15.545   1.613  1.00  0.00     0.037 C 
HETATM   24  C   UNL     1      42.175 -17.501   2.384  1.00  0.00     0.037 C 
HETATM   25  C   UNL     1      43.136 -15.889   4.027  1.00  0.00     0.037 C 
ENDBRANCH  20  22
ENDBRANCH   1  20
TORSDOF 3
ENDMDL
MODEL 3
REMARK VINA RESULT:      -6.8     15.634     17.441
REMARK  3 active torsions:
REMARK  status: ('A' for Active; 'I' for Inactive)
REMARK    1  A    between atoms: C_2  and  N_3 
REMARK    2  A    between atoms: N_3  and  C_4 
REMARK    3  A    between atoms: C_12  and  C_13 
ROOT
HETATM    1  C   UNL     1      50.202 -30.834   1.026  1.00  0.00     0.139 A 
HETATM    2  N   UNL     1      51.033 -31.860   1.315  1.00  0.00    -0.224 NA
HETATM    3  C   UNL     1      51.166 -32.871   0.447  1.00  0.00     0.236 A 
HETATM    4  N   UNL     1      50.560 -33.010  -0.730  1.00  0.00    -0.234 NA
HETATM    5  C   UNL     1      49.751 -31.977  -1.010  1.00  0.00     0.113 A 
HETATM    6  C   UNL     1      49.515 -30.861  -0.218  1.00  0.00     0.055 A 
HETATM    7  S   UNL     1      48.888 -31.954  -2.474  1.00  0.00    -0.081 SA
HETATM    8  C   UNL     1      48.185 -30.448  -2.103  1.00  0.00     0.062 A 
HETATM    9  C   UNL     1      48.589 -29.941  -0.879  1.00  0.00    -0.003 A 
ENDROOT
BRANCH   9  10
HETATM   10  C   UNL     1      48.140 -28.612  -0.289  1.00  0.00     0.188 C 
HETATM   11  O   UNL     1      47.379 -28.809   0.921  1.00  0.00    -0.336 OA
HETATM   12  C   UNL     1      46.051 -29.034   0.670  1.00  0.00     0.103 A 
HETATM   13  C   UNL     1      45.439 -28.733  -0.550  1.00  0.00     0.102 A 
HETATM   14  C   UNL     1      45.308 -29.598   1.706  1.00  0.00     0.040 A 
HETATM   15  O   UNL     1      46.100 -28.162  -1.605  1.00  0.00    -0.345 OA
HETATM   16  C   UNL     1      44.093 -29.032  -0.745  1.00  0.00     0.039 A 
HETATM   17  C   UNL     1      47.386 -27.658  -1.223  1.00  0.00     0.213 C 
HETATM   18  C   UNL     1      43.350 -29.609   0.286  1.00  0.00     0.003 A 
HETATM   19  C   UNL     1      43.956 -29.888   1.513  1.00  0.00     0.003 A 
ENDBRANCH   9  10
BRANCH   1  20
HETATM   20  N   UNL     1      50.045 -29.787   1.929  1.00  0.00    -0.366 N 
HETATM   21  H   UNL     1      49.596 -28.998   1.466  1.00  0.00     0.162 HD
BRANCH  20  22
HETATM   22  C   UNL     1      49.561 -29.970   3.307  1.00  0.00     0.021 C 
HETATM   23  C   UNL     1      50.691 -30.348   4.275  1.00  0.00     0.037 C 
HETATM   24  C   UNL     1      48.411 -30.986   3.357  1.00  0.00     0.037 C 
HETATM   25  C   UNL     1      49.011 -28.597   3.752  1.00  0.00     0.037 C 
ENDBRANCH  20  22
ENDBRANCH   1  20
TORSDOF 3
ENDMDL
MODEL 4
REMARK VINA RESULT:      -6.8      3.174      6.190
REMARK  3 active torsions:
REMARK  status: ('A' for Active; 'I' for Inactive)
REMARK    1  A    between atoms: C_2  and  N_3 
REMARK    2  A    between atoms: N_3  and  C_4 
REMARK    3  A    between atoms: C_12  and  C_13 
ROOT
HETATM    1  C   UNL     1      42.533 -14.311   3.573  1.00  0.00     0.139 A 
HETATM    2  N   UNL     1      42.061 -15.476   3.080  1.00  0.00    -0.224 NA
HETATM    3  C   UNL     1      41.931 -16.535   3.890  1.00  0.00     0.236 A 
HETATM    4  N   UNL     1      42.216 -16.599   5.188  1.00  0.00    -0.234 NA
HETATM    5  C   UNL     1      42.667 -15.429   5.667  1.00  0.00     0.113 A 
HETATM    6  C   UNL     1      42.850 -14.250   4.957  1.00  0.00     0.055 A 
HETATM    7  S   UNL     1      43.080 -15.293   7.311  1.00  0.00    -0.081 SA
HETATM    8  C   UNL     1      43.501 -13.653   7.129  1.00  0.00     0.062 A 
HETATM    9  C   UNL     1      43.336 -13.184   5.836  1.00  0.00    -0.003 A 
ENDROOT
BRANCH   9  10
HETATM   10  C   UNL     1      43.616 -11.761   5.376  1.00  0.00     0.188 C 
HETATM   11  O   UNL     1      44.844 -11.261   5.945  1.00  0.00    -0.336 OA
HETATM   12  C   UNL     1      44.656 -10.718   7.189  1.00  0.00     0.103 A 
HETATM   13  C   UNL     1      43.404 -10.343   7.681  1.00  0.00     0.102 A 
HETATM   14  C   UNL     1      45.796 -10.551   7.975  1.00  0.00     0.040 A 
HETATM   15  O   UNL     1      42.244 -10.460   6.962  1.00  0.00    -0.345 OA
HETATM   16  C   UNL     1      43.288  -9.837   8.974  1.00  0.00     0.039 A 
HETATM   17  C   UNL     1      42.497 -10.734   5.579  1.00  0.00     0.213 C 
HETATM   18  C   UNL     1      44.425  -9.683   9.768  1.00  0.00     0.003 A 
HETATM   19  C   UNL     1      45.680 -10.035   9.266  1.00  0.00     0.003 A 
ENDBRANCH   9  10
BRANCH   1  20
HETATM   20  N   UNL     1      42.687 -13.210   2.736  1.00  0.00    -0.366 N 
HETATM   21  H   UNL     1      43.416 -13.400   2.049  1.00  0.00     0.162 HD
BRANCH  20  22
HETATM   22  C   UNL     1      41.556 -12.469   2.155  1.00  0.00     0.021 C 
HETATM   23  C   UNL     1      40.332 -12.453   3.081  1.00  0.00     0.037 C 
HETATM   24  C   UNL     1      41.202 -13.006   0.761  1.00  0.00     0.037 C 
HETATM   25  C   UNL     1      42.037 -11.009   2.000  1.00  0.00     0.037 C 
ENDBRANCH  20  22
ENDBRANCH   1  20
TORSDOF 3
ENDMDL
MODEL 5
REMARK VINA RESULT:      -6.7     15.312     16.998
REMARK  3 active torsions:
REMARK  status: ('A' for Active; 'I' for Inactive)
REMARK    1  A    between atoms: C_2  and  N_3 
REMARK    2  A    between atoms: N_3  and  C_4 
REMARK    3  A    between atoms: C_12  and  C_13 
ROOT
HETATM    1  C   UNL     1      46.165 -29.115   1.230  1.00  0.00     0.139 A 
HETATM    2  N   UNL     1      46.791 -29.354   2.403  1.00  0.00    -0.224 NA
HETATM    3  C   UNL     1      48.105 -29.610   2.414  1.00  0.00     0.236 A 
HETATM    4  N   UNL     1      48.928 -29.660   1.370  1.00  0.00    -0.234 NA
HETATM    5  C   UNL     1      48.296 -29.404   0.214  1.00  0.00     0.113 A 
HETATM    6  C   UNL     1      46.947 -29.119   0.043  1.00  0.00     0.055 A 
HETATM    7  S   UNL     1      49.169 -29.408  -1.245  1.00  0.00    -0.081 SA
HETATM    8  C   UNL     1      47.779 -29.015  -2.146  1.00  0.00     0.062 A 
HETATM    9  C   UNL     1      46.642 -28.872  -1.367  1.00  0.00    -0.003 A 
ENDROOT
BRANCH   9  10
HETATM   10  C   UNL     1      45.260 -28.511  -1.891  1.00  0.00     0.188 C 
HETATM   11  O   UNL     1      44.369 -29.645  -1.838  1.00  0.00    -0.336 OA
HETATM   12  C   UNL     1      44.474 -30.441  -2.948  1.00  0.00     0.103 A 
HETATM   13  C   UNL     1      45.068 -30.019  -4.140  1.00  0.00     0.102 A 
HETATM   14  C   UNL     1      43.955 -31.730  -2.842  1.00  0.00     0.040 A 
HETATM   15  O   UNL     1      45.583 -28.763  -4.325  1.00  0.00    -0.345 OA
HETATM   16  C   UNL     1      45.176 -30.902  -5.213  1.00  0.00     0.039 A 
HETATM   17  C   UNL     1      45.192 -27.866  -3.279  1.00  0.00     0.213 C 
HETATM   18  C   UNL     1      44.670 -32.198  -5.104  1.00  0.00     0.003 A 
HETATM   19  C   UNL     1      44.055 -32.610  -3.920  1.00  0.00     0.003 A 
ENDBRANCH   9  10
BRANCH   1  20
HETATM   20  N   UNL     1      44.797 -28.864   1.207  1.00  0.00    -0.366 N 
HETATM   21  H   UNL     1      44.550 -28.385   0.342  1.00  0.00     0.162 HD
BRANCH  20  22
HETATM   22  C   UNL     1      43.784 -29.857   1.599  1.00  0.00     0.021 C 
HETATM   23  C   UNL     1      43.637 -29.968   3.123  1.00  0.00     0.037 C 
HETATM   24  C   UNL     1      44.072 -31.222   0.960  1.00  0.00     0.037 C 
HETATM   25  C   UNL     1      42.439 -29.339   1.042  1.00  0.00     0.037 C 
ENDBRANCH  20  22
ENDBRANCH   1  20
TORSDOF 3
ENDMDL
MODEL 6
REMARK VINA RESULT:      -6.7     15.191     16.380
REMARK  3 active torsions:
REMARK  status: ('A' for Active; 'I' for Inactive)
REMARK    1  A    between atoms: C_2  and  N_3 
REMARK    2  A    between atoms: N_3  and  C_4 
REMARK    3  A    between atoms: C_12  and  C_13 
ROOT
HETATM    1  C   UNL     1      44.850 -29.395   0.976  1.00  0.00     0.139 A 
HETATM    2  N   UNL     1      43.627 -29.724   0.508  1.00  0.00    -0.224 NA
HETATM    3  C   UNL     1      42.894 -30.641   1.152  1.00  0.00     0.236 A 
HETATM    4  N   UNL     1      43.224 -31.310   2.254  1.00  0.00    -0.234 NA
HETATM    5  C   UNL     1      44.434 -30.961   2.717  1.00  0.00     0.113 A 
HETATM    6  C   UNL     1      45.303 -30.029   2.165  1.00  0.00     0.055 A 
HETATM    7  S   UNL     1      45.042 -31.692   4.126  1.00  0.00    -0.081 SA
HETATM    8  C   UNL     1      46.476 -30.777   4.052  1.00  0.00     0.062 A 
HETATM    9  C   UNL     1      46.518 -29.909   2.973  1.00  0.00    -0.003 A 
ENDROOT
BRANCH   9  10
HETATM   10  C   UNL     1      47.663 -28.957   2.656  1.00  0.00     0.188 C 
HETATM   11  O   UNL     1      48.257 -29.263   1.377  1.00  0.00    -0.336 OA
HETATM   12  C   UNL     1      49.218 -30.234   1.469  1.00  0.00     0.103 A 
HETATM   13  C   UNL     1      49.821 -30.604   2.674  1.00  0.00     0.102 A 
HETATM   14  C   UNL     1      49.585 -30.863   0.281  1.00  0.00     0.040 A 
HETATM   15  O   UNL     1      49.527 -30.019   3.877  1.00  0.00    -0.345 OA
HETATM   16  C   UNL     1      50.762 -31.632   2.694  1.00  0.00     0.039 A 
HETATM   17  C   UNL     1      48.762 -28.819   3.715  1.00  0.00     0.213 C 
HETATM   18  C   UNL     1      51.119 -32.273   1.507  1.00  0.00     0.003 A 
HETATM   19  C   UNL     1      50.534 -31.885   0.299  1.00  0.00     0.003 A 
ENDBRANCH   9  10
BRANCH   1  20
HETATM   20  N   UNL     1      45.625 -28.455   0.304  1.00  0.00    -0.366 N 
HETATM   21  H   UNL     1      46.389 -28.147   0.905  1.00  0.00     0.162 HD
BRANCH  20  22
HETATM   22  C   UNL     1      46.047 -28.604  -1.098  1.00  0.00     0.021 C 
HETATM   23  C   UNL     1      45.019 -28.026  -2.080  1.00  0.00     0.037 C 
HETATM   24  C   UNL     1      46.377 -30.067  -1.422  1.00  0.00     0.037 C 
HETATM   25  C   UNL     1      47.343 -27.774  -1.244  1.00  0.00     0.037 C 
ENDBRANCH  20  22
ENDBRANCH   1  20
TORSDOF 3
ENDMDL
MODEL 7
REMARK VINA RESULT:      -6.6      2.884      6.271
REMARK  3 active torsions:
REMARK  status: ('A' for Active; 'I' for Inactive)
REMARK    1  A    between atoms: C_2  and  N_3 
REMARK    2  A    between atoms: N_3  and  C_4 
REMARK    3  A    between atoms: C_12  and  C_13 
ROOT
HETATM    1  C   UNL     1      43.304 -15.880   4.234  1.00  0.00     0.139 A 
HETATM    2  N   UNL     1      43.417 -17.059   3.584  1.00  0.00    -0.224 NA
HETATM    3  C   UNL     1      43.054 -17.145   2.298  1.00  0.00     0.236 A 
HETATM    4  N   UNL     1      42.575 -16.172   1.527  1.00  0.00    -0.234 NA
HETATM    5  C   UNL     1      42.484 -15.004   2.180  1.00  0.00     0.113 A 
HETATM    6  C   UNL     1      42.823 -14.759   3.505  1.00  0.00     0.055 A 
HETATM    7  S   UNL     1      41.902 -13.627   1.371  1.00  0.00    -0.081 SA
HETATM    8  C   UNL     1      42.099 -12.658   2.758  1.00  0.00     0.062 A 
HETATM    9  C   UNL     1      42.606 -13.351   3.845  1.00  0.00    -0.003 A 
ENDROOT
BRANCH   9  10
HETATM   10  C   UNL     1      42.901 -12.749   5.210  1.00  0.00     0.188 C 
HETATM   11  O   UNL     1      41.742 -12.806   6.067  1.00  0.00    -0.336 OA
HETATM   12  C   UNL     1      40.906 -11.737   5.884  1.00  0.00     0.103 A 
HETATM   13  C   UNL     1      41.298 -10.557   5.246  1.00  0.00     0.102 A 
HETATM   14  C   UNL     1      39.605 -11.872   6.368  1.00  0.00     0.040 A 
HETATM   15  O   UNL     1      42.561 -10.344   4.762  1.00  0.00    -0.345 OA
HETATM   16  C   UNL     1      40.377  -9.529   5.059  1.00  0.00     0.039 A 
HETATM   17  C   UNL     1      43.487 -11.333   5.231  1.00  0.00     0.213 C 
HETATM   18  C   UNL     1      39.071  -9.668   5.530  1.00  0.00     0.003 A 
HETATM   19  C   UNL     1      38.686 -10.837   6.189  1.00  0.00     0.003 A 
ENDBRANCH   9  10
BRANCH   1  20
HETATM   20  N   UNL     1      43.663 -15.785   5.575  1.00  0.00    -0.366 N 
HETATM   21  H   UNL     1      44.037 -14.857   5.765  1.00  0.00     0.162 HD
BRANCH  20  22
HETATM   22  C   UNL     1      42.822 -16.281   6.676  1.00  0.00     0.021 C 
HETATM   23  C   UNL     1      41.333 -16.315   6.302  1.00  0.00     0.037 C 
HETATM   24  C   UNL     1      43.063 -15.476   7.960  1.00  0.00     0.037 C 
HETATM   25  C   UNL     1      43.267 -17.738   6.931  1.00  0.00     0.037 C 
ENDBRANCH  20  22
ENDBRANCH   1  20
TORSDOF 3
ENDMDL
MODEL 8
REMARK VINA RESULT:      -6.6      4.746      6.293
REMARK  3 active torsions:
REMARK  status: ('A' for Active; 'I' for Inactive)
REMARK    1  A    between atoms: C_2  and  N_3 
REMARK    2  A    between atoms: N_3  and  C_4 
REMARK    3  A    between atoms: C_12  and  C_13 
ROOT
HETATM    1  C   UNL     1      38.290 -11.207  -0.645  1.00  0.00     0.139 A 
HETATM    2  N   UNL     1      37.330 -10.788  -1.498  1.00  0.00    -0.224 NA
HETATM    3  C   UNL     1      36.931 -11.589  -2.494  1.00  0.00     0.236 A 
HETATM    4  N   UNL     1      37.374 -12.813  -2.773  1.00  0.00    -0.234 NA
HETATM    5  C   UNL     1      38.314 -13.222  -1.908  1.00  0.00     0.113 A 
HETATM    6  C   UNL     1      38.824 -12.511  -0.829  1.00  0.00     0.055 A 
HETATM    7  S   UNL     1      39.006 -14.765  -2.080  1.00  0.00    -0.081 SA
HETATM    8  C   UNL     1      39.995 -14.539  -0.713  1.00  0.00     0.062 A 
HETATM    9  C   UNL     1      39.819 -13.305  -0.106  1.00  0.00    -0.003 A 
ENDROOT
BRANCH   9  10
HETATM   10  C   UNL     1      40.552 -12.827   1.138  1.00  0.00     0.188 C 
HETATM   11  O   UNL     1      41.903 -13.332   1.175  1.00  0.00    -0.336 OA
HETATM   12  C   UNL     1      41.976 -14.582   1.731  1.00  0.00     0.103 A 
HETATM   13  C   UNL     1      40.957 -15.136   2.509  1.00  0.00     0.102 A 
HETATM   14  C   UNL     1      43.140 -15.307   1.482  1.00  0.00     0.040 A 
HETATM   15  O   UNL     1      39.794 -14.477   2.811  1.00  0.00    -0.345 OA
HETATM   16  C   UNL     1      41.086 -16.431   3.005  1.00  0.00     0.039 A 
HETATM   17  C   UNL     1      39.869 -13.084   2.486  1.00  0.00     0.213 C 
HETATM   18  C   UNL     1      42.245 -17.165   2.745  1.00  0.00     0.003 A 
HETATM   19  C   UNL     1      43.274 -16.601   1.987  1.00  0.00     0.003 A 
ENDBRANCH   9  10
BRANCH   1  20
HETATM   20  N   UNL     1      38.722 -10.375   0.383  1.00  0.00    -0.366 N 
HETATM   21  H   UNL     1      38.958 -10.934   1.201  1.00  0.00     0.162 HD
BRANCH  20  22
HETATM   22  C   UNL     1      39.660  -9.259   0.183  1.00  0.00     0.021 C 
HETATM   23  C   UNL     1      38.939  -7.933  -0.096  1.00  0.00     0.037 C 
HETATM   24  C   UNL     1      40.682  -9.588  -0.914  1.00  0.00     0.037 C 
HETATM   25  C   UNL     1      40.422  -9.098   1.517  1.00  0.00     0.037 C 
ENDBRANCH  20  22
ENDBRANCH   1  20
TORSDOF 3
ENDMDL
MODEL 9
REMARK VINA RESULT:      -6.6      3.042      5.098
REMARK  3 active torsions:
REMARK  status: ('A' for Active; 'I' for Inactive)
REMARK    1  A    between atoms: C_2  and  N_3 
REMARK    2  A    between atoms: N_3  and  C_4 
REMARK    3  A    between atoms: C_12  and  C_13 
ROOT
HETATM    1  C   UNL     1      39.471 -12.870   2.080  1.00  0.00     0.139 A 
HETATM    2  N   UNL     1      39.265 -12.694   0.756  1.00  0.00    -0.224 NA
HETATM    3  C   UNL     1      39.814 -13.546  -0.119  1.00  0.00     0.236 A 
HETATM    4  N   UNL     1      40.574 -14.604   0.150  1.00  0.00    -0.234 NA
HETATM    5  C   UNL     1      40.756 -14.776   1.469  1.00  0.00     0.113 A 
HETATM    6  C   UNL     1      40.251 -13.985   2.492  1.00  0.00     0.055 A 
HETATM    7  S   UNL     1      41.691 -16.080   2.029  1.00  0.00    -0.081 SA
HETATM    8  C   UNL     1      41.439 -15.638   3.654  1.00  0.00     0.062 A 
HETATM    9  C   UNL     1      40.648 -14.510   3.800  1.00  0.00    -0.003 A 
ENDROOT
BRANCH   9  10
HETATM   10  C   UNL     1      40.241 -13.889   5.128  1.00  0.00     0.188 C 
HETATM   11  O   UNL     1      40.739 -12.540   5.248  1.00  0.00    -0.336 OA
HETATM   12  C   UNL     1      42.020 -12.499   5.732  1.00  0.00     0.103 A 
HETATM   13  C   UNL     1      42.627 -13.574   6.387  1.00  0.00     0.102 A 
HETATM   14  C   UNL     1      42.722 -11.310   5.540  1.00  0.00     0.040 A 
HETATM   15  O   UNL     1      41.995 -14.765   6.629  1.00  0.00    -0.345 OA
HETATM   16  C   UNL     1      43.949 -13.472   6.814  1.00  0.00     0.039 A 
HETATM   17  C   UNL     1      40.584 -14.679   6.396  1.00  0.00     0.213 C 
HETATM   18  C   UNL     1      44.658 -12.287   6.609  1.00  0.00     0.003 A 
HETATM   19  C   UNL     1      44.043 -11.205   5.976  1.00  0.00     0.003 A 
ENDBRANCH   9  10
BRANCH   1  20
HETATM   20  N   UNL     1      38.919 -11.981   2.997  1.00  0.00    -0.366 N 
HETATM   21  H   UNL     1      39.049 -12.337   3.942  1.00  0.00     0.162 HD
BRANCH  20  22
HETATM   22  C   UNL     1      39.101 -10.523   2.922  1.00  0.00     0.021 C 
HETATM   23  C   UNL     1      38.169  -9.870   1.892  1.00  0.00     0.037 C 
HETATM   24  C   UNL     1      40.570 -10.163   2.661  1.00  0.00     0.037 C 
HETATM   25  C   UNL     1      38.711  -9.972   4.312  1.00  0.00     0.037 C 
ENDBRANCH  20  22
ENDBRANCH   1  20
TORSDOF 3
ENDMDL
MODEL 10
REMARK VINA RESULT:      -6.6     15.782     17.943
REMARK  3 active torsions:
REMARK  status: ('A' for Active; 'I' for Inactive)
REMARK    1  A    between atoms: C_2  and  N_3 
REMARK    2  A    between atoms: N_3  and  C_4 
REMARK    3  A    between atoms: C_12  and  C_13 
ROOT
HETATM    1  C   UNL     1      49.659 -31.747   1.336  1.00  0.00     0.139 A 
HETATM    2  N   UNL     1      50.510 -32.765   1.590  1.00  0.00    -0.224 NA
HETATM    3  C   UNL     1      51.412 -33.121   0.667  1.00  0.00     0.236 A 
HETATM    4  N   UNL     1      51.599 -32.576  -0.533  1.00  0.00    -0.234 NA
HETATM    5  C   UNL     1      50.759 -31.556  -0.764  1.00  0.00     0.113 A 
HETATM    6  C   UNL     1      49.779 -31.071   0.092  1.00  0.00     0.055 A 
HETATM    7  S   UNL     1      50.838 -30.714  -2.238  1.00  0.00    -0.081 SA
HETATM    8  C   UNL     1      49.578 -29.667  -1.775  1.00  0.00     0.062 A 
HETATM    9  C   UNL     1      49.083 -29.931  -0.508  1.00  0.00    -0.003 A 
ENDROOT
BRANCH   9  10
HETATM   10  C   UNL     1      47.968 -29.154   0.178  1.00  0.00     0.188 C 
HETATM   11  O   UNL     1      46.746 -29.919   0.216  1.00  0.00    -0.336 OA
HETATM   12  C   UNL     1      46.008 -29.777  -0.929  1.00  0.00     0.103 A 
HETATM   13  C   UNL     1      46.205 -28.741  -1.846  1.00  0.00     0.102 A 
HETATM   14  C   UNL     1      45.021 -30.735  -1.158  1.00  0.00     0.040 A 
HETATM   15  O   UNL     1      47.140 -27.754  -1.680  1.00  0.00    -0.345 OA
HETATM   16  C   UNL     1      45.442 -28.688  -3.010  1.00  0.00     0.039 A 
HETATM   17  C   UNL     1      47.679 -27.745  -0.352  1.00  0.00     0.213 C 
HETATM   18  C   UNL     1      44.465 -29.655  -3.249  1.00  0.00     0.003 A 
HETATM   19  C   UNL     1      44.251 -30.676  -2.320  1.00  0.00     0.003 A 
ENDBRANCH   9  10
BRANCH   1  20
HETATM   20  N   UNL     1      48.707 -31.381   2.282  1.00  0.00    -0.366 N 
HETATM   21  H   UNL     1      48.102 -32.175   2.488  1.00  0.00     0.162 HD
BRANCH  20  22
HETATM   22  C   UNL     1      49.021 -30.597   3.487  1.00  0.00     0.021 C 
HETATM   23  C   UNL     1      47.917 -29.586   3.830  1.00  0.00     0.037 C 
HETATM   24  C   UNL     1      50.390 -29.915   3.361  1.00  0.00     0.037 C 
HETATM   25  C   UNL     1      49.094 -31.612   4.650  1.00  0.00     0.037 C 
ENDBRANCH  20  22
ENDBRANCH   1  20
TORSDOF 3
ENDMDL
