MODEL 1
REMARK VINA RESULT:      -9.8      0.000      0.000
REMARK  3 active torsions:
REMARK  status: ('A' for Active; 'I' for Inactive)
REMARK    1  A    between atoms: C_5  and  N_6 
REMARK       I    between atoms: N_6  and  C_7 
REMARK    2  A    between atoms: C_7  and  C_8 
REMARK    3  A    between atoms: C_8  and  N_9 
ROOT
HETATM    1  N   UNL     1      43.028 -13.683   3.788  1.00  0.00    -0.256 N 
HETATM    2  C   UNL     1      42.925 -13.571   5.155  1.00  0.00     0.330 A 
HETATM    3  O   UNL     1      42.871 -12.548   5.815  1.00  0.00    -0.246 OA
HETATM    4  N   UNL     1      42.958 -14.850   5.676  1.00  0.00    -0.303 N 
HETATM    5  C   UNL     1      43.128 -15.784   4.685  1.00  0.00     0.122 A 
HETATM    6  C   UNL     1      43.281 -17.098   4.895  1.00  0.00     0.077 A 
HETATM    7  C   UNL     1      43.355 -17.618   6.312  1.00  0.00     0.259 A 
HETATM    8  O   UNL     1      43.222 -16.979   7.340  1.00  0.00    -0.267 OA
HETATM    9  N   UNL     1      43.630 -18.965   6.195  1.00  0.00    -0.322 N 
HETATM   10  C   UNL     1      43.484 -18.256   4.012  1.00  0.00     0.009 A 
HETATM   11  C   UNL     1      43.703 -19.351   4.861  1.00  0.00     0.046 A 
HETATM   12  C   UNL     1      43.939 -20.632   4.401  1.00  0.00     0.030 A 
HETATM   13  C   UNL     1      43.938 -20.826   3.022  1.00  0.00     0.002 A 
HETATM   14  C   UNL     1      43.697 -19.750   2.152  1.00  0.00     0.001 A 
HETATM   15  C   UNL     1      43.467 -18.457   2.644  1.00  0.00     0.015 A 
HETATM   16  C   UNL     1      43.162 -14.995   3.412  1.00  0.00     0.280 A 
HETATM   17  O   UNL     1      43.297 -15.401   2.271  1.00  0.00    -0.265 OA
HETATM   18  H   UNL     1      42.942 -15.055   6.672  1.00  0.00     0.171 HD
HETATM   19  H   UNL     1      43.745 -19.573   6.992  1.00  0.00     0.169 HD
ENDROOT
BRANCH   1  20
HETATM   20  C   UNL     1      43.241 -12.553   2.909  1.00  0.00     0.240 C 
BRANCH  20  21
HETATM   21  C   UNL     1      42.005 -12.147   2.105  1.00  0.00     0.240 C 
HETATM   22  N   UNL     1      41.248 -13.229   1.682  1.00  0.00    -0.326 N 
HETATM   23  H   UNL     1      41.453 -14.131   2.110  1.00  0.00     0.169 HD
HETATM   24  O   UNL     1      41.813 -10.971   1.808  1.00  0.00    -0.271 OA
BRANCH  22  25
HETATM   25  C   UNL     1      40.259 -13.239   0.675  1.00  0.00     0.034 A 
HETATM   26  C   UNL     1      40.290 -14.296  -0.241  1.00  0.00     0.030 A 
HETATM   27  C   UNL     1      39.396 -14.337  -1.317  1.00  0.00     0.009 A 
HETATM   28  C   UNL     1      38.467 -13.310  -1.504  1.00  0.00    -0.062 A 
HETATM   29  C   UNL     1      37.509 -13.336  -2.658  1.00  0.00     0.048 C 
HETATM   30  C   UNL     1      38.417 -12.269  -0.572  1.00  0.00     0.009 A 
HETATM   31  C   UNL     1      39.307 -12.233   0.509  1.00  0.00     0.030 A 
ENDBRANCH  22  25
ENDBRANCH  20  21
ENDBRANCH   1  20
TORSDOF 3
ENDMDL
MODEL 2
REMARK VINA RESULT:      -9.7      1.882      7.414
REMARK  3 active torsions:
REMARK  status: ('A' for Active; 'I' for Inactive)
REMARK    1  A    between atoms: C_5  and  N_6 
REMARK       I    between atoms: N_6  and  C_7 
REMARK    2  A    between atoms: C_7  and  C_8 
REMARK    3  A    between atoms: C_8  and  N_9 
ROOT
HETATM    1  N   UNL     1      41.732 -12.726   3.657  1.00  0.00    -0.256 N 
HETATM    2  C   UNL     1      42.332 -11.499   3.494  1.00  0.00     0.330 A 
HETATM    3  O   UNL     1      42.855 -10.807   4.349  1.00  0.00    -0.246 OA
HETATM    4  N   UNL     1      42.180 -11.141   2.168  1.00  0.00    -0.303 N 
HETATM    5  C   UNL     1      41.456 -12.083   1.480  1.00  0.00     0.122 A 
HETATM    6  C   UNL     1      41.079 -11.968   0.200  1.00  0.00     0.077 A 
HETATM    7  C   UNL     1      41.385 -10.694  -0.551  1.00  0.00     0.259 A 
HETATM    8  O   UNL     1      42.018  -9.734  -0.149  1.00  0.00    -0.267 OA
HETATM    9  N   UNL     1      40.774 -10.836  -1.781  1.00  0.00    -0.322 N 
HETATM   10  C   UNL     1      40.311 -12.823  -0.718  1.00  0.00     0.009 A 
HETATM   11  C   UNL     1      40.149 -12.073  -1.892  1.00  0.00     0.046 A 
HETATM   12  C   UNL     1      39.470 -12.539  -3.002  1.00  0.00     0.030 A 
HETATM   13  C   UNL     1      38.941 -13.825  -2.934  1.00  0.00     0.002 A 
HETATM   14  C   UNL     1      39.110 -14.604  -1.776  1.00  0.00     0.001 A 
HETATM   15  C   UNL     1      39.799 -14.106  -0.661  1.00  0.00     0.015 A 
HETATM   16  C   UNL     1      41.167 -13.156   2.484  1.00  0.00     0.280 A 
HETATM   17  O   UNL     1      40.549 -14.195   2.328  1.00  0.00    -0.265 OA
HETATM   18  H   UNL     1      42.495 -10.254   1.782  1.00  0.00     0.171 HD
HETATM   19  H   UNL     1      40.805 -10.124  -2.494  1.00  0.00     0.169 HD
ENDROOT
BRANCH   1  20
HETATM   20  C   UNL     1      41.501 -13.334   4.950  1.00  0.00     0.240 C 
BRANCH  20  21
HETATM   21  C   UNL     1      41.745 -14.843   4.983  1.00  0.00     0.240 C 
HETATM   22  N   UNL     1      42.884 -15.228   4.291  1.00  0.00    -0.326 N 
HETATM   23  H   UNL     1      43.535 -14.489   4.027  1.00  0.00     0.169 HD
HETATM   24  O   UNL     1      40.924 -15.596   5.497  1.00  0.00    -0.271 OA
BRANCH  22  25
HETATM   25  C   UNL     1      43.219 -16.526   3.851  1.00  0.00     0.034 A 
HETATM   26  C   UNL     1      42.735 -16.922   2.599  1.00  0.00     0.030 A 
HETATM   27  C   UNL     1      42.955 -18.221   2.126  1.00  0.00     0.009 A 
HETATM   28  C   UNL     1      43.646 -19.151   2.906  1.00  0.00    -0.062 A 
HETATM   29  C   UNL     1      43.881 -20.549   2.415  1.00  0.00     0.048 C 
HETATM   30  C   UNL     1      44.155 -18.746   4.144  1.00  0.00     0.009 A 
HETATM   31  C   UNL     1      43.942 -17.443   4.613  1.00  0.00     0.030 A 
ENDBRANCH  22  25
ENDBRANCH  20  21
ENDBRANCH   1  20
TORSDOF 3
ENDMDL
MODEL 3
REMARK VINA RESULT:      -9.4      2.080      7.474
REMARK  3 active torsions:
REMARK  status: ('A' for Active; 'I' for Inactive)
REMARK    1  A    between atoms: C_5  and  N_6 
REMARK       I    between atoms: N_6  and  C_7 
REMARK    2  A    between atoms: C_7  and  C_8 
REMARK    3  A    between atoms: C_8  and  N_9 
ROOT
HETATM    1  N   UNL     1      41.183 -12.417   3.745  1.00  0.00    -0.256 N 
HETATM    2  C   UNL     1      40.191 -11.565   4.172  1.00  0.00     0.330 A 
HETATM    3  O   UNL     1      40.026 -11.119   5.294  1.00  0.00    -0.246 OA
HETATM    4  N   UNL     1      39.349 -11.343   3.099  1.00  0.00    -0.303 N 
HETATM    5  C   UNL     1      39.744 -12.067   2.002  1.00  0.00     0.122 A 
HETATM    6  C   UNL     1      39.075 -12.119   0.843  1.00  0.00     0.077 A 
HETATM    7  C   UNL     1      37.748 -11.407   0.721  1.00  0.00     0.259 A 
HETATM    8  O   UNL     1      37.210 -10.702   1.555  1.00  0.00    -0.267 OA
HETATM    9  N   UNL     1      37.263 -11.744  -0.527  1.00  0.00    -0.322 N 
HETATM   10  C   UNL     1      39.296 -12.818  -0.432  1.00  0.00     0.009 A 
HETATM   11  C   UNL     1      38.157 -12.562  -1.210  1.00  0.00     0.046 A 
HETATM   12  C   UNL     1      37.985 -13.055  -2.489  1.00  0.00     0.030 A 
HETATM   13  C   UNL     1      39.015 -13.830  -3.018  1.00  0.00     0.002 A 
HETATM   14  C   UNL     1      40.175 -14.081  -2.267  1.00  0.00     0.001 A 
HETATM   15  C   UNL     1      40.322 -13.574  -0.968  1.00  0.00     0.015 A 
HETATM   16  C   UNL     1      40.988 -12.780   2.437  1.00  0.00     0.280 A 
HETATM   17  O   UNL     1      41.690 -13.541   1.795  1.00  0.00    -0.265 OA
HETATM   18  H   UNL     1      38.504 -10.780   3.150  1.00  0.00     0.171 HD
HETATM   19  H   UNL     1      36.377 -11.414  -0.879  1.00  0.00     0.169 HD
ENDROOT
BRANCH   1  20
HETATM   20  C   UNL     1      42.132 -13.047   4.638  1.00  0.00     0.240 C 
BRANCH  20  21
HETATM   21  C   UNL     1      42.036 -14.572   4.675  1.00  0.00     0.240 C 
HETATM   22  N   UNL     1      43.127 -15.203   4.098  1.00  0.00    -0.326 N 
HETATM   23  H   UNL     1      43.948 -14.628   3.912  1.00  0.00     0.169 HD
HETATM   24  O   UNL     1      41.022 -15.123   5.093  1.00  0.00    -0.271 OA
BRANCH  22  25
HETATM   25  C   UNL     1      43.214 -16.548   3.678  1.00  0.00     0.034 A 
HETATM   26  C   UNL     1      44.016 -17.405   4.440  1.00  0.00     0.030 A 
HETATM   27  C   UNL     1      44.218 -18.733   4.045  1.00  0.00     0.009 A 
HETATM   28  C   UNL     1      43.638 -19.219   2.871  1.00  0.00    -0.062 A 
HETATM   29  C   UNL     1      43.854 -20.636   2.431  1.00  0.00     0.048 C 
HETATM   30  C   UNL     1      42.813 -18.370   2.126  1.00  0.00     0.009 A 
HETATM   31  C   UNL     1      42.604 -17.044   2.526  1.00  0.00     0.030 A 
ENDBRANCH  22  25
ENDBRANCH  20  21
ENDBRANCH   1  20
TORSDOF 3
ENDMDL
MODEL 4
REMARK VINA RESULT:      -9.3      2.330      8.883
REMARK  3 active torsions:
REMARK  status: ('A' for Active; 'I' for Inactive)
REMARK    1  A    between atoms: C_5  and  N_6 
REMARK       I    between atoms: N_6  and  C_7 
REMARK    2  A    between atoms: C_7  and  C_8 
REMARK    3  A    between atoms: C_8  and  N_9 
ROOT
HETATM    1  N   UNL     1      40.826 -13.905   1.948  1.00  0.00    -0.256 N 
HETATM    2  C   UNL     1      41.392 -14.698   0.978  1.00  0.00     0.330 A 
HETATM    3  O   UNL     1      42.325 -15.472   1.101  1.00  0.00    -0.246 OA
HETATM    4  N   UNL     1      40.749 -14.416  -0.212  1.00  0.00    -0.303 N 
HETATM    5  C   UNL     1      39.814 -13.425  -0.046  1.00  0.00     0.122 A 
HETATM    6  C   UNL     1      39.094 -12.884  -1.037  1.00  0.00     0.077 A 
HETATM    7  C   UNL     1      39.356 -13.311  -2.462  1.00  0.00     0.259 A 
HETATM    8  O   UNL     1      40.127 -14.173  -2.844  1.00  0.00    -0.267 OA
HETATM    9  N   UNL     1      38.555 -12.502  -3.242  1.00  0.00    -0.322 N 
HETATM   10  C   UNL     1      38.068 -11.831  -1.096  1.00  0.00     0.009 A 
HETATM   11  C   UNL     1      37.797 -11.639  -2.459  1.00  0.00     0.046 A 
HETATM   12  C   UNL     1      36.878 -10.718  -2.927  1.00  0.00     0.030 A 
HETATM   13  C   UNL     1      36.188  -9.967  -1.979  1.00  0.00     0.002 A 
HETATM   14  C   UNL     1      36.425 -10.159  -0.607  1.00  0.00     0.001 A 
HETATM   15  C   UNL     1      37.367 -11.095  -0.159  1.00  0.00     0.015 A 
HETATM   16  C   UNL     1      39.858 -13.092   1.414  1.00  0.00     0.280 A 
HETATM   17  O   UNL     1      39.201 -12.268   2.025  1.00  0.00    -0.265 OA
HETATM   18  H   UNL     1      41.001 -14.833  -1.104  1.00  0.00     0.171 HD
HETATM   19  H   UNL     1      38.532 -12.559  -4.249  1.00  0.00     0.169 HD
ENDROOT
BRANCH   1  20
HETATM   20  C   UNL     1      41.371 -13.763   3.281  1.00  0.00     0.240 C 
BRANCH  20  21
HETATM   21  C   UNL     1      41.492 -15.079   4.049  1.00  0.00     0.240 C 
HETATM   22  N   UNL     1      42.800 -15.519   4.180  1.00  0.00    -0.326 N 
HETATM   23  H   UNL     1      43.536 -14.849   3.957  1.00  0.00     0.169 HD
HETATM   24  O   UNL     1      40.486 -15.691   4.399  1.00  0.00    -0.271 OA
BRANCH  22  25
HETATM   25  C   UNL     1      43.236 -16.814   4.529  1.00  0.00     0.034 A 
HETATM   26  C   UNL     1      43.660 -17.649   3.488  1.00  0.00     0.030 A 
HETATM   27  C   UNL     1      44.031 -18.975   3.741  1.00  0.00     0.009 A 
HETATM   28  C   UNL     1      43.966 -19.493   5.037  1.00  0.00    -0.062 A 
HETATM   29  C   UNL     1      44.352 -20.915   5.320  1.00  0.00     0.048 C 
HETATM   30  C   UNL     1      43.571 -18.650   6.081  1.00  0.00     0.009 A 
HETATM   31  C   UNL     1      43.208 -17.321   5.828  1.00  0.00     0.030 A 
ENDBRANCH  22  25
ENDBRANCH  20  21
ENDBRANCH   1  20
TORSDOF 3
ENDMDL
MODEL 5
REMARK VINA RESULT:      -9.3      1.450      2.030
REMARK  3 active torsions:
REMARK  status: ('A' for Active; 'I' for Inactive)
REMARK    1  A    between atoms: C_5  and  N_6 
REMARK       I    between atoms: N_6  and  C_7 
REMARK    2  A    between atoms: C_7  and  C_8 
REMARK    3  A    between atoms: C_8  and  N_9 
ROOT
HETATM    1  N   UNL     1      42.080 -13.590   2.516  1.00  0.00    -0.256 N 
HETATM    2  C   UNL     1      42.392 -13.148   3.781  1.00  0.00     0.330 A 
HETATM    3  O   UNL     1      42.385 -12.001   4.191  1.00  0.00    -0.246 OA
HETATM    4  N   UNL     1      42.789 -14.250   4.515  1.00  0.00    -0.303 N 
HETATM    5  C   UNL     1      42.788 -15.385   3.744  1.00  0.00     0.122 A 
HETATM    6  C   UNL     1      43.206 -16.588   4.160  1.00  0.00     0.077 A 
HETATM    7  C   UNL     1      43.800 -16.729   5.542  1.00  0.00     0.259 A 
HETATM    8  O   UNL     1      43.894 -15.867   6.396  1.00  0.00    -0.267 OA
HETATM    9  N   UNL     1      44.235 -18.036   5.623  1.00  0.00    -0.322 N 
HETATM   10  C   UNL     1      43.304 -17.910   3.523  1.00  0.00     0.009 A 
HETATM   11  C   UNL     1      43.949 -18.736   4.456  1.00  0.00     0.046 A 
HETATM   12  C   UNL     1      44.230 -20.069   4.222  1.00  0.00     0.030 A 
HETATM   13  C   UNL     1      43.830 -20.601   2.998  1.00  0.00     0.002 A 
HETATM   14  C   UNL     1      43.162 -19.799   2.058  1.00  0.00     0.001 A 
HETATM   15  C   UNL     1      42.894 -18.447   2.317  1.00  0.00     0.015 A 
HETATM   16  C   UNL     1      42.297 -14.940   2.401  1.00  0.00     0.280 A 
HETATM   17  O   UNL     1      42.132 -15.606   1.394  1.00  0.00    -0.265 OA
HETATM   18  H   UNL     1      43.117 -14.200   5.477  1.00  0.00     0.171 HD
HETATM   19  H   UNL     1      44.688 -18.414   6.441  1.00  0.00     0.169 HD
ENDROOT
BRANCH   1  20
HETATM   20  C   UNL     1      41.825 -12.703   1.403  1.00  0.00     0.240 C 
BRANCH  20  21
HETATM   21  C   UNL     1      40.411 -12.810   0.831  1.00  0.00     0.240 C 
HETATM   22  N   UNL     1      40.359 -12.610  -0.541  1.00  0.00    -0.326 N 
HETATM   23  H   UNL     1      41.245 -12.629  -1.043  1.00  0.00     0.169 HD
HETATM   24  O   UNL     1      39.447 -12.955   1.576  1.00  0.00    -0.271 OA
BRANCH  22  25
HETATM   25  C   UNL     1      39.219 -12.320  -1.319  1.00  0.00     0.034 A 
HETATM   26  C   UNL     1      38.876 -10.971  -1.474  1.00  0.00     0.030 A 
HETATM   27  C   UNL     1      37.715 -10.603  -2.164  1.00  0.00     0.009 A 
HETATM   28  C   UNL     1      36.868 -11.580  -2.694  1.00  0.00    -0.062 A 
HETATM   29  C   UNL     1      35.616 -11.199  -3.427  1.00  0.00     0.048 C 
HETATM   30  C   UNL     1      37.226 -12.925  -2.565  1.00  0.00     0.009 A 
HETATM   31  C   UNL     1      38.392 -13.292  -1.882  1.00  0.00     0.030 A 
ENDBRANCH  22  25
ENDBRANCH  20  21
ENDBRANCH   1  20
TORSDOF 3
ENDMDL
MODEL 6
REMARK VINA RESULT:      -9.2      5.884      9.299
REMARK  3 active torsions:
REMARK  status: ('A' for Active; 'I' for Inactive)
REMARK    1  A    between atoms: C_5  and  N_6 
REMARK       I    between atoms: N_6  and  C_7 
REMARK    2  A    between atoms: C_7  and  C_8 
REMARK    3  A    between atoms: C_8  and  N_9 
ROOT
HETATM    1  N   UNL     1      43.473 -10.531   7.621  1.00  0.00    -0.256 N 
HETATM    2  C   UNL     1      42.396  -9.808   7.164  1.00  0.00     0.330 A 
HETATM    3  O   UNL     1      42.059  -8.685   7.495  1.00  0.00    -0.246 OA
HETATM    4  N   UNL     1      41.700 -10.618   6.287  1.00  0.00    -0.303 N 
HETATM    5  C   UNL     1      42.273 -11.862   6.201  1.00  0.00     0.122 A 
HETATM    6  C   UNL     1      41.772 -12.884   5.495  1.00  0.00     0.077 A 
HETATM    7  C   UNL     1      40.445 -12.720   4.792  1.00  0.00     0.259 A 
HETATM    8  O   UNL     1      39.766 -11.711   4.725  1.00  0.00    -0.267 OA
HETATM    9  N   UNL     1      40.151 -13.961   4.265  1.00  0.00    -0.322 N 
HETATM   10  C   UNL     1      42.197 -14.275   5.271  1.00  0.00     0.009 A 
HETATM   11  C   UNL     1      41.165 -14.874   4.533  1.00  0.00     0.046 A 
HETATM   12  C   UNL     1      41.193 -16.194   4.125  1.00  0.00     0.030 A 
HETATM   13  C   UNL     1      42.318 -16.943   4.461  1.00  0.00     0.002 A 
HETATM   14  C   UNL     1      43.375 -16.358   5.180  1.00  0.00     0.001 A 
HETATM   15  C   UNL     1      43.319 -15.017   5.587  1.00  0.00     0.015 A 
HETATM   16  C   UNL     1      43.476 -11.796   7.092  1.00  0.00     0.280 A 
HETATM   17  O   UNL     1      44.292 -12.668   7.331  1.00  0.00    -0.265 OA
HETATM   18  H   UNL     1      40.832 -10.346   5.833  1.00  0.00     0.171 HD
HETATM   19  H   UNL     1      39.308 -14.150   3.745  1.00  0.00     0.169 HD
ENDROOT
BRANCH   1  20
HETATM   20  C   UNL     1      44.317 -10.097   8.714  1.00  0.00     0.240 C 
BRANCH  20  21
HETATM   21  C   UNL     1      43.699 -10.297  10.098  1.00  0.00     0.240 C 
HETATM   22  N   UNL     1      42.886  -9.245  10.491  1.00  0.00    -0.326 N 
HETATM   23  H   UNL     1      42.615  -8.577   9.770  1.00  0.00     0.169 HD
HETATM   24  O   UNL     1      44.012 -11.264  10.787  1.00  0.00    -0.271 OA
BRANCH  22  25
HETATM   25  C   UNL     1      42.435  -8.954  11.796  1.00  0.00     0.034 A 
HETATM   26  C   UNL     1      43.207  -8.067  12.556  1.00  0.00     0.030 A 
HETATM   27  C   UNL     1      42.874  -7.789  13.886  1.00  0.00     0.009 A 
HETATM   28  C   UNL     1      41.773  -8.408  14.484  1.00  0.00    -0.062 A 
HETATM   29  C   UNL     1      41.409  -8.125  15.912  1.00  0.00     0.048 C 
HETATM   30  C   UNL     1      40.984  -9.270  13.716  1.00  0.00     0.009 A 
HETATM   31  C   UNL     1      41.314  -9.541  12.382  1.00  0.00     0.030 A 
ENDBRANCH  22  25
ENDBRANCH  20  21
ENDBRANCH   1  20
TORSDOF 3
ENDMDL
MODEL 7
REMARK VINA RESULT:      -9.0      5.104      8.307
REMARK  3 active torsions:
REMARK  status: ('A' for Active; 'I' for Inactive)
REMARK    1  A    between atoms: C_5  and  N_6 
REMARK       I    between atoms: N_6  and  C_7 
REMARK    2  A    between atoms: C_7  and  C_8 
REMARK    3  A    between atoms: C_8  and  N_9 
ROOT
HETATM    1  N   UNL     1      42.961 -11.238   6.712  1.00  0.00    -0.256 N 
HETATM    2  C   UNL     1      43.880 -12.033   7.356  1.00  0.00     0.330 A 
HETATM    3  O   UNL     1      44.696 -11.696   8.196  1.00  0.00    -0.246 OA
HETATM    4  N   UNL     1      43.765 -13.306   6.830  1.00  0.00    -0.303 N 
HETATM    5  C   UNL     1      42.827 -13.343   5.828  1.00  0.00     0.122 A 
HETATM    6  C   UNL     1      42.558 -14.420   5.078  1.00  0.00     0.077 A 
HETATM    7  C   UNL     1      43.376 -15.676   5.264  1.00  0.00     0.259 A 
HETATM    8  O   UNL     1      44.248 -15.873   6.091  1.00  0.00    -0.267 OA
HETATM    9  N   UNL     1      42.944 -16.545   4.282  1.00  0.00    -0.322 N 
HETATM   10  C   UNL     1      41.627 -14.684   3.970  1.00  0.00     0.009 A 
HETATM   11  C   UNL     1      41.923 -15.982   3.525  1.00  0.00     0.046 A 
HETATM   12  C   UNL     1      41.257 -16.596   2.482  1.00  0.00     0.030 A 
HETATM   13  C   UNL     1      40.233 -15.878   1.867  1.00  0.00     0.002 A 
HETATM   14  C   UNL     1      39.903 -14.586   2.311  1.00  0.00     0.001 A 
HETATM   15  C   UNL     1      40.599 -13.983   3.368  1.00  0.00     0.015 A 
HETATM   16  C   UNL     1      42.278 -11.952   5.760  1.00  0.00     0.280 A 
HETATM   17  O   UNL     1      41.419 -11.510   5.017  1.00  0.00    -0.265 OA
HETATM   18  H   UNL     1      44.360 -14.085   7.099  1.00  0.00     0.171 HD
HETATM   19  H   UNL     1      43.328 -17.470   4.161  1.00  0.00     0.169 HD
ENDROOT
BRANCH   1  20
HETATM   20  C   UNL     1      42.924  -9.798   6.840  1.00  0.00     0.240 C 
BRANCH  20  21
HETATM   21  C   UNL     1      42.318  -9.303   8.154  1.00  0.00     0.240 C 
HETATM   22  N   UNL     1      43.266  -9.061   9.137  1.00  0.00    -0.326 N 
HETATM   23  H   UNL     1      44.240  -9.025   8.839  1.00  0.00     0.169 HD
HETATM   24  O   UNL     1      41.100  -9.248   8.297  1.00  0.00    -0.271 OA
BRANCH  22  25
HETATM   25  C   UNL     1      43.043  -8.918  10.523  1.00  0.00     0.034 A 
HETATM   26  C   UNL     1      42.846 -10.089  11.263  1.00  0.00     0.030 A 
HETATM   27  C   UNL     1      42.540 -10.030  12.627  1.00  0.00     0.009 A 
HETATM   28  C   UNL     1      42.407  -8.796  13.269  1.00  0.00    -0.062 A 
HETATM   29  C   UNL     1      42.069  -8.718  14.729  1.00  0.00     0.048 C 
HETATM   30  C   UNL     1      42.633  -7.627  12.536  1.00  0.00     0.009 A 
HETATM   31  C   UNL     1      42.948  -7.688  11.173  1.00  0.00     0.030 A 
ENDBRANCH  22  25
ENDBRANCH  20  21
ENDBRANCH   1  20
TORSDOF 3
ENDMDL
MODEL 8
REMARK VINA RESULT:      -8.9      3.192      4.170
REMARK  3 active torsions:
REMARK  status: ('A' for Active; 'I' for Inactive)
REMARK    1  A    between atoms: C_5  and  N_6 
REMARK       I    between atoms: N_6  and  C_7 
REMARK    2  A    between atoms: C_7  and  C_8 
REMARK    3  A    between atoms: C_8  and  N_9 
ROOT
HETATM    1  N   UNL     1      39.944 -13.294   1.420  1.00  0.00    -0.256 N 
HETATM    2  C   UNL     1      40.106 -12.479   2.516  1.00  0.00     0.330 A 
HETATM    3  O   UNL     1      39.717 -11.333   2.654  1.00  0.00    -0.246 OA
HETATM    4  N   UNL     1      40.863 -13.176   3.439  1.00  0.00    -0.303 N 
HETATM    5  C   UNL     1      41.234 -14.403   2.948  1.00  0.00     0.122 A 
HETATM    6  C   UNL     1      42.040 -15.264   3.584  1.00  0.00     0.077 A 
HETATM    7  C   UNL     1      42.666 -14.861   4.898  1.00  0.00     0.259 A 
HETATM    8  O   UNL     1      42.476 -13.833   5.521  1.00  0.00    -0.267 OA
HETATM    9  N   UNL     1      43.519 -15.894   5.231  1.00  0.00    -0.322 N 
HETATM   10  C   UNL     1      42.570 -16.596   3.256  1.00  0.00     0.009 A 
HETATM   11  C   UNL     1      43.470 -16.912   4.286  1.00  0.00     0.046 A 
HETATM   12  C   UNL     1      44.181 -18.096   4.334  1.00  0.00     0.030 A 
HETATM   13  C   UNL     1      43.967 -19.012   3.307  1.00  0.00     0.002 A 
HETATM   14  C   UNL     1      43.054 -18.728   2.277  1.00  0.00     0.001 A 
HETATM   15  C   UNL     1      42.349 -17.516   2.248  1.00  0.00     0.015 A 
HETATM   16  C   UNL     1      40.603 -14.485   1.593  1.00  0.00     0.280 A 
HETATM   17  O   UNL     1      40.658 -15.395   0.784  1.00  0.00    -0.265 OA
HETATM   18  H   UNL     1      41.168 -12.788   4.328  1.00  0.00     0.171 HD
HETATM   19  H   UNL     1      44.085 -15.891   6.066  1.00  0.00     0.169 HD
ENDROOT
BRANCH   1  20
HETATM   20  C   UNL     1      39.388 -12.840   0.164  1.00  0.00     0.240 C 
BRANCH  20  21
HETATM   21  C   UNL     1      40.407 -12.185  -0.769  1.00  0.00     0.240 C 
HETATM   22  N   UNL     1      40.557 -10.824  -0.546  1.00  0.00    -0.326 N 
HETATM   23  H   UNL     1      40.160 -10.452   0.316  1.00  0.00     0.169 HD
HETATM   24  O   UNL     1      40.929 -12.830  -1.673  1.00  0.00    -0.271 OA
BRANCH  22  25
HETATM   25  C   UNL     1      41.145  -9.876  -1.410  1.00  0.00     0.034 A 
HETATM   26  C   UNL     1      42.212  -9.126  -0.903  1.00  0.00     0.030 A 
HETATM   27  C   UNL     1      42.798  -8.110  -1.668  1.00  0.00     0.009 A 
HETATM   28  C   UNL     1      42.313  -7.816  -2.945  1.00  0.00    -0.062 A 
HETATM   29  C   UNL     1      42.925  -6.724  -3.770  1.00  0.00     0.048 C 
HETATM   30  C   UNL     1      41.266  -8.585  -3.462  1.00  0.00     0.009 A 
HETATM   31  C   UNL     1      40.687  -9.607  -2.699  1.00  0.00     0.030 A 
ENDBRANCH  22  25
ENDBRANCH  20  21
ENDBRANCH   1  20
TORSDOF 3
ENDMDL
MODEL 9
REMARK VINA RESULT:      -8.8      2.654      8.213
REMARK  3 active torsions:
REMARK  status: ('A' for Active; 'I' for Inactive)
REMARK    1  A    between atoms: C_5  and  N_6 
REMARK       I    between atoms: N_6  and  C_7 
REMARK    2  A    between atoms: C_7  and  C_8 
REMARK    3  A    between atoms: C_8  and  N_9 
ROOT
HETATM    1  N   UNL     1      40.449 -13.708   2.769  1.00  0.00    -0.256 N 
HETATM    2  C   UNL     1      39.824 -14.789   2.192  1.00  0.00     0.330 A 
HETATM    3  O   UNL     1      39.555 -15.858   2.711  1.00  0.00    -0.246 OA
HETATM    4  N   UNL     1      39.604 -14.476   0.864  1.00  0.00    -0.303 N 
HETATM    5  C   UNL     1      40.113 -13.239   0.556  1.00  0.00     0.122 A 
HETATM    6  C   UNL     1      40.122 -12.703  -0.672  1.00  0.00     0.077 A 
HETATM    7  C   UNL     1      39.618 -13.518  -1.839  1.00  0.00     0.259 A 
HETATM    8  O   UNL     1      39.118 -14.628  -1.803  1.00  0.00    -0.267 OA
HETATM    9  N   UNL     1      39.866 -12.750  -2.959  1.00  0.00    -0.322 N 
HETATM   10  C   UNL     1      40.610 -11.431  -1.226  1.00  0.00     0.009 A 
HETATM   11  C   UNL     1      40.440 -11.531  -2.615  1.00  0.00     0.046 A 
HETATM   12  C   UNL     1      40.788 -10.524  -3.496  1.00  0.00     0.030 A 
HETATM   13  C   UNL     1      41.319  -9.356  -2.953  1.00  0.00     0.002 A 
HETATM   14  C   UNL     1      41.477  -9.224  -1.563  1.00  0.00     0.001 A 
HETATM   15  C   UNL     1      41.121 -10.263  -0.692  1.00  0.00     0.015 A 
HETATM   16  C   UNL     1      40.670 -12.718   1.846  1.00  0.00     0.280 A 
HETATM   17  O   UNL     1      41.223 -11.654   2.058  1.00  0.00    -0.265 OA
HETATM   18  H   UNL     1      39.192 -15.119   0.192  1.00  0.00     0.171 HD
HETATM   19  H   UNL     1      39.638 -13.053  -3.894  1.00  0.00     0.169 HD
ENDROOT
BRANCH   1  20
HETATM   20  C   UNL     1      41.029 -13.737   4.094  1.00  0.00     0.240 C 
BRANCH  20  21
HETATM   21  C   UNL     1      41.619 -15.091   4.488  1.00  0.00     0.240 C 
HETATM   22  N   UNL     1      42.571 -15.555   3.591  1.00  0.00    -0.326 N 
HETATM   23  H   UNL     1      42.927 -14.885   2.911  1.00  0.00     0.169 HD
HETATM   24  O   UNL     1      41.179 -15.706   5.455  1.00  0.00    -0.271 OA
BRANCH  22  25
HETATM   25  C   UNL     1      43.061 -16.872   3.470  1.00  0.00     0.034 A 
HETATM   26  C   UNL     1      42.642 -17.612   2.359  1.00  0.00     0.030 A 
HETATM   27  C   UNL     1      43.018 -18.951   2.207  1.00  0.00     0.009 A 
HETATM   28  C   UNL     1      43.806 -19.578   3.176  1.00  0.00    -0.062 A 
HETATM   29  C   UNL     1      44.209 -21.016   3.031  1.00  0.00     0.048 C 
HETATM   30  C   UNL     1      44.250 -18.831   4.271  1.00  0.00     0.009 A 
HETATM   31  C   UNL     1      43.879 -17.488   4.417  1.00  0.00     0.030 A 
ENDBRANCH  22  25
ENDBRANCH  20  21
ENDBRANCH   1  20
TORSDOF 3
ENDMDL
MODEL 10
REMARK VINA RESULT:      -8.8      3.488      9.164
REMARK  3 active torsions:
REMARK  status: ('A' for Active; 'I' for Inactive)
REMARK    1  A    between atoms: C_5  and  N_6 
REMARK       I    between atoms: N_6  and  C_7 
REMARK    2  A    between atoms: C_7  and  C_8 
REMARK    3  A    between atoms: C_8  and  N_9 
ROOT
HETATM    1  N   UNL     1      41.038 -12.462   1.471  1.00  0.00    -0.256 N 
HETATM    2  C   UNL     1      40.279 -13.240   0.628  1.00  0.00     0.330 A 
HETATM    3  O   UNL     1      39.836 -14.354   0.841  1.00  0.00    -0.246 OA
HETATM    4  N   UNL     1      40.153 -12.552  -0.564  1.00  0.00    -0.303 N 
HETATM    5  C   UNL     1      40.851 -11.370  -0.530  1.00  0.00     0.122 A 
HETATM    6  C   UNL     1      40.982 -10.533  -1.567  1.00  0.00     0.077 A 
HETATM    7  C   UNL     1      40.401 -10.917  -2.908  1.00  0.00     0.259 A 
HETATM    8  O   UNL     1      39.740 -11.906  -3.169  1.00  0.00    -0.267 OA
HETATM    9  N   UNL     1      40.800  -9.925  -3.779  1.00  0.00    -0.322 N 
HETATM   10  C   UNL     1      41.674  -9.249  -1.761  1.00  0.00     0.009 A 
HETATM   11  C   UNL     1      41.537  -8.945  -3.124  1.00  0.00     0.046 A 
HETATM   12  C   UNL     1      42.062  -7.805  -3.702  1.00  0.00     0.030 A 
HETATM   13  C   UNL     1      42.742  -6.921  -2.868  1.00  0.00     0.002 A 
HETATM   14  C   UNL     1      42.871  -7.193  -1.495  1.00  0.00     0.001 A 
HETATM   15  C   UNL     1      42.335  -8.360  -0.934  1.00  0.00     0.015 A 
HETATM   16  C   UNL     1      41.436 -11.307   0.848  1.00  0.00     0.280 A 
HETATM   17  O   UNL     1      42.135 -10.437   1.336  1.00  0.00    -0.265 OA
HETATM   18  H   UNL     1      39.673 -12.920  -1.381  1.00  0.00     0.171 HD
HETATM   19  H   UNL     1      40.561  -9.926  -4.759  1.00  0.00     0.169 HD
ENDROOT
BRANCH   1  20
HETATM   20  C   UNL     1      41.562 -12.934   2.734  1.00  0.00     0.240 C 
BRANCH  20  21
HETATM   21  C   UNL     1      42.499 -14.137   2.611  1.00  0.00     0.240 C 
HETATM   22  N   UNL     1      41.960 -15.305   3.130  1.00  0.00    -0.326 N 
HETATM   23  H   UNL     1      40.961 -15.302   3.333  1.00  0.00     0.169 HD
HETATM   24  O   UNL     1      43.641 -13.997   2.183  1.00  0.00    -0.271 OA
BRANCH  22  25
HETATM   25  C   UNL     1      42.651 -16.487   3.471  1.00  0.00     0.034 A 
HETATM   26  C   UNL     1      42.789 -17.457   2.471  1.00  0.00     0.030 A 
HETATM   27  C   UNL     1      43.390 -18.691   2.750  1.00  0.00     0.009 A 
HETATM   28  C   UNL     1      43.845 -18.980   4.039  1.00  0.00    -0.062 A 
HETATM   29  C   UNL     1      44.482 -20.301   4.354  1.00  0.00     0.048 C 
HETATM   30  C   UNL     1      43.733 -18.000   5.030  1.00  0.00     0.009 A 
HETATM   31  C   UNL     1      43.140 -16.763   4.747  1.00  0.00     0.030 A 
ENDBRANCH  22  25
ENDBRANCH  20  21
ENDBRANCH   1  20
TORSDOF 3
ENDMDL
