MODEL 1
REMARK VINA RESULT:      -9.3      0.000      0.000
REMARK  6 active torsions:
REMARK  status: ('A' for Active; 'I' for Inactive)
REMARK    1  A    between atoms: O_2  and  C_3 
REMARK    2  A    between atoms: C_5  and  C_6 
REMARK       I    between atoms: C_6  and  N_7 
REMARK    3  A    between atoms: N_7  and  C_8 
REMARK    4  A    between atoms: C_10  and  C_11 
REMARK    5  A    between atoms: C_11  and  C_12 
REMARK    6  A    between atoms: C_12  and  C_13 
ROOT
HETATM    1  C   UNL     1      42.001 -12.956   5.993  1.00  0.00     0.725 A 
HETATM    2  N   UNL     1      42.400 -13.486   4.863  1.00  0.00    -0.046 NA
HETATM    3  C   UNL     1      41.390 -14.367   4.553  1.00  0.00     0.166 A 
HETATM    4  N   UNL     1      40.392 -14.412   5.446  1.00  0.00    -0.144 NA
HETATM    5  N   UNL     1      40.801 -13.506   6.352  1.00  0.00    -0.106 N 
HETATM    6  H   UNL     1      40.245 -13.290   7.174  1.00  0.00     0.208 HD
ENDROOT
BRANCH   1   7
HETATM    7  N   UNL     1      42.680 -11.998   6.699  1.00  0.00    -0.152 N 
HETATM    8  C   UNL     1      43.975 -12.194   7.124  1.00  0.00     0.270 C 
HETATM    9  O   UNL     1      44.615 -13.226   6.930  1.00  0.00    -0.267 OA
HETATM   10  H   UNL     1      42.144 -11.176   6.935  1.00  0.00     0.187 HD
BRANCH   8  11
HETATM   11  C   UNL     1      44.590 -11.071   7.886  1.00  0.00     0.035 A 
HETATM   12  C   UNL     1      44.008 -10.699   9.104  1.00  0.00     0.053 A 
HETATM   13  C   UNL     1      44.540  -9.651   9.860  1.00  0.00     0.069 A 
HETATM   14  C   UNL     1      45.668  -8.974   9.392  1.00  0.00     0.037 A 
HETATM   15  C   UNL     1      46.265  -9.352   8.186  1.00  0.00     0.004 A 
HETATM   16  C   UNL     1      45.732 -10.400   7.434  1.00  0.00     0.017 A 
BRANCH  13  17
HETATM   17  O   UNL     1      43.869  -9.386  11.022  1.00  0.00    -0.356 OA
HETATM   18  C   UNL     1      43.362 -10.501  11.744  1.00  0.00     0.210 C 
ENDBRANCH  13  17
ENDBRANCH   8  11
ENDBRANCH   1   7
BRANCH   3  19
HETATM   19  C   UNL     1      41.398 -15.213   3.330  1.00  0.00     0.087 C 
BRANCH  19  20
HETATM   20  C   UNL     1      42.806 -15.634   2.907  1.00  0.00     0.048 C 
BRANCH  20  21
HETATM   21  C   UNL     1      43.337 -16.766   3.731  1.00  0.00    -0.030 A 
HETATM   22  C   UNL     1      43.414 -18.143   3.345  1.00  0.00    -0.002 A 
HETATM   23  C   UNL     1      43.982 -18.844   4.410  1.00  0.00     0.042 A 
HETATM   24  C   UNL     1      43.052 -18.859   2.186  1.00  0.00     0.014 A 
HETATM   25  C   UNL     1      44.211 -20.225   4.371  1.00  0.00     0.030 A 
HETATM   26  N   UNL     1      44.237 -17.930   5.405  1.00  0.00    -0.365 N 
HETATM   27  C   UNL     1      43.844 -20.910   3.209  1.00  0.00     0.002 A 
HETATM   28  C   UNL     1      43.273 -20.241   2.131  1.00  0.00     0.001 A 
HETATM   29  H   UNL     1      44.651 -18.160   6.298  1.00  0.00     0.165 HD
HETATM   30  C   UNL     1      43.853 -16.678   5.010  1.00  0.00     0.096 A 
ENDBRANCH  20  21
ENDBRANCH  19  20
ENDBRANCH   3  19
TORSDOF 6
ENDMDL
MODEL 2
REMARK VINA RESULT:      -9.2      2.194      4.006
REMARK  6 active torsions:
REMARK  status: ('A' for Active; 'I' for Inactive)
REMARK    1  A    between atoms: O_2  and  C_3 
REMARK    2  A    between atoms: C_5  and  C_6 
REMARK       I    between atoms: C_6  and  N_7 
REMARK    3  A    between atoms: N_7  and  C_8 
REMARK    4  A    between atoms: C_10  and  C_11 
REMARK    5  A    between atoms: C_11  and  C_12 
REMARK    6  A    between atoms: C_12  and  C_13 
ROOT
HETATM    1  C   UNL     1      43.794 -10.738   8.285  1.00  0.00     0.725 A 
HETATM    2  N   UNL     1      43.078 -11.226   7.302  1.00  0.00    -0.046 NA
HETATM    3  C   UNL     1      44.024 -11.752   6.454  1.00  0.00     0.166 A 
HETATM    4  N   UNL     1      45.292 -11.601   6.863  1.00  0.00    -0.144 NA
HETATM    5  N   UNL     1      45.120 -10.954   8.031  1.00  0.00    -0.106 N 
HETATM    6  H   UNL     1      45.910 -10.693   8.612  1.00  0.00     0.208 HD
ENDROOT
BRANCH   1   7
HETATM    7  N   UNL     1      43.289 -10.112   9.395  1.00  0.00    -0.152 N 
HETATM    8  C   UNL     1      43.815 -10.328  10.650  1.00  0.00     0.270 C 
HETATM    9  O   UNL     1      44.747 -11.096  10.882  1.00  0.00    -0.267 OA
HETATM   10  H   UNL     1      42.474  -9.539   9.233  1.00  0.00     0.187 HD
BRANCH   8  11
HETATM   11  C   UNL     1      43.167  -9.586  11.767  1.00  0.00     0.035 A 
HETATM   12  C   UNL     1      42.008 -10.128  12.338  1.00  0.00     0.053 A 
HETATM   13  C   UNL     1      41.356  -9.473  13.387  1.00  0.00     0.069 A 
HETATM   14  C   UNL     1      41.872  -8.270  13.869  1.00  0.00     0.037 A 
HETATM   15  C   UNL     1      43.037  -7.733  13.315  1.00  0.00     0.004 A 
HETATM   16  C   UNL     1      43.688  -8.388  12.269  1.00  0.00     0.017 A 
BRANCH  13  17
HETATM   17  O   UNL     1      40.234 -10.106  13.845  1.00  0.00    -0.356 OA
HETATM   18  C   UNL     1      39.451 -10.809  12.888  1.00  0.00     0.210 C 
ENDBRANCH  13  17
ENDBRANCH   8  11
ENDBRANCH   1   7
BRANCH   3  19
HETATM   19  C   UNL     1      43.680 -12.432   5.176  1.00  0.00     0.087 C 
BRANCH  19  20
HETATM   20  C   UNL     1      42.622 -13.522   5.348  1.00  0.00     0.048 C 
BRANCH  20  21
HETATM   21  C   UNL     1      43.219 -14.894   5.416  1.00  0.00    -0.030 A 
HETATM   22  C   UNL     1      43.233 -15.873   4.372  1.00  0.00    -0.002 A 
HETATM   23  C   UNL     1      43.900 -16.997   4.863  1.00  0.00     0.042 A 
HETATM   24  C   UNL     1      42.741 -15.908   3.052  1.00  0.00     0.014 A 
HETATM   25  C   UNL     1      44.102 -18.152   4.098  1.00  0.00     0.030 A 
HETATM   26  N   UNL     1      44.272 -16.714   6.156  1.00  0.00    -0.365 N 
HETATM   27  C   UNL     1      43.605 -18.159   2.791  1.00  0.00     0.002 A 
HETATM   28  C   UNL     1      42.934 -17.055   2.272  1.00  0.00     0.001 A 
HETATM   29  H   UNL     1      44.774 -17.351   6.758  1.00  0.00     0.165 HD
HETATM   30  C   UNL     1      43.868 -15.453   6.500  1.00  0.00     0.096 A 
ENDBRANCH  20  21
ENDBRANCH  19  20
ENDBRANCH   3  19
TORSDOF 6
ENDMDL
MODEL 3
REMARK VINA RESULT:      -9.0      3.223      9.993
REMARK  6 active torsions:
REMARK  status: ('A' for Active; 'I' for Inactive)
REMARK    1  A    between atoms: O_2  and  C_3 
REMARK    2  A    between atoms: C_5  and  C_6 
REMARK       I    between atoms: C_6  and  N_7 
REMARK    3  A    between atoms: N_7  and  C_8 
REMARK    4  A    between atoms: C_10  and  C_11 
REMARK    5  A    between atoms: C_11  and  C_12 
REMARK    6  A    between atoms: C_12  and  C_13 
ROOT
HETATM    1  C   UNL     1      44.934 -11.480   7.251  1.00  0.00     0.725 A 
HETATM    2  N   UNL     1      44.613 -11.313   8.511  1.00  0.00    -0.046 NA
HETATM    3  C   UNL     1      45.414 -10.267   8.905  1.00  0.00     0.166 A 
HETATM    4  N   UNL     1      46.222  -9.787   7.949  1.00  0.00    -0.144 NA
HETATM    5  N   UNL     1      45.899 -10.573   6.906  1.00  0.00    -0.106 N 
HETATM    6  H   UNL     1      46.340 -10.457   5.999  1.00  0.00     0.208 HD
ENDROOT
BRANCH   1   7
HETATM    7  N   UNL     1      44.385 -12.414   6.413  1.00  0.00    -0.152 N 
HETATM    8  C   UNL     1      43.859 -12.066   5.188  1.00  0.00     0.270 C 
HETATM    9  O   UNL     1      43.819 -10.916   4.757  1.00  0.00    -0.267 OA
HETATM   10  H   UNL     1      44.339 -13.352   6.783  1.00  0.00     0.187 HD
BRANCH   8  11
HETATM   11  C   UNL     1      43.291 -13.183   4.381  1.00  0.00     0.035 A 
HETATM   12  C   UNL     1      42.816 -14.314   5.057  1.00  0.00     0.053 A 
HETATM   13  C   UNL     1      42.275 -15.393   4.352  1.00  0.00     0.069 A 
HETATM   14  C   UNL     1      42.205 -15.334   2.959  1.00  0.00     0.037 A 
HETATM   15  C   UNL     1      42.661 -14.201   2.279  1.00  0.00     0.004 A 
HETATM   16  C   UNL     1      43.200 -13.124   2.985  1.00  0.00     0.017 A 
BRANCH  13  17
HETATM   17  O   UNL     1      41.858 -16.434   5.133  1.00  0.00    -0.356 OA
HETATM   18  C   UNL     1      41.705 -16.180   6.523  1.00  0.00     0.210 C 
ENDBRANCH  13  17
ENDBRANCH   8  11
ENDBRANCH   1   7
BRANCH   3  19
HETATM   19  C   UNL     1      45.398  -9.707  10.283  1.00  0.00     0.087 C 
BRANCH  19  20
HETATM   20  C   UNL     1      44.300  -8.662  10.488  1.00  0.00     0.048 C 
BRANCH  20  21
HETATM   21  C   UNL     1      43.261  -9.109  11.469  1.00  0.00    -0.030 A 
HETATM   22  C   UNL     1      42.952  -8.497  12.727  1.00  0.00    -0.002 A 
HETATM   23  C   UNL     1      41.916  -9.231  13.306  1.00  0.00     0.042 A 
HETATM   24  C   UNL     1      43.459  -7.383  13.427  1.00  0.00     0.014 A 
HETATM   25  C   UNL     1      41.358  -8.905  14.548  1.00  0.00     0.030 A 
HETATM   26  N   UNL     1      41.610 -10.252  12.436  1.00  0.00    -0.365 N 
HETATM   27  C   UNL     1      41.879  -7.794  15.220  1.00  0.00     0.002 A 
HETATM   28  C   UNL     1      42.914  -7.043  14.671  1.00  0.00     0.001 A 
HETATM   29  H   UNL     1      40.892 -10.944  12.599  1.00  0.00     0.165 HD
HETATM   30  C   UNL     1      42.412 -10.189  11.330  1.00  0.00     0.096 A 
ENDBRANCH  20  21
ENDBRANCH  19  20
ENDBRANCH   3  19
TORSDOF 6
ENDMDL
MODEL 4
REMARK VINA RESULT:      -8.9      1.443      1.895
REMARK  6 active torsions:
REMARK  status: ('A' for Active; 'I' for Inactive)
REMARK    1  A    between atoms: O_2  and  C_3 
REMARK    2  A    between atoms: C_5  and  C_6 
REMARK       I    between atoms: C_6  and  N_7 
REMARK    3  A    between atoms: N_7  and  C_8 
REMARK    4  A    between atoms: C_10  and  C_11 
REMARK    5  A    between atoms: C_11  and  C_12 
REMARK    6  A    between atoms: C_12  and  C_13 
ROOT
HETATM    1  C   UNL     1      42.825 -12.143   5.834  1.00  0.00     0.725 A 
HETATM    2  N   UNL     1      42.177 -13.265   5.636  1.00  0.00    -0.046 NA
HETATM    3  C   UNL     1      42.443 -13.555   4.318  1.00  0.00     0.166 A 
HETATM    4  N   UNL     1      43.218 -12.658   3.691  1.00  0.00    -0.144 NA
HETATM    5  N   UNL     1      43.449 -11.770   4.675  1.00  0.00    -0.106 N 
HETATM    6  H   UNL     1      44.029 -10.951   4.523  1.00  0.00     0.208 HD
ENDROOT
BRANCH   1   7
HETATM    7  N   UNL     1      42.872 -11.457   7.019  1.00  0.00    -0.152 N 
HETATM    8  C   UNL     1      44.044 -10.909   7.492  1.00  0.00     0.270 C 
HETATM    9  O   UNL     1      45.127 -11.000   6.918  1.00  0.00    -0.267 OA
HETATM   10  H   UNL     1      42.008 -11.438   7.541  1.00  0.00     0.187 HD
BRANCH   8  11
HETATM   11  C   UNL     1      43.951 -10.192   8.795  1.00  0.00     0.035 A 
HETATM   12  C   UNL     1      42.742  -9.563   9.120  1.00  0.00     0.053 A 
HETATM   13  C   UNL     1      42.598  -8.874  10.327  1.00  0.00     0.069 A 
HETATM   14  C   UNL     1      43.672  -8.820  11.217  1.00  0.00     0.037 A 
HETATM   15  C   UNL     1      44.875  -9.461  10.907  1.00  0.00     0.004 A 
HETATM   16  C   UNL     1      45.016 -10.150   9.701  1.00  0.00     0.017 A 
BRANCH  13  17
HETATM   17  O   UNL     1      41.371  -8.299  10.514  1.00  0.00    -0.356 OA
HETATM   18  C   UNL     1      40.449  -8.377   9.435  1.00  0.00     0.210 C 
ENDBRANCH  13  17
ENDBRANCH   8  11
ENDBRANCH   1   7
BRANCH   3  19
HETATM   19  C   UNL     1      41.914 -14.763   3.630  1.00  0.00     0.087 C 
BRANCH  19  20
HETATM   20  C   UNL     1      43.010 -15.599   2.968  1.00  0.00     0.048 C 
BRANCH  20  21
HETATM   21  C   UNL     1      43.447 -16.749   3.822  1.00  0.00    -0.030 A 
HETATM   22  C   UNL     1      43.499 -18.128   3.440  1.00  0.00    -0.002 A 
HETATM   23  C   UNL     1      43.974 -18.848   4.537  1.00  0.00     0.042 A 
HETATM   24  C   UNL     1      43.187 -18.831   2.259  1.00  0.00     0.014 A 
HETATM   25  C   UNL     1      44.156 -20.236   4.511  1.00  0.00     0.030 A 
HETATM   26  N   UNL     1      44.197 -17.943   5.548  1.00  0.00    -0.365 N 
HETATM   27  C   UNL     1      43.839 -20.909   3.326  1.00  0.00     0.002 A 
HETATM   28  C   UNL     1      43.362 -20.220   2.215  1.00  0.00     0.001 A 
HETATM   29  H   UNL     1      44.546 -18.187   6.465  1.00  0.00     0.165 HD
HETATM   30  C   UNL     1      43.884 -16.679   5.131  1.00  0.00     0.096 A 
ENDBRANCH  20  21
ENDBRANCH  19  20
ENDBRANCH   3  19
TORSDOF 6
ENDMDL
MODEL 5
REMARK VINA RESULT:      -8.7      4.824      8.276
REMARK  6 active torsions:
REMARK  status: ('A' for Active; 'I' for Inactive)
REMARK    1  A    between atoms: O_2  and  C_3 
REMARK    2  A    between atoms: C_5  and  C_6 
REMARK       I    between atoms: C_6  and  N_7 
REMARK    3  A    between atoms: N_7  and  C_8 
REMARK    4  A    between atoms: C_10  and  C_11 
REMARK    5  A    between atoms: C_11  and  C_12 
REMARK    6  A    between atoms: C_12  and  C_13 
ROOT
HETATM    1  C   UNL     1      39.958 -13.122   2.673  1.00  0.00     0.725 A 
HETATM    2  N   UNL     1      40.069 -13.963   3.673  1.00  0.00    -0.046 NA
HETATM    3  C   UNL     1      40.717 -13.225   4.635  1.00  0.00     0.166 A 
HETATM    4  N   UNL     1      41.020 -11.971   4.272  1.00  0.00    -0.144 NA
HETATM    5  N   UNL     1      40.526 -11.928   3.021  1.00  0.00    -0.106 N 
HETATM    6  H   UNL     1      40.587 -11.086   2.457  1.00  0.00     0.208 HD
ENDROOT
BRANCH   1   7
HETATM    7  N   UNL     1      39.361 -13.398   1.472  1.00  0.00    -0.152 N 
HETATM    8  C   UNL     1      40.033 -13.248   0.278  1.00  0.00     0.270 C 
HETATM    9  O   UNL     1      41.191 -12.847   0.187  1.00  0.00    -0.267 OA
HETATM   10  H   UNL     1      38.386 -13.654   1.523  1.00  0.00     0.187 HD
BRANCH   8  11
HETATM   11  C   UNL     1      39.261 -13.580  -0.952  1.00  0.00     0.035 A 
HETATM   12  C   UNL     1      38.305 -12.661  -1.403  1.00  0.00     0.053 A 
HETATM   13  C   UNL     1      37.550 -12.920  -2.550  1.00  0.00     0.069 A 
HETATM   14  C   UNL     1      37.758 -14.108  -3.252  1.00  0.00     0.037 A 
HETATM   15  C   UNL     1      38.723 -15.022  -2.818  1.00  0.00     0.004 A 
HETATM   16  C   UNL     1      39.477 -14.760  -1.673  1.00  0.00     0.017 A 
BRANCH  13  17
HETATM   17  O   UNL     1      36.648 -11.944  -2.872  1.00  0.00    -0.356 OA
HETATM   18  C   UNL     1      36.977 -10.611  -2.504  1.00  0.00     0.210 C 
ENDBRANCH  13  17
ENDBRANCH   8  11
ENDBRANCH   1   7
BRANCH   3  19
HETATM   19  C   UNL     1      41.066 -13.768   5.975  1.00  0.00     0.087 C 
BRANCH  19  20
HETATM   20  C   UNL     1      40.676 -15.237   6.143  1.00  0.00     0.048 C 
BRANCH  20  21
HETATM   21  C   UNL     1      41.856 -16.155   6.055  1.00  0.00    -0.030 A 
HETATM   22  C   UNL     1      42.364 -16.785   4.873  1.00  0.00    -0.002 A 
HETATM   23  C   UNL     1      43.475 -17.542   5.247  1.00  0.00     0.042 A 
HETATM   24  C   UNL     1      41.981 -16.780   3.517  1.00  0.00     0.014 A 
HETATM   25  C   UNL     1      44.225 -18.291   4.333  1.00  0.00     0.030 A 
HETATM   26  N   UNL     1      43.634 -17.383   6.604  1.00  0.00    -0.365 N 
HETATM   27  C   UNL     1      43.824 -18.267   2.993  1.00  0.00     0.002 A 
HETATM   28  C   UNL     1      42.719 -17.524   2.588  1.00  0.00     0.001 A 
HETATM   29  H   UNL     1      44.364 -17.819   7.149  1.00  0.00     0.165 HD
HETATM   30  C   UNL     1      42.666 -16.552   7.101  1.00  0.00     0.096 A 
ENDBRANCH  20  21
ENDBRANCH  19  20
ENDBRANCH   3  19
TORSDOF 6
ENDMDL
MODEL 6
REMARK VINA RESULT:      -8.5      5.202      8.126
REMARK  6 active torsions:
REMARK  status: ('A' for Active; 'I' for Inactive)
REMARK    1  A    between atoms: O_2  and  C_3 
REMARK    2  A    between atoms: C_5  and  C_6 
REMARK       I    between atoms: C_6  and  N_7 
REMARK    3  A    between atoms: N_7  and  C_8 
REMARK    4  A    between atoms: C_10  and  C_11 
REMARK    5  A    between atoms: C_11  and  C_12 
REMARK    6  A    between atoms: C_12  and  C_13 
ROOT
HETATM    1  C   UNL     1      39.835 -14.007   1.977  1.00  0.00     0.725 A 
HETATM    2  N   UNL     1      40.826 -13.727   2.787  1.00  0.00    -0.046 NA
HETATM    3  C   UNL     1      40.937 -14.861   3.557  1.00  0.00     0.166 A 
HETATM    4  N   UNL     1      40.051 -15.825   3.266  1.00  0.00    -0.144 NA
HETATM    5  N   UNL     1      39.362 -15.260   2.258  1.00  0.00    -0.106 N 
HETATM    6  H   UNL     1      38.604 -15.751   1.795  1.00  0.00     0.208 HD
ENDROOT
BRANCH   1   7
HETATM    7  N   UNL     1      39.352 -13.176   1.001  1.00  0.00    -0.152 N 
HETATM    8  C   UNL     1      39.656 -13.369  -0.329  1.00  0.00     0.270 C 
HETATM    9  O   UNL     1      40.384 -14.268  -0.745  1.00  0.00    -0.267 OA
HETATM   10  H   UNL     1      38.817 -12.387   1.333  1.00  0.00     0.187 HD
BRANCH   8  11
HETATM   11  C   UNL     1      39.067 -12.387  -1.282  1.00  0.00     0.035 A 
HETATM   12  C   UNL     1      39.933 -11.684  -2.129  1.00  0.00     0.053 A 
HETATM   13  C   UNL     1      39.437 -10.749  -3.042  1.00  0.00     0.069 A 
HETATM   14  C   UNL     1      38.061 -10.521  -3.109  1.00  0.00     0.037 A 
HETATM   15  C   UNL     1      37.190 -11.232  -2.278  1.00  0.00     0.004 A 
HETATM   16  C   UNL     1      37.687 -12.167  -1.369  1.00  0.00     0.017 A 
BRANCH  13  17
HETATM   17  O   UNL     1      40.391 -10.129  -3.800  1.00  0.00    -0.356 OA
HETATM   18  C   UNL     1      40.051  -8.869  -4.364  1.00  0.00     0.210 C 
ENDBRANCH  13  17
ENDBRANCH   8  11
ENDBRANCH   1   7
BRANCH   3  19
HETATM   19  C   UNL     1      41.950 -15.015   4.634  1.00  0.00     0.087 C 
BRANCH  19  20
HETATM   20  C   UNL     1      43.263 -15.619   4.135  1.00  0.00     0.048 C 
BRANCH  20  21
HETATM   21  C   UNL     1      43.507 -16.991   4.683  1.00  0.00    -0.030 A 
HETATM   22  C   UNL     1      43.572 -18.212   3.938  1.00  0.00    -0.002 A 
HETATM   23  C   UNL     1      43.827 -19.242   4.844  1.00  0.00     0.042 A 
HETATM   24  C   UNL     1      43.438 -18.536   2.572  1.00  0.00     0.014 A 
HETATM   25  C   UNL     1      43.959 -20.580   4.453  1.00  0.00     0.030 A 
HETATM   26  N   UNL     1      43.909 -18.671   6.092  1.00  0.00    -0.365 N 
HETATM   27  C   UNL     1      43.823 -20.873   3.092  1.00  0.00     0.002 A 
HETATM   28  C   UNL     1      43.566 -19.869   2.163  1.00  0.00     0.001 A 
HETATM   29  H   UNL     1      44.088 -19.184   6.944  1.00  0.00     0.165 HD
HETATM   30  C   UNL     1      43.718 -17.319   6.009  1.00  0.00     0.096 A 
ENDBRANCH  20  21
ENDBRANCH  19  20
ENDBRANCH   3  19
TORSDOF 6
ENDMDL
MODEL 7
REMARK VINA RESULT:      -8.5      2.817      9.735
REMARK  6 active torsions:
REMARK  status: ('A' for Active; 'I' for Inactive)
REMARK    1  A    between atoms: O_2  and  C_3 
REMARK    2  A    between atoms: C_5  and  C_6 
REMARK       I    between atoms: C_6  and  N_7 
REMARK    3  A    between atoms: N_7  and  C_8 
REMARK    4  A    between atoms: C_10  and  C_11 
REMARK    5  A    between atoms: C_11  and  C_12 
REMARK    6  A    between atoms: C_12  and  C_13 
ROOT
HETATM    1  C   UNL     1      44.669 -12.028   7.084  1.00  0.00     0.725 A 
HETATM    2  N   UNL     1      44.363 -11.578   8.276  1.00  0.00    -0.046 NA
HETATM    3  C   UNL     1      45.213 -10.510   8.439  1.00  0.00     0.166 A 
HETATM    4  N   UNL     1      46.038 -10.286   7.406  1.00  0.00    -0.144 NA
HETATM    5  N   UNL     1      45.673 -11.263   6.556  1.00  0.00    -0.106 N 
HETATM    6  H   UNL     1      46.114 -11.366   5.647  1.00  0.00     0.208 HD
ENDROOT
BRANCH   1   7
HETATM    7  N   UNL     1      44.073 -13.094   6.464  1.00  0.00    -0.152 N 
HETATM    8  C   UNL     1      43.252 -12.930   5.370  1.00  0.00     0.270 C 
HETATM    9  O   UNL     1      42.974 -11.839   4.876  1.00  0.00    -0.267 OA
HETATM   10  H   UNL     1      44.228 -13.990   6.903  1.00  0.00     0.187 HD
BRANCH   8  11
HETATM   11  C   UNL     1      42.668 -14.175   4.798  1.00  0.00     0.035 A 
HETATM   12  C   UNL     1      41.583 -14.056   3.919  1.00  0.00     0.053 A 
HETATM   13  C   UNL     1      40.993 -15.190   3.355  1.00  0.00     0.069 A 
HETATM   14  C   UNL     1      41.497 -16.452   3.671  1.00  0.00     0.037 A 
HETATM   15  C   UNL     1      42.589 -16.578   4.533  1.00  0.00     0.004 A 
HETATM   16  C   UNL     1      43.179 -15.444   5.095  1.00  0.00     0.017 A 
BRANCH  13  17
HETATM   17  O   UNL     1      39.939 -14.931   2.523  1.00  0.00    -0.356 OA
HETATM   18  C   UNL     1      40.142 -15.154   1.134  1.00  0.00     0.210 C 
ENDBRANCH  13  17
ENDBRANCH   8  11
ENDBRANCH   1   7
BRANCH   3  19
HETATM   19  C   UNL     1      45.231  -9.666   9.663  1.00  0.00     0.087 C 
BRANCH  19  20
HETATM   20  C   UNL     1      44.206  -8.531   9.619  1.00  0.00     0.048 C 
BRANCH  20  21
HETATM   21  C   UNL     1      42.890  -8.924  10.215  1.00  0.00    -0.030 A 
HETATM   22  C   UNL     1      42.521  -8.850  11.597  1.00  0.00    -0.002 A 
HETATM   23  C   UNL     1      41.206  -9.305  11.703  1.00  0.00     0.042 A 
HETATM   24  C   UNL     1      43.185  -8.435  12.769  1.00  0.00     0.014 A 
HETATM   25  C   UNL     1      40.520  -9.363  12.922  1.00  0.00     0.030 A 
HETATM   26  N   UNL     1      40.793  -9.647  10.436  1.00  0.00    -0.365 N 
HETATM   27  C   UNL     1      41.201  -8.944  14.069  1.00  0.00     0.002 A 
HETATM   28  C   UNL     1      42.514  -8.488  13.997  1.00  0.00     0.001 A 
HETATM   29  H   UNL     1      39.877 -10.009  10.212  1.00  0.00     0.165 HD
HETATM   30  C   UNL     1      41.797  -9.423   9.534  1.00  0.00     0.096 A 
ENDBRANCH  20  21
ENDBRANCH  19  20
ENDBRANCH   3  19
TORSDOF 6
ENDMDL
MODEL 8
REMARK VINA RESULT:      -8.4      4.870      8.309
REMARK  6 active torsions:
REMARK  status: ('A' for Active; 'I' for Inactive)
REMARK    1  A    between atoms: O_2  and  C_3 
REMARK    2  A    between atoms: C_5  and  C_6 
REMARK       I    between atoms: C_6  and  N_7 
REMARK    3  A    between atoms: N_7  and  C_8 
REMARK    4  A    between atoms: C_10  and  C_11 
REMARK    5  A    between atoms: C_11  and  C_12 
REMARK    6  A    between atoms: C_12  and  C_13 
ROOT
HETATM    1  C   UNL     1      40.416 -13.665   2.823  1.00  0.00     0.725 A 
HETATM    2  N   UNL     1      40.736 -12.499   2.319  1.00  0.00    -0.046 NA
HETATM    3  C   UNL     1      39.518 -11.881   2.154  1.00  0.00     0.166 A 
HETATM    4  N   UNL     1      38.460 -12.617   2.524  1.00  0.00    -0.144 NA
HETATM    5  N   UNL     1      39.056 -13.747   2.947  1.00  0.00    -0.106 N 
HETATM    6  H   UNL     1      38.516 -14.525   3.312  1.00  0.00     0.208 HD
ENDROOT
BRANCH   1   7
HETATM    7  N   UNL     1      41.306 -14.645   3.174  1.00  0.00    -0.152 N 
HETATM    8  C   UNL     1      41.349 -15.854   2.514  1.00  0.00     0.270 C 
HETATM    9  O   UNL     1      40.599 -16.160   1.589  1.00  0.00    -0.267 OA
HETATM   10  H   UNL     1      41.876 -14.441   3.981  1.00  0.00     0.187 HD
BRANCH   8  11
HETATM   11  C   UNL     1      42.363 -16.830   3.003  1.00  0.00     0.035 A 
HETATM   12  C   UNL     1      42.972 -16.588   4.241  1.00  0.00     0.053 A 
HETATM   13  C   UNL     1      43.933 -17.467   4.749  1.00  0.00     0.069 A 
HETATM   14  C   UNL     1      44.282 -18.600   4.011  1.00  0.00     0.037 A 
HETATM   15  C   UNL     1      43.665 -18.856   2.783  1.00  0.00     0.004 A 
HETATM   16  C   UNL     1      42.705 -17.978   2.279  1.00  0.00     0.017 A 
BRANCH  13  17
HETATM   17  O   UNL     1      44.452 -17.108   5.961  1.00  0.00    -0.356 OA
HETATM   18  C   UNL     1      43.577 -17.156   7.080  1.00  0.00     0.210 C 
ENDBRANCH  13  17
ENDBRANCH   8  11
ENDBRANCH   1   7
BRANCH   3  19
HETATM   19  C   UNL     1      39.373 -10.507   1.604  1.00  0.00     0.087 C 
BRANCH  19  20
HETATM   20  C   UNL     1      39.835 -10.396   0.150  1.00  0.00     0.048 C 
BRANCH  20  21
HETATM   21  C   UNL     1      38.856 -11.000  -0.809  1.00  0.00    -0.030 A 
HETATM   22  C   UNL     1      38.912 -12.314  -1.376  1.00  0.00    -0.002 A 
HETATM   23  C   UNL     1      37.797 -12.461  -2.202  1.00  0.00     0.042 A 
HETATM   24  C   UNL     1      39.810 -13.395  -1.260  1.00  0.00     0.014 A 
HETATM   25  C   UNL     1      37.533 -13.636  -2.917  1.00  0.00     0.030 A 
HETATM   26  N   UNL     1      37.093 -11.281  -2.145  1.00  0.00    -0.365 N 
HETATM   27  C   UNL     1      38.440 -14.693  -2.783  1.00  0.00     0.002 A 
HETATM   28  C   UNL     1      39.562 -14.577  -1.968  1.00  0.00     0.001 A 
HETATM   29  H   UNL     1      36.236 -11.103  -2.648  1.00  0.00     0.165 HD
HETATM   30  C   UNL     1      37.720 -10.395  -1.311  1.00  0.00     0.096 A 
ENDBRANCH  20  21
ENDBRANCH  19  20
ENDBRANCH   3  19
TORSDOF 6
ENDMDL
MODEL 9
REMARK VINA RESULT:      -8.3      6.219      7.991
REMARK  6 active torsions:
REMARK  status: ('A' for Active; 'I' for Inactive)
REMARK    1  A    between atoms: O_2  and  C_3 
REMARK    2  A    between atoms: C_5  and  C_6 
REMARK       I    between atoms: C_6  and  N_7 
REMARK    3  A    between atoms: N_7  and  C_8 
REMARK    4  A    between atoms: C_10  and  C_11 
REMARK    5  A    between atoms: C_11  and  C_12 
REMARK    6  A    between atoms: C_12  and  C_13 
ROOT
HETATM    1  C   UNL     1      40.725 -12.929  -0.410  1.00  0.00     0.725 A 
HETATM    2  N   UNL     1      41.369 -13.470   0.595  1.00  0.00    -0.046 NA
HETATM    3  C   UNL     1      40.764 -14.698   0.732  1.00  0.00     0.166 A 
HETATM    4  N   UNL     1      39.770 -14.935  -0.135  1.00  0.00    -0.144 NA
HETATM    5  N   UNL     1      39.764 -13.796  -0.852  1.00  0.00    -0.106 N 
HETATM    6  H   UNL     1      39.114 -13.657  -1.619  1.00  0.00     0.208 HD
ENDROOT
BRANCH   1   7
HETATM    7  N   UNL     1      40.980 -11.690  -0.936  1.00  0.00    -0.152 N 
HETATM    8  C   UNL     1      40.580 -11.348  -2.210  1.00  0.00     0.270 C 
HETATM    9  O   UNL     1      39.992 -12.110  -2.974  1.00  0.00    -0.267 OA
HETATM   10  H   UNL     1      41.531 -11.078  -0.352  1.00  0.00     0.187 HD
BRANCH   8  11
HETATM   11  C   UNL     1      40.927  -9.969  -2.655  1.00  0.00     0.035 A 
HETATM   12  C   UNL     1      41.903  -9.267  -1.936  1.00  0.00     0.053 A 
HETATM   13  C   UNL     1      42.267  -7.969  -2.306  1.00  0.00     0.069 A 
HETATM   14  C   UNL     1      41.651  -7.374  -3.408  1.00  0.00     0.037 A 
HETATM   15  C   UNL     1      40.689  -8.076  -4.140  1.00  0.00     0.004 A 
HETATM   16  C   UNL     1      40.328  -9.372  -3.770  1.00  0.00     0.017 A 
BRANCH  13  17
HETATM   17  O   UNL     1      43.224  -7.397  -1.516  1.00  0.00    -0.356 OA
HETATM   18  C   UNL     1      42.875  -6.192  -0.847  1.00  0.00     0.210 C 
ENDBRANCH  13  17
ENDBRANCH   8  11
ENDBRANCH   1   7
BRANCH   3  19
HETATM   19  C   UNL     1      41.169 -15.691   1.764  1.00  0.00     0.087 C 
BRANCH  19  20
HETATM   20  C   UNL     1      42.650 -16.062   1.684  1.00  0.00     0.048 C 
BRANCH  20  21
HETATM   21  C   UNL     1      43.119 -16.809   2.894  1.00  0.00    -0.030 A 
HETATM   22  C   UNL     1      43.382 -18.214   2.983  1.00  0.00    -0.002 A 
HETATM   23  C   UNL     1      43.807 -18.478   4.285  1.00  0.00     0.042 A 
HETATM   24  C   UNL     1      43.299 -19.288   2.073  1.00  0.00     0.014 A 
HETATM   25  C   UNL     1      44.157 -19.761   4.723  1.00  0.00     0.030 A 
HETATM   26  N   UNL     1      43.798 -17.282   4.964  1.00  0.00    -0.365 N 
HETATM   27  C   UNL     1      44.066 -20.808   3.800  1.00  0.00     0.002 A 
HETATM   28  C   UNL     1      43.644 -20.578   2.493  1.00  0.00     0.001 A 
HETATM   29  H   UNL     1      44.062 -17.173   5.933  1.00  0.00     0.165 HD
HETATM   30  C   UNL     1      43.386 -16.272   4.138  1.00  0.00     0.096 A 
ENDBRANCH  20  21
ENDBRANCH  19  20
ENDBRANCH   3  19
TORSDOF 6
ENDMDL
MODEL 10
REMARK VINA RESULT:      -8.3      4.487      7.479
REMARK  6 active torsions:
REMARK  status: ('A' for Active; 'I' for Inactive)
REMARK    1  A    between atoms: O_2  and  C_3 
REMARK    2  A    between atoms: C_5  and  C_6 
REMARK       I    between atoms: C_6  and  N_7 
REMARK    3  A    between atoms: N_7  and  C_8 
REMARK    4  A    between atoms: C_10  and  C_11 
REMARK    5  A    between atoms: C_11  and  C_12 
REMARK    6  A    between atoms: C_12  and  C_13 
ROOT
HETATM    1  C   UNL     1      41.579 -14.274   3.751  1.00  0.00     0.725 A 
HETATM    2  N   UNL     1      42.257 -15.264   4.278  1.00  0.00    -0.046 NA
HETATM    3  C   UNL     1      42.068 -15.093   5.629  1.00  0.00     0.166 A 
HETATM    4  N   UNL     1      41.313 -14.036   5.961  1.00  0.00    -0.144 NA
HETATM    5  N   UNL     1      41.013 -13.531   4.750  1.00  0.00    -0.106 N 
HETATM    6  H   UNL     1      40.428 -12.707   4.651  1.00  0.00     0.208 HD
ENDROOT
BRANCH   1   7
HETATM    7  N   UNL     1      41.456 -14.026   2.409  1.00  0.00    -0.152 N 
HETATM    8  C   UNL     1      40.243 -13.706   1.841  1.00  0.00     0.270 C 
HETATM    9  O   UNL     1      39.187 -13.633   2.467  1.00  0.00    -0.267 OA
HETATM   10  H   UNL     1      42.297 -14.158   1.868  1.00  0.00     0.187 HD
BRANCH   8  11
HETATM   11  C   UNL     1      40.253 -13.466   0.371  1.00  0.00     0.035 A 
HETATM   12  C   UNL     1      39.594 -14.385  -0.455  1.00  0.00     0.053 A 
HETATM   13  C   UNL     1      39.573 -14.213  -1.842  1.00  0.00     0.069 A 
HETATM   14  C   UNL     1      40.214 -13.107  -2.404  1.00  0.00     0.037 A 
HETATM   15  C   UNL     1      40.858 -12.177  -1.584  1.00  0.00     0.004 A 
HETATM   16  C   UNL     1      40.877 -12.350  -0.199  1.00  0.00     0.017 A 
BRANCH  13  17
HETATM   17  O   UNL     1      38.904 -15.187  -2.529  1.00  0.00    -0.356 OA
HETATM   18  C   UNL     1      38.196 -14.787  -3.695  1.00  0.00     0.210 C 
ENDBRANCH  13  17
ENDBRANCH   8  11
ENDBRANCH   1   7
BRANCH   3  19
HETATM   19  C   UNL     1      42.655 -15.999   6.652  1.00  0.00     0.087 C 
BRANCH  19  20
HETATM   20  C   UNL     1      43.976 -16.626   6.204  1.00  0.00     0.048 C 
BRANCH  20  21
HETATM   21  C   UNL     1      43.827 -18.071   5.837  1.00  0.00    -0.030 A 
HETATM   22  C   UNL     1      43.836 -18.623   4.516  1.00  0.00    -0.002 A 
HETATM   23  C   UNL     1      43.680 -20.005   4.640  1.00  0.00     0.042 A 
HETATM   24  C   UNL     1      43.965 -18.075   3.224  1.00  0.00     0.014 A 
HETATM   25  C   UNL     1      43.649 -20.866   3.536  1.00  0.00     0.030 A 
HETATM   26  N   UNL     1      43.574 -20.281   5.983  1.00  0.00    -0.365 N 
HETATM   27  C   UNL     1      43.780 -20.295   2.266  1.00  0.00     0.002 A 
HETATM   28  C   UNL     1      43.936 -18.921   2.108  1.00  0.00     0.001 A 
HETATM   29  H   UNL     1      43.453 -21.207   6.367  1.00  0.00     0.165 HD
HETATM   30  C   UNL     1      43.661 -19.126   6.712  1.00  0.00     0.096 A 
ENDBRANCH  20  21
ENDBRANCH  19  20
ENDBRANCH   3  19
TORSDOF 6
ENDMDL
