MODEL 1
REMARK VINA RESULT:      -7.4      0.000      0.000
REMARK  6 active torsions:
REMARK  status: ('A' for Active; 'I' for Inactive)
REMARK    1  A    between atoms: C_2  and  C_3 
REMARK    2  A    between atoms: C_13  and  C_14 
REMARK       I    between atoms: C_14  and  N_15 
REMARK    3  A    between atoms: N_15  and  C_16 
REMARK    4  A    between atoms: C_16  and  C_17 
REMARK    5  A    between atoms: C_17  and  C_18 
REMARK    6  A    between atoms: C_18  and  C_19 
ROOT
HETATM    1  C   UNL     1      40.997 -15.298   4.193  1.00  0.00     0.251 C 
HETATM    2  N   UNL     1      41.825 -14.437   4.882  1.00  0.00    -0.357 N 
HETATM    3  O   UNL     1      40.482 -16.286   4.702  1.00  0.00    -0.268 OA
HETATM    4  H   UNL     1      42.354 -13.736   4.385  1.00  0.00     0.162 HD
ENDROOT
BRANCH   1   5
HETATM    5  C   UNL     1      40.768 -15.008   2.747  1.00  0.00     0.032 A 
HETATM    6  C   UNL     1      40.003 -15.830   1.914  1.00  0.00     0.017 A 
HETATM    7  C   UNL     1      39.802 -15.491   0.566  1.00  0.00     0.008 A 
HETATM    8  C   UNL     1      40.379 -14.339   0.016  1.00  0.00    -0.052 A 
HETATM    9  C   UNL     1      41.159 -13.530   0.862  1.00  0.00     0.008 A 
HETATM   10  C   UNL     1      41.353 -13.860   2.206  1.00  0.00     0.017 A 
BRANCH   8  11
HETATM   11  C   UNL     1      40.200 -13.904  -1.434  1.00  0.00     0.044 C 
HETATM   12  C   UNL     1      38.989 -14.540  -2.136  1.00  0.00     0.241 C 
HETATM   13  N   UNL     1      37.726 -13.771  -1.905  1.00  0.00    -0.074 N 
HETATM   14  H   UNL     1      37.420 -13.889  -0.932  1.00  0.00     0.277 HD
HETATM   15  H   UNL     1      36.979 -14.198  -2.470  1.00  0.00     0.277 HD
HETATM   16  C   UNL     1      37.813 -12.322  -2.249  1.00  0.00     0.232 C 
HETATM   17  C   UNL     1      38.915 -11.672  -1.432  1.00  0.00     0.028 C 
HETATM   18  C   UNL     1      40.257 -12.376  -1.619  1.00  0.00     0.013 C 
ENDBRANCH   8  11
ENDBRANCH   1   5
BRANCH   2  19
HETATM   19  C   UNL     1      42.213 -14.697   6.257  1.00  0.00     0.123 C 
BRANCH  19  20
HETATM   20  C   UNL     1      43.533 -15.462   6.359  1.00  0.00     0.026 C 
BRANCH  20  21
HETATM   21  C   UNL     1      43.319 -16.923   6.757  1.00  0.00     0.061 C 
BRANCH  21  22
HETATM   22  C   UNL     1      43.607 -17.888   5.654  1.00  0.00     0.044 A 
HETATM   23  N   UNL     1      43.734 -19.230   5.974  1.00  0.00    -0.229 NA
HETATM   24  C   UNL     1      44.024 -19.929   4.906  1.00  0.00     0.164 A 
HETATM   25  N   UNL     1      44.206 -21.259   4.926  1.00  0.00    -0.378 N 
HETATM   26  S   UNL     1      44.144 -19.031   3.449  1.00  0.00    -0.062 SA
HETATM   27  H   UNL     1      43.843 -21.737   5.744  1.00  0.00     0.158 HD
HETATM   28  H   UNL     1      44.079 -21.766   4.059  1.00  0.00     0.158 HD
HETATM   29  C   UNL     1      43.806 -17.594   4.318  1.00  0.00     0.080 A 
ENDBRANCH  21  22
ENDBRANCH  20  21
ENDBRANCH  19  20
ENDBRANCH   2  19
TORSDOF 6
ENDMDL
MODEL 2
REMARK VINA RESULT:      -7.3      5.801      8.228
REMARK  6 active torsions:
REMARK  status: ('A' for Active; 'I' for Inactive)
REMARK    1  A    between atoms: C_2  and  C_3 
REMARK    2  A    between atoms: C_13  and  C_14 
REMARK       I    between atoms: C_14  and  N_15 
REMARK    3  A    between atoms: N_15  and  C_16 
REMARK    4  A    between atoms: C_16  and  C_17 
REMARK    5  A    between atoms: C_17  and  C_18 
REMARK    6  A    between atoms: C_18  and  C_19 
ROOT
HETATM    1  C   UNL     1      44.676 -11.505   7.583  1.00  0.00     0.251 C 
HETATM    2  N   UNL     1      43.921 -11.036   8.637  1.00  0.00    -0.357 N 
HETATM    3  O   UNL     1      45.863 -11.239   7.435  1.00  0.00    -0.268 OA
HETATM    4  H   UNL     1      42.918 -11.144   8.629  1.00  0.00     0.162 HD
ENDROOT
BRANCH   1   5
HETATM    5  C   UNL     1      43.976 -12.343   6.566  1.00  0.00     0.032 A 
HETATM    6  C   UNL     1      43.598 -13.670   6.797  1.00  0.00     0.017 A 
HETATM    7  C   UNL     1      42.918 -14.401   5.810  1.00  0.00     0.008 A 
HETATM    8  C   UNL     1      42.621 -13.833   4.565  1.00  0.00    -0.052 A 
HETATM    9  C   UNL     1      43.020 -12.502   4.340  1.00  0.00     0.008 A 
HETATM   10  C   UNL     1      43.689 -11.770   5.325  1.00  0.00     0.017 A 
BRANCH   8  11
HETATM   11  C   UNL     1      41.881 -14.560   3.449  1.00  0.00     0.044 C 
HETATM   12  C   UNL     1      42.309 -14.141   2.032  1.00  0.00     0.241 C 
HETATM   13  N   UNL     1      43.496 -14.911   1.543  1.00  0.00    -0.074 N 
HETATM   14  H   UNL     1      44.337 -14.614   2.053  1.00  0.00     0.277 HD
HETATM   15  H   UNL     1      43.674 -14.644   0.565  1.00  0.00     0.277 HD
HETATM   16  C   UNL     1      43.343 -16.392   1.614  1.00  0.00     0.232 C 
HETATM   17  C   UNL     1      43.072 -16.808   3.049  1.00  0.00     0.028 C 
HETATM   18  C   UNL     1      41.858 -16.088   3.633  1.00  0.00     0.013 C 
ENDBRANCH   8  11
ENDBRANCH   1   5
BRANCH   2  19
HETATM   19  C   UNL     1      44.472 -10.112   9.612  1.00  0.00     0.123 C 
BRANCH  19  20
HETATM   20  C   UNL     1      44.100 -10.483  11.048  1.00  0.00     0.026 C 
BRANCH  20  21
HETATM   21  C   UNL     1      43.267  -9.392  11.723  1.00  0.00     0.061 C 
BRANCH  21  22
HETATM   22  C   UNL     1      41.797  -9.551  11.513  1.00  0.00     0.044 A 
HETATM   23  N   UNL     1      41.058 -10.175  12.505  1.00  0.00    -0.229 NA
HETATM   24  C   UNL     1      39.801 -10.269  12.148  1.00  0.00     0.164 A 
HETATM   25  N   UNL     1      38.859 -10.833  12.919  1.00  0.00    -0.378 N 
HETATM   26  S   UNL     1      39.421  -9.601  10.614  1.00  0.00    -0.062 SA
HETATM   27  H   UNL     1      39.102 -10.938  13.899  1.00  0.00     0.158 HD
HETATM   28  H   UNL     1      37.895 -10.570  12.757  1.00  0.00     0.158 HD
HETATM   29  C   UNL     1      41.066  -9.175  10.402  1.00  0.00     0.080 A 
ENDBRANCH  21  22
ENDBRANCH  20  21
ENDBRANCH  19  20
ENDBRANCH   2  19
TORSDOF 6
ENDMDL
MODEL 3
REMARK VINA RESULT:      -7.3     12.619     15.473
REMARK  6 active torsions:
REMARK  status: ('A' for Active; 'I' for Inactive)
REMARK    1  A    between atoms: C_2  and  C_3 
REMARK    2  A    between atoms: C_13  and  C_14 
REMARK       I    between atoms: C_14  and  N_15 
REMARK    3  A    between atoms: N_15  and  C_16 
REMARK    4  A    between atoms: C_16  and  C_17 
REMARK    5  A    between atoms: C_17  and  C_18 
REMARK    6  A    between atoms: C_18  and  C_19 
ROOT
HETATM    1  C   UNL     1      41.695  -7.240  16.219  1.00  0.00     0.251 C 
HETATM    2  N   UNL     1      41.033  -8.022  17.142  1.00  0.00    -0.357 N 
HETATM    3  O   UNL     1      42.005  -6.073  16.426  1.00  0.00    -0.268 OA
HETATM    4  H   UNL     1      40.655  -8.917  16.870  1.00  0.00     0.162 HD
ENDROOT
BRANCH   1   5
HETATM    5  C   UNL     1      41.999  -7.862  14.897  1.00  0.00     0.032 A 
HETATM    6  C   UNL     1      43.040  -7.429  14.069  1.00  0.00     0.017 A 
HETATM    7  C   UNL     1      43.294  -8.070  12.846  1.00  0.00     0.008 A 
HETATM    8  C   UNL     1      42.502  -9.141  12.413  1.00  0.00    -0.052 A 
HETATM    9  C   UNL     1      41.449  -9.556  13.248  1.00  0.00     0.008 A 
HETATM   10  C   UNL     1      41.200  -8.925  14.470  1.00  0.00     0.017 A 
BRANCH   8  11
HETATM   11  C   UNL     1      42.721  -9.890  11.104  1.00  0.00     0.044 C 
HETATM   12  C   UNL     1      42.380  -9.072   9.847  1.00  0.00     0.241 C 
HETATM   13  N   UNL     1      43.529  -8.230   9.384  1.00  0.00    -0.074 N 
HETATM   14  H   UNL     1      43.676  -7.453  10.039  1.00  0.00     0.277 HD
HETATM   15  H   UNL     1      43.264  -7.780   8.498  1.00  0.00     0.277 HD
HETATM   16  C   UNL     1      44.800  -8.982   9.177  1.00  0.00     0.232 C 
HETATM   17  C   UNL     1      45.207  -9.661  10.472  1.00  0.00     0.028 C 
HETATM   18  C   UNL     1      44.102 -10.564  11.015  1.00  0.00     0.013 C 
ENDBRANCH   8  11
ENDBRANCH   1   5
BRANCH   2  19
HETATM   19  C   UNL     1      40.579  -7.477  18.410  1.00  0.00     0.123 C 
BRANCH  19  20
HETATM   20  C   UNL     1      39.458  -8.307  19.036  1.00  0.00     0.026 C 
BRANCH  20  21
HETATM   21  C   UNL     1      39.574  -8.368  20.561  1.00  0.00     0.061 C 
BRANCH  21  22
HETATM   22  C   UNL     1      40.709  -9.215  21.036  1.00  0.00     0.044 A 
HETATM   23  N   UNL     1      41.086 -10.299  20.260  1.00  0.00    -0.229 NA
HETATM   24  C   UNL     1      42.063 -10.955  20.835  1.00  0.00     0.164 A 
HETATM   25  N   UNL     1      42.623 -12.052  20.303  1.00  0.00    -0.378 N 
HETATM   26  S   UNL     1      42.604 -10.307  22.329  1.00  0.00    -0.062 SA
HETATM   27  H   UNL     1      42.449 -12.196  19.314  1.00  0.00     0.158 HD
HETATM   28  H   UNL     1      43.561 -12.294  20.598  1.00  0.00     0.158 HD
HETATM   29  C   UNL     1      41.427  -9.069  22.208  1.00  0.00     0.080 A 
ENDBRANCH  21  22
ENDBRANCH  20  21
ENDBRANCH  19  20
ENDBRANCH   2  19
TORSDOF 6
ENDMDL
MODEL 4
REMARK VINA RESULT:      -7.2      2.537      3.851
REMARK  6 active torsions:
REMARK  status: ('A' for Active; 'I' for Inactive)
REMARK    1  A    between atoms: C_2  and  C_3 
REMARK    2  A    between atoms: C_13  and  C_14 
REMARK       I    between atoms: C_14  and  N_15 
REMARK    3  A    between atoms: N_15  and  C_16 
REMARK    4  A    between atoms: C_16  and  C_17 
REMARK    5  A    between atoms: C_17  and  C_18 
REMARK    6  A    between atoms: C_18  and  C_19 
ROOT
HETATM    1  C   UNL     1      42.853 -16.895   3.362  1.00  0.00     0.251 C 
HETATM    2  N   UNL     1      42.557 -16.857   4.709  1.00  0.00    -0.357 N 
HETATM    3  O   UNL     1      43.759 -17.573   2.892  1.00  0.00    -0.268 OA
HETATM    4  H   UNL     1      41.917 -16.165   5.068  1.00  0.00     0.162 HD
ENDROOT
BRANCH   1   5
HETATM    5  C   UNL     1      42.038 -16.026   2.464  1.00  0.00     0.032 A 
HETATM    6  C   UNL     1      40.774 -16.390   1.988  1.00  0.00     0.017 A 
HETATM    7  C   UNL     1      40.043 -15.519   1.164  1.00  0.00     0.008 A 
HETATM    8  C   UNL     1      40.566 -14.277   0.781  1.00  0.00    -0.052 A 
HETATM    9  C   UNL     1      41.845 -13.930   1.255  1.00  0.00     0.008 A 
HETATM   10  C   UNL     1      42.570 -14.793   2.083  1.00  0.00     0.017 A 
BRANCH   8  11
HETATM   11  C   UNL     1      39.830 -13.276  -0.102  1.00  0.00     0.044 C 
HETATM   12  C   UNL     1      40.685 -12.074  -0.538  1.00  0.00     0.241 C 
HETATM   13  N   UNL     1      41.478 -12.356  -1.775  1.00  0.00    -0.074 N 
HETATM   14  H   UNL     1      42.236 -13.014  -1.559  1.00  0.00     0.277 HD
HETATM   15  H   UNL     1      41.955 -11.489  -2.058  1.00  0.00     0.277 HD
HETATM   16  C   UNL     1      40.670 -12.853  -2.926  1.00  0.00     0.232 C 
HETATM   17  C   UNL     1      39.951 -14.130  -2.529  1.00  0.00     0.028 C 
HETATM   18  C   UNL     1      39.092 -13.937  -1.281  1.00  0.00     0.013 C 
ENDBRANCH   8  11
ENDBRANCH   1   5
BRANCH   2  19
HETATM   19  C   UNL     1      43.368 -17.567   5.683  1.00  0.00     0.123 C 
BRANCH  19  20
HETATM   20  C   UNL     1      43.996 -16.630   6.716  1.00  0.00     0.026 C 
BRANCH  20  21
HETATM   21  C   UNL     1      42.937 -15.907   7.551  1.00  0.00     0.061 C 
BRANCH  21  22
HETATM   22  C   UNL     1      42.383 -14.692   6.884  1.00  0.00     0.044 A 
HETATM   23  N   UNL     1      41.038 -14.685   6.550  1.00  0.00    -0.229 NA
HETATM   24  C   UNL     1      40.724 -13.569   5.941  1.00  0.00     0.164 A 
HETATM   25  N   UNL     1      39.486 -13.294   5.503  1.00  0.00    -0.378 N 
HETATM   26  S   UNL     1      42.011 -12.451   5.745  1.00  0.00    -0.062 SA
HETATM   27  H   UNL     1      38.746 -13.862   5.902  1.00  0.00     0.158 HD
HETATM   28  H   UNL     1      39.237 -12.322   5.370  1.00  0.00     0.158 HD
HETATM   29  C   UNL     1      43.073 -13.554   6.514  1.00  0.00     0.080 A 
ENDBRANCH  21  22
ENDBRANCH  20  21
ENDBRANCH  19  20
ENDBRANCH   2  19
TORSDOF 6
ENDMDL
MODEL 5
REMARK VINA RESULT:      -7.0      2.656      8.115
REMARK  6 active torsions:
REMARK  status: ('A' for Active; 'I' for Inactive)
REMARK    1  A    between atoms: C_2  and  C_3 
REMARK    2  A    between atoms: C_13  and  C_14 
REMARK       I    between atoms: C_14  and  N_15 
REMARK    3  A    between atoms: N_15  and  C_16 
REMARK    4  A    between atoms: C_16  and  C_17 
REMARK    5  A    between atoms: C_17  and  C_18 
REMARK    6  A    between atoms: C_18  and  C_19 
ROOT
HETATM    1  C   UNL     1      40.386 -14.034   3.897  1.00  0.00     0.251 C 
HETATM    2  N   UNL     1      39.798 -13.551   2.746  1.00  0.00    -0.357 N 
HETATM    3  O   UNL     1      40.113 -13.618   5.016  1.00  0.00    -0.268 OA
HETATM    4  H   UNL     1      40.170 -13.803   1.843  1.00  0.00     0.162 HD
ENDROOT
BRANCH   1   5
HETATM    5  C   UNL     1      41.431 -15.086   3.734  1.00  0.00     0.032 A 
HETATM    6  C   UNL     1      42.364 -15.397   4.729  1.00  0.00     0.017 A 
HETATM    7  C   UNL     1      43.309 -16.415   4.528  1.00  0.00     0.008 A 
HETATM    8  C   UNL     1      43.358 -17.129   3.323  1.00  0.00    -0.052 A 
HETATM    9  C   UNL     1      42.424 -16.796   2.326  1.00  0.00     0.008 A 
HETATM   10  C   UNL     1      41.476 -15.788   2.528  1.00  0.00     0.017 A 
BRANCH   8  11
HETATM   11  C   UNL     1      44.348 -18.252   3.036  1.00  0.00     0.044 C 
HETATM   12  C   UNL     1      44.979 -18.872   4.294  1.00  0.00     0.241 C 
HETATM   13  N   UNL     1      44.137 -19.965   4.874  1.00  0.00    -0.074 N 
HETATM   14  H   UNL     1      43.295 -19.564   5.304  1.00  0.00     0.277 HD
HETATM   15  H   UNL     1      44.654 -20.392   5.656  1.00  0.00     0.277 HD
HETATM   16  C   UNL     1      43.765 -21.038   3.907  1.00  0.00     0.232 C 
HETATM   17  C   UNL     1      43.006 -20.430   2.741  1.00  0.00     0.028 C 
HETATM   18  C   UNL     1      43.798 -19.312   2.065  1.00  0.00     0.013 C 
ENDBRANCH   8  11
ENDBRANCH   1   5
BRANCH   2  19
HETATM   19  C   UNL     1      38.862 -12.440   2.782  1.00  0.00     0.123 C 
BRANCH  19  20
HETATM   20  C   UNL     1      38.526 -11.912   1.387  1.00  0.00     0.026 C 
BRANCH  20  21
HETATM   21  C   UNL     1      39.632 -12.220   0.376  1.00  0.00     0.061 C 
BRANCH  21  22
HETATM   22  C   UNL     1      39.155 -12.991  -0.810  1.00  0.00     0.044 A 
HETATM   23  N   UNL     1      38.056 -12.511  -1.504  1.00  0.00    -0.229 NA
HETATM   24  C   UNL     1      37.746 -13.320  -2.486  1.00  0.00     0.164 A 
HETATM   25  N   UNL     1      36.719 -13.101  -3.321  1.00  0.00    -0.378 N 
HETATM   26  S   UNL     1      38.758 -14.695  -2.653  1.00  0.00    -0.062 SA
HETATM   27  H   UNL     1      36.361 -12.152  -3.334  1.00  0.00     0.158 HD
HETATM   28  H   UNL     1      36.746 -13.547  -4.230  1.00  0.00     0.158 HD
HETATM   29  C   UNL     1      39.666 -14.180  -1.295  1.00  0.00     0.080 A 
ENDBRANCH  21  22
ENDBRANCH  20  21
ENDBRANCH  19  20
ENDBRANCH   2  19
TORSDOF 6
ENDMDL
MODEL 6
REMARK VINA RESULT:      -7.0      2.841      8.371
REMARK  6 active torsions:
REMARK  status: ('A' for Active; 'I' for Inactive)
REMARK    1  A    between atoms: C_2  and  C_3 
REMARK    2  A    between atoms: C_13  and  C_14 
REMARK       I    between atoms: C_14  and  N_15 
REMARK    3  A    between atoms: N_15  and  C_16 
REMARK    4  A    between atoms: C_16  and  C_17 
REMARK    5  A    between atoms: C_17  and  C_18 
REMARK    6  A    between atoms: C_18  and  C_19 
ROOT
HETATM    1  C   UNL     1      40.315 -14.320   1.854  1.00  0.00     0.251 C 
HETATM    2  N   UNL     1      39.851 -13.165   2.448  1.00  0.00    -0.357 N 
HETATM    3  O   UNL     1      39.918 -14.723   0.767  1.00  0.00    -0.268 OA
HETATM    4  H   UNL     1      40.083 -12.962   3.409  1.00  0.00     0.162 HD
ENDROOT
BRANCH   1   5
HETATM    5  C   UNL     1      41.321 -15.118   2.614  1.00  0.00     0.032 A 
HETATM    6  C   UNL     1      41.742 -16.392   2.221  1.00  0.00     0.017 A 
HETATM    7  C   UNL     1      42.711 -17.085   2.964  1.00  0.00     0.008 A 
HETATM    8  C   UNL     1      43.264 -16.531   4.126  1.00  0.00    -0.052 A 
HETATM    9  C   UNL     1      42.820 -15.255   4.519  1.00  0.00     0.008 A 
HETATM   10  C   UNL     1      41.862 -14.560   3.775  1.00  0.00     0.017 A 
BRANCH   8  11
HETATM   11  C   UNL     1      44.324 -17.218   4.979  1.00  0.00     0.044 C 
HETATM   12  C   UNL     1      44.155 -16.997   6.491  1.00  0.00     0.241 C 
HETATM   13  N   UNL     1      43.224 -17.990   7.114  1.00  0.00    -0.074 N 
HETATM   14  H   UNL     1      42.260 -17.794   6.820  1.00  0.00     0.277 HD
HETATM   15  H   UNL     1      43.224 -17.841   8.132  1.00  0.00     0.277 HD
HETATM   16  C   UNL     1      43.570 -19.415   6.841  1.00  0.00     0.232 C 
HETATM   17  C   UNL     1      43.582 -19.658   5.342  1.00  0.00     0.028 C 
HETATM   18  C   UNL     1      44.525 -18.701   4.616  1.00  0.00     0.013 C 
ENDBRANCH   8  11
ENDBRANCH   1   5
BRANCH   2  19
HETATM   19  C   UNL     1      38.782 -12.383   1.853  1.00  0.00     0.123 C 
BRANCH  19  20
HETATM   20  C   UNL     1      39.297 -11.128   1.147  1.00  0.00     0.026 C 
BRANCH  20  21
HETATM   21  C   UNL     1      38.631 -10.924  -0.216  1.00  0.00     0.061 C 
BRANCH  21  22
HETATM   22  C   UNL     1      38.984 -11.979  -1.212  1.00  0.00     0.044 A 
HETATM   23  N   UNL     1      40.283 -12.018  -1.693  1.00  0.00    -0.229 NA
HETATM   24  C   UNL     1      40.413 -12.971  -2.582  1.00  0.00     0.164 A 
HETATM   25  N   UNL     1      41.568 -13.233  -3.213  1.00  0.00    -0.378 N 
HETATM   26  S   UNL     1      38.997 -13.892  -2.885  1.00  0.00    -0.062 SA
HETATM   27  H   UNL     1      42.399 -12.846  -2.781  1.00  0.00     0.158 HD
HETATM   28  H   UNL     1      41.694 -14.159  -3.602  1.00  0.00     0.158 HD
HETATM   29  C   UNL     1      38.140 -12.928  -1.758  1.00  0.00     0.080 A 
ENDBRANCH  21  22
ENDBRANCH  20  21
ENDBRANCH  19  20
ENDBRANCH   2  19
TORSDOF 6
ENDMDL
MODEL 7
REMARK VINA RESULT:      -6.9      4.672      8.336
REMARK  6 active torsions:
REMARK  status: ('A' for Active; 'I' for Inactive)
REMARK    1  A    between atoms: C_2  and  C_3 
REMARK    2  A    between atoms: C_13  and  C_14 
REMARK       I    between atoms: C_14  and  N_15 
REMARK    3  A    between atoms: N_15  and  C_16 
REMARK    4  A    between atoms: C_16  and  C_17 
REMARK    5  A    between atoms: C_17  and  C_18 
REMARK    6  A    between atoms: C_18  and  C_19 
ROOT
HETATM    1  C   UNL     1      43.398 -11.779   4.322  1.00  0.00     0.251 C 
HETATM    2  N   UNL     1      42.418 -12.740   4.187  1.00  0.00    -0.357 N 
HETATM    3  O   UNL     1      44.151 -11.455   3.412  1.00  0.00    -0.268 OA
HETATM    4  H   UNL     1      41.935 -13.090   5.001  1.00  0.00     0.162 HD
ENDROOT
BRANCH   1   5
HETATM    5  C   UNL     1      43.550 -11.150   5.667  1.00  0.00     0.032 A 
HETATM    6  C   UNL     1      44.651 -11.380   6.498  1.00  0.00     0.017 A 
HETATM    7  C   UNL     1      44.752 -10.740   7.743  1.00  0.00     0.008 A 
HETATM    8  C   UNL     1      43.746  -9.875   8.195  1.00  0.00    -0.052 A 
HETATM    9  C   UNL     1      42.637  -9.665   7.355  1.00  0.00     0.008 A 
HETATM   10  C   UNL     1      42.540 -10.295   6.111  1.00  0.00     0.017 A 
BRANCH   8  11
HETATM   11  C   UNL     1      43.788  -9.139   9.529  1.00  0.00     0.044 C 
HETATM   12  C   UNL     1      42.404  -8.855  10.135  1.00  0.00     0.241 C 
HETATM   13  N   UNL     1      41.893 -10.000  10.953  1.00  0.00    -0.074 N 
HETATM   14  H   UNL     1      41.635 -10.779  10.336  1.00  0.00     0.277 HD
HETATM   15  H   UNL     1      41.010  -9.712  11.396  1.00  0.00     0.277 HD
HETATM   16  C   UNL     1      42.830 -10.466  12.015  1.00  0.00     0.232 C 
HETATM   17  C   UNL     1      44.144 -10.890  11.383  1.00  0.00     0.028 C 
HETATM   18  C   UNL     1      44.759  -9.775  10.541  1.00  0.00     0.013 C 
ENDBRANCH   8  11
ENDBRANCH   1   5
BRANCH   2  19
HETATM   19  C   UNL     1      42.268 -13.502   2.959  1.00  0.00     0.123 C 
BRANCH  19  20
HETATM   20  C   UNL     1      43.189 -14.722   2.910  1.00  0.00     0.026 C 
BRANCH  20  21
HETATM   21  C   UNL     1      42.435 -15.993   2.515  1.00  0.00     0.061 C 
BRANCH  21  22
HETATM   22  C   UNL     1      43.089 -17.246   2.997  1.00  0.00     0.044 A 
HETATM   23  N   UNL     1      43.090 -18.348   2.158  1.00  0.00    -0.229 NA
HETATM   24  C   UNL     1      43.665 -19.368   2.744  1.00  0.00     0.164 A 
HETATM   25  N   UNL     1      43.802 -20.569   2.160  1.00  0.00    -0.378 N 
HETATM   26  S   UNL     1      44.257 -19.069   4.326  1.00  0.00    -0.062 SA
HETATM   27  H   UNL     1      43.690 -20.579   1.152  1.00  0.00     0.158 HD
HETATM   28  H   UNL     1      44.533 -21.180   2.502  1.00  0.00     0.158 HD
HETATM   29  C   UNL     1      43.680 -17.460   4.228  1.00  0.00     0.080 A 
ENDBRANCH  21  22
ENDBRANCH  20  21
ENDBRANCH  19  20
ENDBRANCH   2  19
TORSDOF 6
ENDMDL
MODEL 8
REMARK VINA RESULT:      -6.9      2.776      7.395
REMARK  6 active torsions:
REMARK  status: ('A' for Active; 'I' for Inactive)
REMARK    1  A    between atoms: C_2  and  C_3 
REMARK    2  A    between atoms: C_13  and  C_14 
REMARK       I    between atoms: C_14  and  N_15 
REMARK    3  A    between atoms: N_15  and  C_16 
REMARK    4  A    between atoms: C_16  and  C_17 
REMARK    5  A    between atoms: C_17  and  C_18 
REMARK    6  A    between atoms: C_18  and  C_19 
ROOT
HETATM    1  C   UNL     1      40.466 -14.404   5.720  1.00  0.00     0.251 C 
HETATM    2  N   UNL     1      40.353 -13.337   4.853  1.00  0.00    -0.357 N 
HETATM    3  O   UNL     1      39.793 -14.518   6.737  1.00  0.00    -0.268 OA
HETATM    4  H   UNL     1      41.036 -13.202   4.124  1.00  0.00     0.162 HD
ENDROOT
BRANCH   1   5
HETATM    5  C   UNL     1      41.497 -15.434   5.398  1.00  0.00     0.032 A 
HETATM    6  C   UNL     1      41.888 -16.431   6.296  1.00  0.00     0.017 A 
HETATM    7  C   UNL     1      42.846 -17.389   5.927  1.00  0.00     0.008 A 
HETATM    8  C   UNL     1      43.450 -17.358   4.663  1.00  0.00    -0.052 A 
HETATM    9  C   UNL     1      43.058 -16.340   3.775  1.00  0.00     0.008 A 
HETATM   10  C   UNL     1      42.098 -15.391   4.138  1.00  0.00     0.017 A 
BRANCH   8  11
HETATM   11  C   UNL     1      44.490 -18.367   4.189  1.00  0.00     0.044 C 
HETATM   12  C   UNL     1      44.551 -19.651   5.033  1.00  0.00     0.241 C 
HETATM   13  N   UNL     1      43.563 -20.680   4.578  1.00  0.00    -0.074 N 
HETATM   14  H   UNL     1      42.612 -20.380   4.822  1.00  0.00     0.277 HD
HETATM   15  H   UNL     1      43.716 -21.539   5.124  1.00  0.00     0.277 HD
HETATM   16  C   UNL     1      43.646 -21.017   3.128  1.00  0.00     0.232 C 
HETATM   17  C   UNL     1      43.430 -19.761   2.301  1.00  0.00     0.028 C 
HETATM   18  C   UNL     1      44.411 -18.654   2.679  1.00  0.00     0.013 C 
ENDBRANCH   8  11
ENDBRANCH   1   5
BRANCH   2  19
HETATM   19  C   UNL     1      39.471 -12.219   5.139  1.00  0.00     0.123 C 
BRANCH  19  20
HETATM   20  C   UNL     1      39.215 -11.345   3.910  1.00  0.00     0.026 C 
BRANCH  20  21
HETATM   21  C   UNL     1      40.490 -11.112   3.098  1.00  0.00     0.061 C 
BRANCH  21  22
HETATM   22  C   UNL     1      40.470 -11.774   1.759  1.00  0.00     0.044 A 
HETATM   23  N   UNL     1      39.983 -13.068   1.676  1.00  0.00    -0.229 NA
HETATM   24  C   UNL     1      40.071 -13.512   0.447  1.00  0.00     0.164 A 
HETATM   25  N   UNL     1      39.673 -14.739   0.079  1.00  0.00    -0.378 N 
HETATM   26  S   UNL     1      40.724 -12.404  -0.690  1.00  0.00    -0.062 SA
HETATM   27  H   UNL     1      39.053 -15.210   0.729  1.00  0.00     0.158 HD
HETATM   28  H   UNL     1      39.445 -14.889  -0.896  1.00  0.00     0.158 HD
HETATM   29  C   UNL     1      40.925 -11.252   0.563  1.00  0.00     0.080 A 
ENDBRANCH  21  22
ENDBRANCH  20  21
ENDBRANCH  19  20
ENDBRANCH   2  19
TORSDOF 6
ENDMDL
MODEL 9
REMARK VINA RESULT:      -6.9      4.015      7.264
REMARK  6 active torsions:
REMARK  status: ('A' for Active; 'I' for Inactive)
REMARK    1  A    between atoms: C_2  and  C_3 
REMARK    2  A    between atoms: C_13  and  C_14 
REMARK       I    between atoms: C_14  and  N_15 
REMARK    3  A    between atoms: N_15  and  C_16 
REMARK    4  A    between atoms: C_16  and  C_17 
REMARK    5  A    between atoms: C_17  and  C_18 
REMARK    6  A    between atoms: C_18  and  C_19 
ROOT
HETATM    1  C   UNL     1      40.417 -14.064   3.919  1.00  0.00     0.251 C 
HETATM    2  N   UNL     1      40.478 -13.487   5.170  1.00  0.00    -0.357 N 
HETATM    3  O   UNL     1      39.602 -13.733   3.065  1.00  0.00    -0.268 OA
HETATM    4  H   UNL     1      41.050 -13.900   5.891  1.00  0.00     0.162 HD
ENDROOT
BRANCH   1   5
HETATM    5  C   UNL     1      41.376 -15.171   3.634  1.00  0.00     0.032 A 
HETATM    6  C   UNL     1      41.379 -15.890   2.435  1.00  0.00     0.017 A 
HETATM    7  C   UNL     1      42.323 -16.905   2.214  1.00  0.00     0.008 A 
HETATM    8  C   UNL     1      43.268 -17.240   3.193  1.00  0.00    -0.052 A 
HETATM    9  C   UNL     1      43.243 -16.519   4.401  1.00  0.00     0.008 A 
HETATM   10  C   UNL     1      42.310 -15.501   4.619  1.00  0.00     0.017 A 
BRANCH   8  11
HETATM   11  C   UNL     1      44.327 -18.323   3.023  1.00  0.00     0.044 C 
HETATM   12  C   UNL     1      44.873 -18.881   4.348  1.00  0.00     0.241 C 
HETATM   13  N   UNL     1      44.033 -19.997   4.887  1.00  0.00    -0.074 N 
HETATM   14  H   UNL     1      43.141 -19.624   5.233  1.00  0.00     0.277 HD
HETATM   15  H   UNL     1      44.500 -20.379   5.721  1.00  0.00     0.277 HD
HETATM   16  C   UNL     1      43.792 -21.109   3.924  1.00  0.00     0.232 C 
HETATM   17  C   UNL     1      43.110 -20.567   2.681  1.00  0.00     0.028 C 
HETATM   18  C   UNL     1      43.907 -19.432   2.041  1.00  0.00     0.013 C 
ENDBRANCH   8  11
ENDBRANCH   1   5
BRANCH   2  19
HETATM   19  C   UNL     1      39.510 -12.489   5.593  1.00  0.00     0.123 C 
BRANCH  19  20
HETATM   20  C   UNL     1      40.173 -11.228   6.148  1.00  0.00     0.026 C 
BRANCH  20  21
HETATM   21  C   UNL     1      41.413 -10.832   5.344  1.00  0.00     0.061 C 
BRANCH  21  22
HETATM   22  C   UNL     1      42.639 -10.678   6.183  1.00  0.00     0.044 A 
HETATM   23  N   UNL     1      43.847 -11.117   5.664  1.00  0.00    -0.229 NA
HETATM   24  C   UNL     1      44.808 -10.945   6.536  1.00  0.00     0.164 A 
HETATM   25  N   UNL     1      46.084 -11.286   6.298  1.00  0.00    -0.378 N 
HETATM   26  S   UNL     1      44.334 -10.231   8.022  1.00  0.00    -0.062 SA
HETATM   27  H   UNL     1      46.324 -11.429   5.323  1.00  0.00     0.158 HD
HETATM   28  H   UNL     1      46.805 -10.825   6.839  1.00  0.00     0.158 HD
HETATM   29  C   UNL     1      42.716 -10.168   7.465  1.00  0.00     0.080 A 
ENDBRANCH  21  22
ENDBRANCH  20  21
ENDBRANCH  19  20
ENDBRANCH   2  19
TORSDOF 6
ENDMDL
MODEL 10
REMARK VINA RESULT:      -6.8      6.708     10.618
REMARK  6 active torsions:
REMARK  status: ('A' for Active; 'I' for Inactive)
REMARK    1  A    between atoms: C_2  and  C_3 
REMARK    2  A    between atoms: C_13  and  C_14 
REMARK       I    between atoms: C_14  and  N_15 
REMARK    3  A    between atoms: N_15  and  C_16 
REMARK    4  A    between atoms: C_16  and  C_17 
REMARK    5  A    between atoms: C_17  and  C_18 
REMARK    6  A    between atoms: C_18  and  C_19 
ROOT
HETATM    1  C   UNL     1      44.540 -10.952   8.271  1.00  0.00     0.251 C 
HETATM    2  N   UNL     1      43.576 -11.789   7.751  1.00  0.00    -0.357 N 
HETATM    3  O   UNL     1      45.687 -10.898   7.842  1.00  0.00    -0.268 OA
HETATM    4  H   UNL     1      42.702 -11.920   8.237  1.00  0.00     0.162 HD
ENDROOT
BRANCH   1   5
HETATM    5  C   UNL     1      44.149 -10.111   9.441  1.00  0.00     0.032 A 
HETATM    6  C   UNL     1      43.961  -8.728   9.359  1.00  0.00     0.017 A 
HETATM    7  C   UNL     1      43.568  -7.992  10.489  1.00  0.00     0.008 A 
HETATM    8  C   UNL     1      43.377  -8.618  11.728  1.00  0.00    -0.052 A 
HETATM    9  C   UNL     1      43.584 -10.008  11.799  1.00  0.00     0.008 A 
HETATM   10  C   UNL     1      43.966 -10.743  10.673  1.00  0.00     0.017 A 
BRANCH   8  11
HETATM   11  C   UNL     1      42.944  -7.889  12.994  1.00  0.00     0.044 C 
HETATM   12  C   UNL     1      42.118  -6.617  12.736  1.00  0.00     0.241 C 
HETATM   13  N   UNL     1      40.657  -6.906  12.582  1.00  0.00    -0.074 N 
HETATM   14  H   UNL     1      40.490  -7.383  11.688  1.00  0.00     0.277 HD
HETATM   15  H   UNL     1      40.157  -6.010  12.500  1.00  0.00     0.277 HD
HETATM   16  C   UNL     1      40.060  -7.684  13.706  1.00  0.00     0.232 C 
HETATM   17  C   UNL     1      40.788  -9.009  13.850  1.00  0.00     0.028 C 
HETATM   18  C   UNL     1      42.292  -8.817  14.035  1.00  0.00     0.013 C 
ENDBRANCH   8  11
ENDBRANCH   1   5
BRANCH   2  19
HETATM   19  C   UNL     1      43.887 -12.739   6.696  1.00  0.00     0.123 C 
BRANCH  19  20
HETATM   20  C   UNL     1      42.657 -13.518   6.228  1.00  0.00     0.026 C 
BRANCH  20  21
HETATM   21  C   UNL     1      43.039 -14.828   5.536  1.00  0.00     0.061 C 
BRANCH  21  22
HETATM   22  C   UNL     1      42.343 -15.034   4.230  1.00  0.00     0.044 A 
HETATM   23  N   UNL     1      40.998 -14.711   4.147  1.00  0.00    -0.229 NA
HETATM   24  C   UNL     1      40.535 -14.986   2.953  1.00  0.00     0.164 A 
HETATM   25  N   UNL     1      39.260 -14.775   2.594  1.00  0.00    -0.378 N 
HETATM   26  S   UNL     1      41.681 -15.631   1.851  1.00  0.00    -0.062 SA
HETATM   27  H   UNL     1      38.737 -14.144   3.191  1.00  0.00     0.158 HD
HETATM   28  H   UNL     1      39.057 -14.676   1.607  1.00  0.00     0.158 HD
HETATM   29  C   UNL     1      42.882 -15.557   3.070  1.00  0.00     0.080 A 
ENDBRANCH  21  22
ENDBRANCH  20  21
ENDBRANCH  19  20
ENDBRANCH   2  19
TORSDOF 6
ENDMDL
