MODEL 1
REMARK VINA RESULT:      -8.7      0.000      0.000
REMARK  6 active torsions:
REMARK  status: ('A' for Active; 'I' for Inactive)
REMARK    1  A    between atoms: O_2  and  C_3 
REMARK    2  A    between atoms: C_6  and  C_7 
REMARK       I    between atoms: C_7  and  N_8 
REMARK    3  A    between atoms: N_8  and  C_9 
REMARK    4  A    between atoms: C_11  and  C_12 
REMARK    5  A    between atoms: C_12  and  C_13 
REMARK    6  A    between atoms: C_13  and  C_14 
ROOT
HETATM    1  C   UNL     1      43.450 -11.193   7.054  1.00  0.00     0.725 A 
HETATM    2  N   UNL     1      42.782 -12.018   6.290  1.00  0.00    -0.046 NA
HETATM    3  C   UNL     1      43.538 -12.116   5.154  1.00  0.00     0.166 A 
HETATM    4  N   UNL     1      44.666 -11.392   5.173  1.00  0.00    -0.144 NA
HETATM    5  N   UNL     1      44.587 -10.820   6.389  1.00  0.00    -0.106 N 
HETATM    6  H   UNL     1      45.326 -10.199   6.688  1.00  0.00     0.208 HD
ENDROOT
BRANCH   1   7
HETATM    7  N   UNL     1      43.152 -10.750   8.321  1.00  0.00    -0.152 N 
HETATM    8  C   UNL     1      44.151 -10.517   9.248  1.00  0.00     0.270 C 
HETATM    9  O   UNL     1      45.343 -10.774   9.142  1.00  0.00    -0.267 OA
HETATM   10  H   UNL     1      42.187 -10.650   8.596  1.00  0.00     0.187 HD
BRANCH   8  11
HETATM   11  C   UNL     1      43.679  -9.938  10.534  1.00  0.00     0.033 A 
HETATM   12  C   UNL     1      43.326 -10.811  11.571  1.00  0.00     0.020 A 
HETATM   13  C   UNL     1      42.902 -10.307  12.804  1.00  0.00     0.038 A 
HETATM   14  C   UNL     1      42.841  -8.929  13.013  1.00  0.00     0.068 A 
HETATM   15  C   UNL     1      43.202  -8.061  11.978  1.00  0.00     0.038 A 
HETATM   16  C   UNL     1      43.625  -8.557  10.742  1.00  0.00     0.020 A 
BRANCH  14  17
HETATM   17  O   UNL     1      42.456  -8.309  14.169  1.00  0.00    -0.356 OA
HETATM   18  C   UNL     1      41.085  -8.420  14.531  1.00  0.00     0.210 C 
ENDBRANCH  14  17
ENDBRANCH   8  11
ENDBRANCH   1   7
BRANCH   3  19
HETATM   19  C   UNL     1      43.152 -13.009   4.034  1.00  0.00     0.087 C 
BRANCH  19  20
HETATM   20  C   UNL     1      42.265 -14.166   4.499  1.00  0.00     0.048 C 
BRANCH  20  21
HETATM   21  C   UNL     1      43.064 -15.380   4.860  1.00  0.00    -0.030 A 
HETATM   22  C   UNL     1      43.222 -16.554   4.055  1.00  0.00    -0.002 A 
HETATM   23  C   UNL     1      44.036 -17.440   4.761  1.00  0.00     0.042 A 
HETATM   24  C   UNL     1      42.743 -16.943   2.787  1.00  0.00     0.014 A 
HETATM   25  C   UNL     1      44.393 -18.699   4.264  1.00  0.00     0.030 A 
HETATM   26  N   UNL     1      44.367 -16.825   5.946  1.00  0.00    -0.365 N 
HETATM   27  C   UNL     1      43.902 -19.063   3.006  1.00  0.00     0.002 A 
HETATM   28  C   UNL     1      43.089 -18.200   2.276  1.00  0.00     0.001 A 
HETATM   29  H   UNL     1      44.955 -17.235   6.657  1.00  0.00     0.165 HD
HETATM   30  C   UNL     1      43.786 -15.586   6.018  1.00  0.00     0.096 A 
ENDBRANCH  20  21
ENDBRANCH  19  20
ENDBRANCH   3  19
TORSDOF 6
ENDMDL
MODEL 2
REMARK VINA RESULT:      -8.6      2.583     10.065
REMARK  6 active torsions:
REMARK  status: ('A' for Active; 'I' for Inactive)
REMARK    1  A    between atoms: O_2  and  C_3 
REMARK    2  A    between atoms: C_6  and  C_7 
REMARK       I    between atoms: C_7  and  N_8 
REMARK    3  A    between atoms: N_8  and  C_9 
REMARK    4  A    between atoms: C_11  and  C_12 
REMARK    5  A    between atoms: C_12  and  C_13 
REMARK    6  A    between atoms: C_13  and  C_14 
ROOT
HETATM    1  C   UNL     1      44.900 -11.557   7.321  1.00  0.00     0.725 A 
HETATM    2  N   UNL     1      44.595 -11.295   8.566  1.00  0.00    -0.046 NA
HETATM    3  C   UNL     1      45.431 -10.268   8.911  1.00  0.00     0.166 A 
HETATM    4  N   UNL     1      46.247  -9.863   7.928  1.00  0.00    -0.144 NA
HETATM    5  N   UNL     1      45.888 -10.693   6.933  1.00  0.00    -0.106 N 
HETATM    6  H   UNL     1      46.352 -10.616   6.037  1.00  0.00     0.208 HD
ENDROOT
BRANCH   1   7
HETATM    7  N   UNL     1      44.357 -12.494   6.474  1.00  0.00    -0.152 N 
HETATM    8  C   UNL     1      43.702 -12.113   5.317  1.00  0.00     0.270 C 
HETATM    9  O   UNL     1      43.410 -10.978   4.963  1.00  0.00    -0.267 OA
HETATM   10  H   UNL     1      44.385 -13.468   6.730  1.00  0.00     0.187 HD
BRANCH   8  11
HETATM   11  C   UNL     1      43.266 -13.242   4.452  1.00  0.00     0.033 A 
HETATM   12  C   UNL     1      43.297 -13.071   3.063  1.00  0.00     0.020 A 
HETATM   13  C   UNL     1      42.920 -14.116   2.214  1.00  0.00     0.038 A 
HETATM   14  C   UNL     1      42.523 -15.342   2.749  1.00  0.00     0.068 A 
HETATM   15  C   UNL     1      42.501 -15.512   4.136  1.00  0.00     0.038 A 
HETATM   16  C   UNL     1      42.875 -14.472   4.991  1.00  0.00     0.020 A 
BRANCH  14  17
HETATM   17  O   UNL     1      42.142 -16.444   2.033  1.00  0.00    -0.356 OA
HETATM   18  C   UNL     1      42.851 -17.650   2.288  1.00  0.00     0.210 C 
ENDBRANCH  14  17
ENDBRANCH   8  11
ENDBRANCH   1   7
BRANCH   3  19
HETATM   19  C   UNL     1      45.372  -9.630  10.248  1.00  0.00     0.087 C 
BRANCH  19  20
HETATM   20  C   UNL     1      44.218  -8.631  10.361  1.00  0.00     0.048 C 
BRANCH  20  21
HETATM   21  C   UNL     1      43.177  -9.078  11.341  1.00  0.00    -0.030 A 
HETATM   22  C   UNL     1      42.919  -8.491  12.621  1.00  0.00    -0.002 A 
HETATM   23  C   UNL     1      41.878  -9.209  13.209  1.00  0.00     0.042 A 
HETATM   24  C   UNL     1      43.481  -7.412  13.334  1.00  0.00     0.014 A 
HETATM   25  C   UNL     1      41.371  -8.904  14.478  1.00  0.00     0.030 A 
HETATM   26  N   UNL     1      41.512 -10.190  12.317  1.00  0.00    -0.365 N 
HETATM   27  C   UNL     1      41.947  -7.832  15.166  1.00  0.00     0.002 A 
HETATM   28  C   UNL     1      42.987  -7.094  14.605  1.00  0.00     0.001 A 
HETATM   29  H   UNL     1      40.774 -10.861  12.478  1.00  0.00     0.165 HD
HETATM   30  C   UNL     1      42.288 -10.123  11.190  1.00  0.00     0.096 A 
ENDBRANCH  20  21
ENDBRANCH  19  20
ENDBRANCH   3  19
TORSDOF 6
ENDMDL
MODEL 3
REMARK VINA RESULT:      -8.5      1.580      2.449
REMARK  6 active torsions:
REMARK  status: ('A' for Active; 'I' for Inactive)
REMARK    1  A    between atoms: O_2  and  C_3 
REMARK    2  A    between atoms: C_6  and  C_7 
REMARK       I    between atoms: C_7  and  N_8 
REMARK    3  A    between atoms: N_8  and  C_9 
REMARK    4  A    between atoms: C_11  and  C_12 
REMARK    5  A    between atoms: C_12  and  C_13 
REMARK    6  A    between atoms: C_13  and  C_14 
ROOT
HETATM    1  C   UNL     1      43.735 -10.521   8.409  1.00  0.00     0.725 A 
HETATM    2  N   UNL     1      43.185 -10.844   7.267  1.00  0.00    -0.046 NA
HETATM    3  C   UNL     1      44.224 -11.317   6.513  1.00  0.00     0.166 A 
HETATM    4  N   UNL     1      45.410 -11.316   7.138  1.00  0.00    -0.144 NA
HETATM    5  N   UNL     1      45.071 -10.811   8.337  1.00  0.00    -0.106 N 
HETATM    6  H   UNL     1      45.788 -10.691   9.040  1.00  0.00     0.208 HD
ENDROOT
BRANCH   1   7
HETATM    7  N   UNL     1      43.146 -10.006   9.540  1.00  0.00    -0.152 N 
HETATM    8  C   UNL     1      43.611 -10.337  10.799  1.00  0.00     0.270 C 
HETATM    9  O   UNL     1      44.460 -11.172  11.087  1.00  0.00    -0.267 OA
HETATM   10  H   UNL     1      42.327  -9.426   9.451  1.00  0.00     0.187 HD
BRANCH   8  11
HETATM   11  C   UNL     1      42.943  -9.616  11.916  1.00  0.00     0.033 A 
HETATM   12  C   UNL     1      43.489  -8.403  12.351  1.00  0.00     0.020 A 
HETATM   13  C   UNL     1      42.878  -7.681  13.380  1.00  0.00     0.038 A 
HETATM   14  C   UNL     1      41.708  -8.161  13.970  1.00  0.00     0.068 A 
HETATM   15  C   UNL     1      41.161  -9.369  13.527  1.00  0.00     0.038 A 
HETATM   16  C   UNL     1      41.768 -10.096  12.501  1.00  0.00     0.020 A 
BRANCH  14  17
HETATM   17  O   UNL     1      41.007  -7.551  14.973  1.00  0.00    -0.356 OA
HETATM   18  C   UNL     1      41.464  -7.773  16.302  1.00  0.00     0.210 C 
ENDBRANCH  14  17
ENDBRANCH   8  11
ENDBRANCH   1   7
BRANCH   3  19
HETATM   19  C   UNL     1      44.017 -11.844   5.142  1.00  0.00     0.087 C 
BRANCH  19  20
HETATM   20  C   UNL     1      42.898 -12.888   5.088  1.00  0.00     0.048 C 
BRANCH  20  21
HETATM   21  C   UNL     1      42.901 -13.653   3.801  1.00  0.00    -0.030 A 
HETATM   22  C   UNL     1      43.089 -15.066   3.662  1.00  0.00    -0.002 A 
HETATM   23  C   UNL     1      43.025 -15.366   2.301  1.00  0.00     0.042 A 
HETATM   24  C   UNL     1      43.310 -16.118   4.575  1.00  0.00     0.014 A 
HETATM   25  C   UNL     1      43.174 -16.667   1.806  1.00  0.00     0.030 A 
HETATM   26  N   UNL     1      42.799 -14.182   1.639  1.00  0.00    -0.365 N 
HETATM   27  C   UNL     1      43.395 -17.692   2.731  1.00  0.00     0.002 A 
HETATM   28  C   UNL     1      43.462 -17.425   4.096  1.00  0.00     0.001 A 
HETATM   29  H   UNL     1      42.702 -14.098   0.638  1.00  0.00     0.165 HD
HETATM   30  C   UNL     1      42.725 -13.144   2.530  1.00  0.00     0.096 A 
ENDBRANCH  20  21
ENDBRANCH  19  20
ENDBRANCH   3  19
TORSDOF 6
ENDMDL
MODEL 4
REMARK VINA RESULT:      -8.5      2.648      9.760
REMARK  6 active torsions:
REMARK  status: ('A' for Active; 'I' for Inactive)
REMARK    1  A    between atoms: O_2  and  C_3 
REMARK    2  A    between atoms: C_6  and  C_7 
REMARK       I    between atoms: C_7  and  N_8 
REMARK    3  A    between atoms: N_8  and  C_9 
REMARK    4  A    between atoms: C_11  and  C_12 
REMARK    5  A    between atoms: C_12  and  C_13 
REMARK    6  A    between atoms: C_13  and  C_14 
ROOT
HETATM    1  C   UNL     1      43.821 -12.231   7.201  1.00  0.00     0.725 A 
HETATM    2  N   UNL     1      44.767 -11.538   7.781  1.00  0.00    -0.046 NA
HETATM    3  C   UNL     1      44.190 -10.323   8.035  1.00  0.00     0.166 A 
HETATM    4  N   UNL     1      42.911 -10.224   7.649  1.00  0.00    -0.144 NA
HETATM    5  N   UNL     1      42.701 -11.446   7.127  1.00  0.00    -0.106 N 
HETATM    6  H   UNL     1      41.792 -11.667   6.745  1.00  0.00     0.208 HD
ENDROOT
BRANCH   1   7
HETATM    7  N   UNL     1      43.850 -13.527   6.745  1.00  0.00    -0.152 N 
HETATM    8  C   UNL     1      43.118 -13.910   5.636  1.00  0.00     0.270 C 
HETATM    9  O   UNL     1      42.296 -13.246   5.018  1.00  0.00    -0.267 OA
HETATM   10  H   UNL     1      44.366 -14.222   7.263  1.00  0.00     0.187 HD
BRANCH   8  11
HETATM   11  C   UNL     1      43.338 -15.316   5.204  1.00  0.00     0.033 A 
HETATM   12  C   UNL     1      42.905 -15.699   3.929  1.00  0.00     0.020 A 
HETATM   13  C   UNL     1      43.115 -17.004   3.474  1.00  0.00     0.038 A 
HETATM   14  C   UNL     1      43.773 -17.929   4.285  1.00  0.00     0.068 A 
HETATM   15  C   UNL     1      44.211 -17.541   5.554  1.00  0.00     0.038 A 
HETATM   16  C   UNL     1      44.003 -16.239   6.016  1.00  0.00     0.020 A 
BRANCH  14  17
HETATM   17  O   UNL     1      44.051 -19.228   3.958  1.00  0.00    -0.356 OA
HETATM   18  C   UNL     1      43.803 -19.618   2.613  1.00  0.00     0.210 C 
ENDBRANCH  14  17
ENDBRANCH   8  11
ENDBRANCH   1   7
BRANCH   3  19
HETATM   19  C   UNL     1      44.923  -9.245   8.742  1.00  0.00     0.087 C 
BRANCH  19  20
HETATM   20  C   UNL     1      45.381  -9.677  10.137  1.00  0.00     0.048 C 
BRANCH  20  21
HETATM   21  C   UNL     1      44.226  -9.954  11.050  1.00  0.00    -0.030 A 
HETATM   22  C   UNL     1      43.268  -8.994  11.510  1.00  0.00    -0.002 A 
HETATM   23  C   UNL     1      42.368  -9.664  12.339  1.00  0.00     0.042 A 
HETATM   24  C   UNL     1      43.088  -7.612  11.297  1.00  0.00     0.014 A 
HETATM   25  C   UNL     1      41.297  -9.020  12.969  1.00  0.00     0.030 A 
HETATM   26  N   UNL     1      42.759 -10.983  12.374  1.00  0.00    -0.365 N 
HETATM   27  C   UNL     1      41.141  -7.649  12.744  1.00  0.00     0.002 A 
HETATM   28  C   UNL     1      42.022  -6.952  11.920  1.00  0.00     0.001 A 
HETATM   29  H   UNL     1      42.284 -11.705  12.896  1.00  0.00     0.165 HD
HETATM   30  C   UNL     1      43.877 -11.169  11.604  1.00  0.00     0.096 A 
ENDBRANCH  20  21
ENDBRANCH  19  20
ENDBRANCH   3  19
TORSDOF 6
ENDMDL
MODEL 5
REMARK VINA RESULT:      -8.4      1.234      1.629
REMARK  6 active torsions:
REMARK  status: ('A' for Active; 'I' for Inactive)
REMARK    1  A    between atoms: O_2  and  C_3 
REMARK    2  A    between atoms: C_6  and  C_7 
REMARK       I    between atoms: C_7  and  N_8 
REMARK    3  A    between atoms: N_8  and  C_9 
REMARK    4  A    between atoms: C_11  and  C_12 
REMARK    5  A    between atoms: C_12  and  C_13 
REMARK    6  A    between atoms: C_13  and  C_14 
ROOT
HETATM    1  C   UNL     1      43.902 -10.465   8.441  1.00  0.00     0.725 A 
HETATM    2  N   UNL     1      43.222 -10.831   7.386  1.00  0.00    -0.046 NA
HETATM    3  C   UNL     1      44.149 -11.431   6.577  1.00  0.00     0.166 A 
HETATM    4  N   UNL     1      45.388 -11.468   7.086  1.00  0.00    -0.144 NA
HETATM    5  N   UNL     1      45.203 -10.853   8.268  1.00  0.00    -0.106 N 
HETATM    6  H   UNL     1      45.992 -10.733   8.888  1.00  0.00     0.208 HD
ENDROOT
BRANCH   1   7
HETATM    7  N   UNL     1      43.462  -9.827   9.578  1.00  0.00    -0.152 N 
HETATM    8  C   UNL     1      43.571 -10.427  10.819  1.00  0.00     0.270 C 
HETATM    9  O   UNL     1      43.921 -11.574  11.066  1.00  0.00    -0.267 OA
HETATM   10  H   UNL     1      43.000  -8.935   9.497  1.00  0.00     0.187 HD
BRANCH   8  11
HETATM   11  C   UNL     1      43.153  -9.570  11.960  1.00  0.00     0.033 A 
HETATM   12  C   UNL     1      42.228 -10.082  12.878  1.00  0.00     0.020 A 
HETATM   13  C   UNL     1      41.827  -9.318  13.978  1.00  0.00     0.038 A 
HETATM   14  C   UNL     1      42.360  -8.044  14.175  1.00  0.00     0.068 A 
HETATM   15  C   UNL     1      43.289  -7.539  13.261  1.00  0.00     0.038 A 
HETATM   16  C   UNL     1      43.693  -8.296  12.158  1.00  0.00     0.020 A 
BRANCH  14  17
HETATM   17  O   UNL     1      42.063  -7.201  15.211  1.00  0.00    -0.356 OA
HETATM   18  C   UNL     1      41.187  -7.701  16.213  1.00  0.00     0.210 C 
ENDBRANCH  14  17
ENDBRANCH   8  11
ENDBRANCH   1   7
BRANCH   3  19
HETATM   19  C   UNL     1      43.773 -12.041   5.279  1.00  0.00     0.087 C 
BRANCH  19  20
HETATM   20  C   UNL     1      42.621 -13.039   5.422  1.00  0.00     0.048 C 
BRANCH  20  21
HETATM   21  C   UNL     1      43.095 -14.459   5.379  1.00  0.00    -0.030 A 
HETATM   22  C   UNL     1      43.072 -15.320   4.234  1.00  0.00    -0.002 A 
HETATM   23  C   UNL     1      43.598 -16.551   4.625  1.00  0.00     0.042 A 
HETATM   24  C   UNL     1      42.646 -15.161   2.899  1.00  0.00     0.014 A 
HETATM   25  C   UNL     1      43.719 -17.635   3.747  1.00  0.00     0.030 A 
HETATM   26  N   UNL     1      43.937 -16.440   5.953  1.00  0.00    -0.365 N 
HETATM   27  C   UNL     1      43.287 -17.453   2.429  1.00  0.00     0.002 A 
HETATM   28  C   UNL     1      42.758 -16.235   2.008  1.00  0.00     0.001 A 
HETATM   29  H   UNL     1      44.348 -17.182   6.501  1.00  0.00     0.165 HD
HETATM   30  C   UNL     1      43.637 -15.187   6.419  1.00  0.00     0.096 A 
ENDBRANCH  20  21
ENDBRANCH  19  20
ENDBRANCH   3  19
TORSDOF 6
ENDMDL
MODEL 6
REMARK VINA RESULT:      -8.3      7.686     10.064
REMARK  6 active torsions:
REMARK  status: ('A' for Active; 'I' for Inactive)
REMARK    1  A    between atoms: O_2  and  C_3 
REMARK    2  A    between atoms: C_6  and  C_7 
REMARK       I    between atoms: C_7  and  N_8 
REMARK    3  A    between atoms: N_8  and  C_9 
REMARK    4  A    between atoms: C_11  and  C_12 
REMARK    5  A    between atoms: C_12  and  C_13 
REMARK    6  A    between atoms: C_13  and  C_14 
ROOT
HETATM    1  C   UNL     1      40.876 -12.968  -0.130  1.00  0.00     0.725 A 
HETATM    2  N   UNL     1      41.488 -13.605   0.835  1.00  0.00    -0.046 NA
HETATM    3  C   UNL     1      40.841 -14.807   0.912  1.00  0.00     0.166 A 
HETATM    4  N   UNL     1      39.849 -14.962   0.025  1.00  0.00    -0.144 NA
HETATM    5  N   UNL     1      39.895 -13.785  -0.624  1.00  0.00    -0.106 N 
HETATM    6  H   UNL     1      39.238 -13.611  -1.373  1.00  0.00     0.208 HD
ENDROOT
BRANCH   1   7
HETATM    7  N   UNL     1      41.127 -11.716  -0.640  1.00  0.00    -0.152 N 
HETATM    8  C   UNL     1      41.110 -11.485  -2.003  1.00  0.00     0.270 C 
HETATM    9  O   UNL     1      41.010 -12.313  -2.900  1.00  0.00    -0.267 OA
HETATM   10  H   UNL     1      41.385 -10.970  -0.013  1.00  0.00     0.187 HD
BRANCH   8  11
HETATM   11  C   UNL     1      41.292 -10.061  -2.392  1.00  0.00     0.033 A 
HETATM   12  C   UNL     1      40.839  -9.649  -3.651  1.00  0.00     0.020 A 
HETATM   13  C   UNL     1      40.968  -8.314  -4.046  1.00  0.00     0.038 A 
HETATM   14  C   UNL     1      41.537  -7.381  -3.178  1.00  0.00     0.068 A 
HETATM   15  C   UNL     1      41.981  -7.795  -1.919  1.00  0.00     0.038 A 
HETATM   16  C   UNL     1      41.857  -9.127  -1.518  1.00  0.00     0.020 A 
BRANCH  14  17
HETATM   17  O   UNL     1      41.712  -6.049  -3.435  1.00  0.00    -0.356 OA
HETATM   18  C   UNL     1      42.036  -5.690  -4.773  1.00  0.00     0.210 C 
ENDBRANCH  14  17
ENDBRANCH   8  11
ENDBRANCH   1   7
BRANCH   3  19
HETATM   19  C   UNL     1      41.267 -15.862   1.864  1.00  0.00     0.087 C 
BRANCH  19  20
HETATM   20  C   UNL     1      42.785 -16.061   1.864  1.00  0.00     0.048 C 
BRANCH  20  21
HETATM   21  C   UNL     1      43.250 -16.855   3.046  1.00  0.00    -0.030 A 
HETATM   22  C   UNL     1      43.440 -18.274   3.085  1.00  0.00    -0.002 A 
HETATM   23  C   UNL     1      43.874 -18.604   4.368  1.00  0.00     0.042 A 
HETATM   24  C   UNL     1      43.279 -19.309   2.140  1.00  0.00     0.014 A 
HETATM   25  C   UNL     1      44.153 -19.920   4.758  1.00  0.00     0.030 A 
HETATM   26  N   UNL     1      43.953 -17.430   5.080  1.00  0.00    -0.365 N 
HETATM   27  C   UNL     1      43.982 -20.928   3.804  1.00  0.00     0.002 A 
HETATM   28  C   UNL     1      43.552 -20.631   2.513  1.00  0.00     0.001 A 
HETATM   29  H   UNL     1      44.247 -17.365   6.044  1.00  0.00     0.165 HD
HETATM   30  C   UNL     1      43.578 -16.371   4.296  1.00  0.00     0.096 A 
ENDBRANCH  20  21
ENDBRANCH  19  20
ENDBRANCH   3  19
TORSDOF 6
ENDMDL
MODEL 7
REMARK VINA RESULT:      -8.1      6.645      9.237
REMARK  6 active torsions:
REMARK  status: ('A' for Active; 'I' for Inactive)
REMARK    1  A    between atoms: O_2  and  C_3 
REMARK    2  A    between atoms: C_6  and  C_7 
REMARK       I    between atoms: C_7  and  N_8 
REMARK    3  A    between atoms: N_8  and  C_9 
REMARK    4  A    between atoms: C_11  and  C_12 
REMARK    5  A    between atoms: C_12  and  C_13 
REMARK    6  A    between atoms: C_13  and  C_14 
ROOT
HETATM    1  C   UNL     1      40.338 -13.764   3.335  1.00  0.00     0.725 A 
HETATM    2  N   UNL     1      39.361 -13.517   2.500  1.00  0.00    -0.046 NA
HETATM    3  C   UNL     1      39.093 -12.187   2.676  1.00  0.00     0.166 A 
HETATM    4  N   UNL     1      39.870 -11.579   3.583  1.00  0.00    -0.144 NA
HETATM    5  N   UNL     1      40.651 -12.599   3.982  1.00  0.00    -0.106 N 
HETATM    6  H   UNL     1      41.357 -12.430   4.686  1.00  0.00     0.208 HD
ENDROOT
BRANCH   1   7
HETATM    7  N   UNL     1      41.007 -14.943   3.563  1.00  0.00    -0.152 N 
HETATM    8  C   UNL     1      42.332 -15.092   3.199  1.00  0.00     0.270 C 
HETATM    9  O   UNL     1      43.022 -14.314   2.552  1.00  0.00    -0.267 OA
HETATM   10  H   UNL     1      40.506 -15.729   3.947  1.00  0.00     0.187 HD
BRANCH   8  11
HETATM   11  C   UNL     1      42.945 -16.384   3.610  1.00  0.00     0.033 A 
HETATM   12  C   UNL     1      43.063 -17.402   2.655  1.00  0.00     0.020 A 
HETATM   13  C   UNL     1      43.656 -18.622   2.993  1.00  0.00     0.038 A 
HETATM   14  C   UNL     1      44.147 -18.826   4.282  1.00  0.00     0.068 A 
HETATM   15  C   UNL     1      44.035 -17.805   5.230  1.00  0.00     0.038 A 
HETATM   16  C   UNL     1      43.442 -16.584   4.901  1.00  0.00     0.020 A 
BRANCH  14  17
HETATM   17  O   UNL     1      44.756 -19.963   4.738  1.00  0.00    -0.356 OA
HETATM   18  C   UNL     1      43.908 -20.986   5.245  1.00  0.00     0.210 C 
ENDBRANCH  14  17
ENDBRANCH   8  11
ENDBRANCH   1   7
BRANCH   3  19
HETATM   19  C   UNL     1      38.066 -11.485   1.869  1.00  0.00     0.087 C 
BRANCH  19  20
HETATM   20  C   UNL     1      38.683 -10.688   0.717  1.00  0.00     0.048 C 
BRANCH  20  21
HETATM   21  C   UNL     1      39.508 -11.550  -0.187  1.00  0.00    -0.030 A 
HETATM   22  C   UNL     1      39.006 -12.437  -1.194  1.00  0.00    -0.002 A 
HETATM   23  C   UNL     1      40.104 -13.048  -1.799  1.00  0.00     0.042 A 
HETATM   24  C   UNL     1      37.713 -12.777  -1.642  1.00  0.00     0.014 A 
HETATM   25  C   UNL     1      39.974 -13.986  -2.831  1.00  0.00     0.030 A 
HETATM   26  N   UNL     1      41.231 -12.545  -1.191  1.00  0.00    -0.365 N 
HETATM   27  C   UNL     1      38.681 -14.308  -3.255  1.00  0.00     0.002 A 
HETATM   28  C   UNL     1      37.564 -13.714  -2.672  1.00  0.00     0.001 A 
HETATM   29  H   UNL     1      42.175 -12.808  -1.433  1.00  0.00     0.165 HD
HETATM   30  C   UNL     1      40.885 -11.645  -0.218  1.00  0.00     0.096 A 
ENDBRANCH  20  21
ENDBRANCH  19  20
ENDBRANCH   3  19
TORSDOF 6
ENDMDL
MODEL 8
REMARK VINA RESULT:      -8.1      3.519      9.487
REMARK  6 active torsions:
REMARK  status: ('A' for Active; 'I' for Inactive)
REMARK    1  A    between atoms: O_2  and  C_3 
REMARK    2  A    between atoms: C_6  and  C_7 
REMARK       I    between atoms: C_7  and  N_8 
REMARK    3  A    between atoms: N_8  and  C_9 
REMARK    4  A    between atoms: C_11  and  C_12 
REMARK    5  A    between atoms: C_12  and  C_13 
REMARK    6  A    between atoms: C_13  and  C_14 
ROOT
HETATM    1  C   UNL     1      42.669 -12.939   4.764  1.00  0.00     0.725 A 
HETATM    2  N   UNL     1      41.690 -12.260   5.302  1.00  0.00    -0.046 NA
HETATM    3  C   UNL     1      42.051 -10.951   5.130  1.00  0.00     0.166 A 
HETATM    4  N   UNL     1      43.217 -10.776   4.494  1.00  0.00    -0.144 NA
HETATM    5  N   UNL     1      43.586 -12.050   4.270  1.00  0.00    -0.106 N 
HETATM    6  H   UNL     1      44.457 -12.232   3.790  1.00  0.00     0.208 HD
ENDROOT
BRANCH   1   7
HETATM    7  N   UNL     1      42.818 -14.301   4.645  1.00  0.00    -0.152 N 
HETATM    8  C   UNL     1      43.004 -14.893   3.409  1.00  0.00     0.270 C 
HETATM    9  O   UNL     1      42.938 -14.361   2.309  1.00  0.00    -0.267 OA
HETATM   10  H   UNL     1      42.730 -14.881   5.465  1.00  0.00     0.187 HD
BRANCH   8  11
HETATM   11  C   UNL     1      43.257 -16.358   3.456  1.00  0.00     0.033 A 
HETATM   12  C   UNL     1      42.942 -17.127   2.330  1.00  0.00     0.020 A 
HETATM   13  C   UNL     1      43.188 -18.503   2.323  1.00  0.00     0.038 A 
HETATM   14  C   UNL     1      43.762 -19.116   3.437  1.00  0.00     0.068 A 
HETATM   15  C   UNL     1      44.082 -18.343   4.557  1.00  0.00     0.038 A 
HETATM   16  C   UNL     1      43.838 -16.968   4.572  1.00  0.00     0.020 A 
BRANCH  14  17
HETATM   17  O   UNL     1      44.063 -20.445   3.556  1.00  0.00    -0.356 OA
HETATM   18  C   UNL     1      43.871 -21.033   4.837  1.00  0.00     0.210 C 
ENDBRANCH  14  17
ENDBRANCH   8  11
ENDBRANCH   1   7
BRANCH   3  19
HETATM   19  C   UNL     1      41.173  -9.837   5.563  1.00  0.00     0.087 C 
BRANCH  19  20
HETATM   20  C   UNL     1      41.938  -8.774   6.357  1.00  0.00     0.048 C 
BRANCH  20  21
HETATM   21  C   UNL     1      42.054  -9.129   7.807  1.00  0.00    -0.030 A 
HETATM   22  C   UNL     1      43.275  -9.305   8.536  1.00  0.00    -0.002 A 
HETATM   23  C   UNL     1      42.936  -9.630   9.849  1.00  0.00     0.042 A 
HETATM   24  C   UNL     1      44.640  -9.219   8.193  1.00  0.00     0.014 A 
HETATM   25  C   UNL     1      43.895  -9.877  10.838  1.00  0.00     0.030 A 
HETATM   26  N   UNL     1      41.562  -9.642   9.918  1.00  0.00    -0.365 N 
HETATM   27  C   UNL     1      45.242  -9.789  10.472  1.00  0.00     0.002 A 
HETATM   28  C   UNL     1      45.612  -9.464   9.170  1.00  0.00     0.001 A 
HETATM   29  H   UNL     1      41.035  -9.844  10.756  1.00  0.00     0.165 HD
HETATM   30  C   UNL     1      41.021  -9.345   8.696  1.00  0.00     0.096 A 
ENDBRANCH  20  21
ENDBRANCH  19  20
ENDBRANCH   3  19
TORSDOF 6
ENDMDL
MODEL 9
REMARK VINA RESULT:      -7.8      1.842      2.558
REMARK  6 active torsions:
REMARK  status: ('A' for Active; 'I' for Inactive)
REMARK    1  A    between atoms: O_2  and  C_3 
REMARK    2  A    between atoms: C_6  and  C_7 
REMARK       I    between atoms: C_7  and  N_8 
REMARK    3  A    between atoms: N_8  and  C_9 
REMARK    4  A    between atoms: C_11  and  C_12 
REMARK    5  A    between atoms: C_12  and  C_13 
REMARK    6  A    between atoms: C_13  and  C_14 
ROOT
HETATM    1  C   UNL     1      42.881 -12.129   5.263  1.00  0.00     0.725 A 
HETATM    2  N   UNL     1      42.342 -13.313   5.130  1.00  0.00    -0.046 NA
HETATM    3  C   UNL     1      42.443 -13.584   3.792  1.00  0.00     0.166 A 
HETATM    4  N   UNL     1      43.036 -12.620   3.074  1.00  0.00    -0.144 NA
HETATM    5  N   UNL     1      43.307 -11.713   4.030  1.00  0.00    -0.106 N 
HETATM    6  H   UNL     1      43.769 -10.851   3.772  1.00  0.00     0.208 HD
ENDROOT
BRANCH   1   7
HETATM    7  N   UNL     1      43.057 -11.379   6.401  1.00  0.00    -0.152 N 
HETATM    8  C   UNL     1      42.557 -10.093   6.492  1.00  0.00     0.270 C 
HETATM    9  O   UNL     1      42.041  -9.427   5.603  1.00  0.00    -0.267 OA
HETATM   10  H   UNL     1      43.610 -11.750   7.158  1.00  0.00     0.187 HD
BRANCH   8  11
HETATM   11  C   UNL     1      42.734  -9.452   7.823  1.00  0.00     0.033 A 
HETATM   12  C   UNL     1      41.642  -9.418   8.699  1.00  0.00     0.020 A 
HETATM   13  C   UNL     1      41.773  -8.848   9.969  1.00  0.00     0.038 A 
HETATM   14  C   UNL     1      42.999  -8.322  10.375  1.00  0.00     0.068 A 
HETATM   15  C   UNL     1      44.089  -8.365   9.500  1.00  0.00     0.038 A 
HETATM   16  C   UNL     1      43.966  -8.931   8.230  1.00  0.00     0.020 A 
BRANCH  14  17
HETATM   17  O   UNL     1      43.264  -7.748  11.588  1.00  0.00    -0.356 OA
HETATM   18  C   UNL     1      42.711  -8.386  12.733  1.00  0.00     0.210 C 
ENDBRANCH  14  17
ENDBRANCH   8  11
ENDBRANCH   1   7
BRANCH   3  19
HETATM   19  C   UNL     1      41.986 -14.873   3.221  1.00  0.00     0.087 C 
BRANCH  19  20
HETATM   20  C   UNL     1      43.154 -15.740   2.744  1.00  0.00     0.048 C 
BRANCH  20  21
HETATM   21  C   UNL     1      43.515 -16.798   3.741  1.00  0.00    -0.030 A 
HETATM   22  C   UNL     1      43.595 -18.205   3.483  1.00  0.00    -0.002 A 
HETATM   23  C   UNL     1      43.956 -18.830   4.677  1.00  0.00     0.042 A 
HETATM   24  C   UNL     1      43.388 -19.004   2.339  1.00  0.00     0.014 A 
HETATM   25  C   UNL     1      44.120 -20.216   4.785  1.00  0.00     0.030 A 
HETATM   26  N   UNL     1      44.099 -17.840   5.621  1.00  0.00    -0.365 N 
HETATM   27  C   UNL     1      43.907 -20.986   3.637  1.00  0.00     0.002 A 
HETATM   28  C   UNL     1      43.547 -20.392   2.430  1.00  0.00     0.001 A 
HETATM   29  H   UNL     1      44.362 -18.003   6.582  1.00  0.00     0.165 HD
HETATM   30  C   UNL     1      43.834 -16.614   5.071  1.00  0.00     0.096 A 
ENDBRANCH  20  21
ENDBRANCH  19  20
ENDBRANCH   3  19
TORSDOF 6
ENDMDL
MODEL 10
REMARK VINA RESULT:      -7.7     18.222     19.522
REMARK  6 active torsions:
REMARK  status: ('A' for Active; 'I' for Inactive)
REMARK    1  A    between atoms: O_2  and  C_3 
REMARK    2  A    between atoms: C_6  and  C_7 
REMARK       I    between atoms: C_7  and  N_8 
REMARK    3  A    between atoms: N_8  and  C_9 
REMARK    4  A    between atoms: C_11  and  C_12 
REMARK    5  A    between atoms: C_12  and  C_13 
REMARK    6  A    between atoms: C_13  and  C_14 
ROOT
HETATM    1  C   UNL     1      45.153 -29.734   2.389  1.00  0.00     0.725 A 
HETATM    2  N   UNL     1      46.186 -30.307   1.827  1.00  0.00    -0.046 NA
HETATM    3  C   UNL     1      47.007 -29.267   1.487  1.00  0.00     0.166 A 
HETATM    4  N   UNL     1      46.539 -28.057   1.822  1.00  0.00    -0.144 NA
HETATM    5  N   UNL     1      45.366 -28.382   2.395  1.00  0.00    -0.106 N 
HETATM    6  H   UNL     1      44.774 -27.645   2.756  1.00  0.00     0.208 HD
ENDROOT
BRANCH   1   7
HETATM    7  N   UNL     1      44.029 -30.311   2.931  1.00  0.00    -0.152 N 
HETATM    8  C   UNL     1      42.769 -30.005   2.452  1.00  0.00     0.270 C 
HETATM    9  O   UNL     1      42.469 -29.147   1.631  1.00  0.00    -0.267 OA
HETATM   10  H   UNL     1      44.121 -30.921   3.729  1.00  0.00     0.187 HD
BRANCH   8  11
HETATM   11  C   UNL     1      41.665 -30.791   3.066  1.00  0.00     0.033 A 
HETATM   12  C   UNL     1      41.431 -30.655   4.439  1.00  0.00     0.020 A 
HETATM   13  C   UNL     1      40.387 -31.356   5.051  1.00  0.00     0.038 A 
HETATM   14  C   UNL     1      39.563 -32.186   4.291  1.00  0.00     0.068 A 
HETATM   15  C   UNL     1      39.795 -32.313   2.918  1.00  0.00     0.038 A 
HETATM   16  C   UNL     1      40.837 -31.617   2.300  1.00  0.00     0.020 A 
BRANCH  14  17
HETATM   17  O   UNL     1      38.506 -32.916   4.760  1.00  0.00    -0.356 OA
HETATM   18  C   UNL     1      38.542 -33.284   6.134  1.00  0.00     0.210 C 
ENDBRANCH  14  17
ENDBRANCH   8  11
ENDBRANCH   1   7
BRANCH   3  19
HETATM   19  C   UNL     1      48.331 -29.492   0.858  1.00  0.00     0.087 C 
BRANCH  19  20
HETATM   20  C   UNL     1      48.430 -28.849  -0.527  1.00  0.00     0.048 C 
BRANCH  20  21
HETATM   21  C   UNL     1      47.803 -29.698  -1.589  1.00  0.00    -0.030 A 
HETATM   22  C   UNL     1      46.719 -29.314  -2.443  1.00  0.00    -0.002 A 
HETATM   23  C   UNL     1      46.442 -30.394  -3.281  1.00  0.00     0.042 A 
HETATM   24  C   UNL     1      45.945 -28.142  -2.576  1.00  0.00     0.014 A 
HETATM   25  C   UNL     1      45.427 -30.363  -4.245  1.00  0.00     0.030 A 
HETATM   26  N   UNL     1      47.329 -31.393  -2.955  1.00  0.00    -0.365 N 
HETATM   27  C   UNL     1      44.672 -29.191  -4.354  1.00  0.00     0.002 A 
HETATM   28  C   UNL     1      44.926 -28.094  -3.534  1.00  0.00     0.001 A 
HETATM   29  H   UNL     1      47.363 -32.296  -3.406  1.00  0.00     0.165 HD
HETATM   30  C   UNL     1      48.151 -30.987  -1.937  1.00  0.00     0.096 A 
ENDBRANCH  20  21
ENDBRANCH  19  20
ENDBRANCH   3  19
TORSDOF 6
ENDMDL
