MODEL 1
REMARK VINA RESULT:     -10.4      0.000      0.000
REMARK  6 active torsions:
REMARK  status: ('A' for Active; 'I' for Inactive)
REMARK    1  A    between atoms: C_8  and  C_9 
REMARK    2  A    between atoms: C_9  and  C_10 
REMARK    3  A    between atoms: C_10  and  N_11 
REMARK       I    between atoms: N_11  and  C_12 
REMARK    4  A    between atoms: C_12  and  C_13 
REMARK    5  A    between atoms: C_18  and  C_19 
REMARK    6  A    between atoms: C_29  and  C_30 
ROOT
HETATM    1  C   UNL     1      40.026 -14.118   1.242  1.00  0.00     0.148 C 
HETATM    2  N   UNL     1      40.326 -14.735   0.074  1.00  0.00    -0.165 NA
HETATM    3  N   UNL     1      39.859 -13.880  -0.850  1.00  0.00    -0.240 N 
HETATM    4  C   UNL     1      39.417 -12.694  -0.342  1.00  0.00     0.123 C 
HETATM    5  N   UNL     1      39.068 -11.682  -1.159  1.00  0.00    -0.366 N 
HETATM    6  C   UNL     1      39.565 -11.596  -2.535  1.00  0.00     0.118 C 
HETATM    7  C   UNL     1      40.389 -12.834  -2.970  1.00  0.00     0.066 C 
HETATM    8  C   UNL     1      39.954 -14.129  -2.273  1.00  0.00     0.221 C 
HETATM    9  C   UNL     1      39.431 -12.844   1.018  1.00  0.00     0.088 C 
HETATM   10  H   UNL     1      38.780 -10.788  -0.760  1.00  0.00     0.161 HD
ENDROOT
BRANCH   1  11
HETATM   11  C   UNL     1      40.327 -14.718   2.552  1.00  0.00     0.272 C 
HETATM   12  N   UNL     1      41.046 -13.889   3.382  1.00  0.00    -0.355 N 
HETATM   13  H   UNL     1      41.177 -12.939   3.049  1.00  0.00     0.162 HD
HETATM   14  O   UNL     1      39.950 -15.841   2.872  1.00  0.00    -0.266 OA
BRANCH  12  15
HETATM   15  C   UNL     1      41.368 -14.263   4.741  1.00  0.00     0.127 C 
BRANCH  15  16
HETATM   16  C   UNL     1      42.871 -14.393   4.991  1.00  0.00     0.060 C 
BRANCH  16  17
HETATM   17  C   UNL     1      43.300 -15.803   5.256  1.00  0.00    -0.029 A 
HETATM   18  C   UNL     1      43.426 -16.868   4.307  1.00  0.00    -0.002 A 
HETATM   19  C   UNL     1      43.217 -16.978   2.915  1.00  0.00     0.014 A 
HETATM   20  C   UNL     1      43.850 -18.002   5.003  1.00  0.00     0.042 A 
HETATM   21  C   UNL     1      43.436 -18.206   2.278  1.00  0.00     0.001 A 
HETATM   22  C   UNL     1      43.858 -19.317   3.003  1.00  0.00     0.002 A 
HETATM   23  C   UNL     1      44.074 -19.236   4.381  1.00  0.00     0.030 A 
HETATM   24  N   UNL     1      43.976 -17.642   6.323  1.00  0.00    -0.365 N 
HETATM   25  H   UNL     1      44.269 -18.267   7.062  1.00  0.00     0.165 HD
HETATM   26  C   UNL     1      43.645 -16.325   6.489  1.00  0.00     0.096 A 
ENDBRANCH  16  17
ENDBRANCH  15  16
ENDBRANCH  12  15
ENDBRANCH   1  11
BRANCH   8  27
HETATM   27  C   UNL     1      38.643 -14.664  -2.801  1.00  0.00     0.409 C 
HETATM   28  F   UNL     1      37.575 -14.061  -2.236  1.00  0.00    -0.169 F 
HETATM   29  F   UNL     1      38.515 -14.570  -4.140  1.00  0.00    -0.169 F 
HETATM   30  F   UNL     1      38.540 -15.987  -2.499  1.00  0.00    -0.169 F 
ENDBRANCH   8  27
BRANCH   6  31
HETATM   31  C   UNL     1      40.391 -10.322  -2.659  1.00  0.00    -0.033 A 
HETATM   32  C   UNL     1      41.368 -10.007  -1.700  1.00  0.00     0.049 A 
HETATM   33  C   UNL     1      42.101  -8.849  -1.873  1.00  0.00     0.105 A 
HETATM   34  C   UNL     1      41.898  -8.010  -2.944  1.00  0.00     0.105 A 
HETATM   35  O   UNL     1      43.083  -8.401  -1.046  1.00  0.00    -0.323 OA
HETATM   36  O   UNL     1      42.723  -6.930  -2.924  1.00  0.00    -0.323 OA
HETATM   37  C   UNL     1      40.957  -8.282  -3.909  1.00  0.00     0.040 A 
HETATM   38  C   UNL     1      43.481  -7.190  -1.726  1.00  0.00     0.352 A 
HETATM   39  C   UNL     1      40.206  -9.451  -3.766  1.00  0.00     0.012 A 
ENDBRANCH   6  31
TORSDOF 6
ENDMDL
MODEL 2
REMARK VINA RESULT:     -10.4      7.128     10.164
REMARK  6 active torsions:
REMARK  status: ('A' for Active; 'I' for Inactive)
REMARK    1  A    between atoms: C_8  and  C_9 
REMARK    2  A    between atoms: C_9  and  C_10 
REMARK    3  A    between atoms: C_10  and  N_11 
REMARK       I    between atoms: N_11  and  C_12 
REMARK    4  A    between atoms: C_12  and  C_13 
REMARK    5  A    between atoms: C_18  and  C_19 
REMARK    6  A    between atoms: C_29  and  C_30 
ROOT
HETATM    1  C   UNL     1      42.579 -12.276   6.450  1.00  0.00     0.148 C 
HETATM    2  N   UNL     1      43.780 -12.484   7.042  1.00  0.00    -0.165 NA
HETATM    3  N   UNL     1      44.076 -11.281   7.562  1.00  0.00    -0.240 N 
HETATM    4  C   UNL     1      43.068 -10.367   7.462  1.00  0.00     0.123 C 
HETATM    5  N   UNL     1      43.161  -9.171   8.076  1.00  0.00    -0.366 N 
HETATM    6  C   UNL     1      44.053  -8.958   9.220  1.00  0.00     0.118 C 
HETATM    7  C   UNL     1      44.951 -10.181   9.535  1.00  0.00     0.066 C 
HETATM    8  C   UNL     1      45.294 -11.018   8.296  1.00  0.00     0.221 C 
HETATM    9  C   UNL     1      42.114 -10.948   6.674  1.00  0.00     0.088 C 
HETATM   10  H   UNL     1      42.380  -8.516   8.026  1.00  0.00     0.161 HD
ENDROOT
BRANCH   1  11
HETATM   11  C   UNL     1      41.871 -13.330   5.708  1.00  0.00     0.272 C 
HETATM   12  N   UNL     1      42.467 -13.653   4.511  1.00  0.00    -0.355 N 
HETATM   13  H   UNL     1      43.371 -13.222   4.339  1.00  0.00     0.162 HD
HETATM   14  O   UNL     1      40.859 -13.880   6.134  1.00  0.00    -0.266 OA
BRANCH  12  15
HETATM   15  C   UNL     1      41.971 -14.723   3.675  1.00  0.00     0.127 C 
BRANCH  15  16
HETATM   16  C   UNL     1      43.082 -15.566   3.049  1.00  0.00     0.060 C 
BRANCH  16  17
HETATM   17  C   UNL     1      43.463 -16.747   3.888  1.00  0.00    -0.029 A 
HETATM   18  C   UNL     1      43.534 -18.118   3.481  1.00  0.00    -0.002 A 
HETATM   19  C   UNL     1      43.299 -18.800   2.267  1.00  0.00     0.014 A 
HETATM   20  C   UNL     1      43.926 -18.866   4.593  1.00  0.00     0.042 A 
HETATM   21  C   UNL     1      43.462 -20.190   2.212  1.00  0.00     0.001 A 
HETATM   22  C   UNL     1      43.854 -20.904   3.341  1.00  0.00     0.002 A 
HETATM   23  C   UNL     1      44.095 -20.255   4.554  1.00  0.00     0.030 A 
HETATM   24  N   UNL     1      44.088 -17.985   5.636  1.00  0.00    -0.365 N 
HETATM   25  H   UNL     1      44.368 -18.249   6.570  1.00  0.00     0.165 HD
HETATM   26  C   UNL     1      43.808 -16.710   5.226  1.00  0.00     0.096 A 
ENDBRANCH  16  17
ENDBRANCH  15  16
ENDBRANCH  12  15
ENDBRANCH   1  11
BRANCH   8  27
HETATM   27  C   UNL     1      46.312 -10.348   7.403  1.00  0.00     0.409 C 
HETATM   28  F   UNL     1      46.404  -9.020   7.632  1.00  0.00    -0.169 F 
HETATM   29  F   UNL     1      47.551 -10.873   7.497  1.00  0.00    -0.169 F 
HETATM   30  F   UNL     1      45.935 -10.487   6.103  1.00  0.00    -0.169 F 
ENDBRANCH   8  27
BRANCH   6  31
HETATM   31  C   UNL     1      43.197  -8.588  10.424  1.00  0.00    -0.033 A 
HETATM   32  C   UNL     1      41.848  -8.231  10.259  1.00  0.00     0.049 A 
HETATM   33  C   UNL     1      41.115  -7.924  11.388  1.00  0.00     0.105 A 
HETATM   34  C   UNL     1      41.665  -7.956  12.648  1.00  0.00     0.105 A 
HETATM   35  O   UNL     1      39.803  -7.565  11.408  1.00  0.00    -0.323 OA
HETATM   36  O   UNL     1      40.772  -7.621  13.617  1.00  0.00    -0.323 OA
HETATM   37  C   UNL     1      42.979  -8.305  12.856  1.00  0.00     0.040 A 
HETATM   38  C   UNL     1      39.590  -7.387  12.826  1.00  0.00     0.352 A 
HETATM   39  C   UNL     1      43.744  -8.630  11.734  1.00  0.00     0.012 A 
ENDBRANCH   6  31
TORSDOF 6
ENDMDL
MODEL 3
REMARK VINA RESULT:     -10.2      6.422      9.220
REMARK  6 active torsions:
REMARK  status: ('A' for Active; 'I' for Inactive)
REMARK    1  A    between atoms: C_8  and  C_9 
REMARK    2  A    between atoms: C_9  and  C_10 
REMARK    3  A    between atoms: C_10  and  N_11 
REMARK       I    between atoms: N_11  and  C_12 
REMARK    4  A    between atoms: C_12  and  C_13 
REMARK    5  A    between atoms: C_18  and  C_19 
REMARK    6  A    between atoms: C_29  and  C_30 
ROOT
HETATM    1  C   UNL     1      43.803 -12.058   6.755  1.00  0.00     0.148 C 
HETATM    2  N   UNL     1      44.240 -13.340   6.713  1.00  0.00    -0.165 NA
HETATM    3  N   UNL     1      43.169 -14.012   6.259  1.00  0.00    -0.240 N 
HETATM    4  C   UNL     1      42.133 -13.215   5.871  1.00  0.00     0.123 C 
HETATM    5  N   UNL     1      41.058 -13.737   5.250  1.00  0.00    -0.366 N 
HETATM    6  C   UNL     1      41.122 -15.022   4.547  1.00  0.00     0.118 C 
HETATM    7  C   UNL     1      42.479 -15.750   4.719  1.00  0.00     0.066 C 
HETATM    8  C   UNL     1      43.167 -15.444   6.056  1.00  0.00     0.221 C 
HETATM    9  C   UNL     1      42.474 -11.947   6.255  1.00  0.00     0.088 C 
HETATM   10  H   UNL     1      40.311 -13.121   4.928  1.00  0.00     0.161 HD
ENDROOT
BRANCH   1  11
HETATM   11  C   UNL     1      44.645 -10.952   7.234  1.00  0.00     0.272 C 
HETATM   12  N   UNL     1      44.008 -10.128   8.134  1.00  0.00    -0.355 N 
HETATM   13  H   UNL     1      43.094 -10.441   8.447  1.00  0.00     0.162 HD
HETATM   14  O   UNL     1      45.810 -10.798   6.878  1.00  0.00    -0.266 OA
BRANCH  12  15
HETATM   15  C   UNL     1      44.694  -9.032   8.783  1.00  0.00     0.127 C 
BRANCH  15  16
HETATM   16  C   UNL     1      45.279  -9.408  10.144  1.00  0.00     0.060 C 
BRANCH  16  17
HETATM   17  C   UNL     1      44.236  -9.836  11.131  1.00  0.00    -0.029 A 
HETATM   18  C   UNL     1      43.349  -8.997  11.880  1.00  0.00    -0.002 A 
HETATM   19  C   UNL     1      43.146  -7.603  11.962  1.00  0.00     0.014 A 
HETATM   20  C   UNL     1      42.557  -9.828  12.675  1.00  0.00     0.042 A 
HETATM   21  C   UNL     1      42.167  -7.097  12.827  1.00  0.00     0.001 A 
HETATM   22  C   UNL     1      41.394  -7.954  13.605  1.00  0.00     0.002 A 
HETATM   23  C   UNL     1      41.574  -9.339  13.543  1.00  0.00     0.030 A 
HETATM   24  N   UNL     1      42.946 -11.122  12.420  1.00  0.00    -0.365 N 
HETATM   25  H   UNL     1      42.542 -11.938  12.857  1.00  0.00     0.165 HD
HETATM   26  C   UNL     1      43.957 -11.139  11.498  1.00  0.00     0.096 A 
ENDBRANCH  16  17
ENDBRANCH  15  16
ENDBRANCH  12  15
ENDBRANCH   1  11
BRANCH   8  27
HETATM   27  C   UNL     1      42.508 -16.140   7.224  1.00  0.00     0.409 C 
HETATM   28  F   UNL     1      42.823 -15.571   8.408  1.00  0.00    -0.169 F 
HETATM   29  F   UNL     1      41.164 -16.200   7.136  1.00  0.00    -0.169 F 
HETATM   30  F   UNL     1      42.945 -17.427   7.290  1.00  0.00    -0.169 F 
ENDBRANCH   8  27
BRANCH   6  31
HETATM   31  C   UNL     1      40.825 -14.770   3.074  1.00  0.00    -0.033 A 
HETATM   32  C   UNL     1      41.129 -13.531   2.486  1.00  0.00     0.049 A 
HETATM   33  C   UNL     1      40.855 -13.365   1.142  1.00  0.00     0.105 A 
HETATM   34  C   UNL     1      40.298 -14.366   0.381  1.00  0.00     0.105 A 
HETATM   35  O   UNL     1      41.091 -12.237   0.419  1.00  0.00    -0.323 OA
HETATM   36  O   UNL     1      40.112 -13.995  -0.914  1.00  0.00    -0.323 OA
HETATM   37  C   UNL     1      39.989 -15.595   0.914  1.00  0.00     0.040 A 
HETATM   38  C   UNL     1      40.629 -12.650  -0.887  1.00  0.00     0.352 A 
HETATM   39  C   UNL     1      40.263 -15.797   2.269  1.00  0.00     0.012 A 
ENDBRANCH   6  31
TORSDOF 6
ENDMDL
MODEL 4
REMARK VINA RESULT:     -10.0      4.396      8.531
REMARK  6 active torsions:
REMARK  status: ('A' for Active; 'I' for Inactive)
REMARK    1  A    between atoms: C_8  and  C_9 
REMARK    2  A    between atoms: C_9  and  C_10 
REMARK    3  A    between atoms: C_10  and  N_11 
REMARK       I    between atoms: N_11  and  C_12 
REMARK    4  A    between atoms: C_12  and  C_13 
REMARK    5  A    between atoms: C_18  and  C_19 
REMARK    6  A    between atoms: C_29  and  C_30 
ROOT
HETATM    1  C   UNL     1      40.404 -12.289   4.864  1.00  0.00     0.148 C 
HETATM    2  N   UNL     1      39.614 -12.843   3.912  1.00  0.00    -0.165 NA
HETATM    3  N   UNL     1      40.487 -13.518   3.147  1.00  0.00    -0.240 N 
HETATM    4  C   UNL     1      41.758 -13.547   3.642  1.00  0.00     0.123 C 
HETATM    5  N   UNL     1      42.703 -14.316   3.068  1.00  0.00    -0.366 N 
HETATM    6  C   UNL     1      42.356 -15.474   2.238  1.00  0.00     0.118 C 
HETATM    7  C   UNL     1      40.834 -15.617   1.989  1.00  0.00     0.066 C 
HETATM    8  C   UNL     1      40.090 -14.276   1.981  1.00  0.00     0.221 C 
HETATM    9  C   UNL     1      41.761 -12.692   4.709  1.00  0.00     0.088 C 
HETATM   10  H   UNL     1      43.637 -14.358   3.476  1.00  0.00     0.161 HD
ENDROOT
BRANCH   1  11
HETATM   11  C   UNL     1      39.873 -11.416   5.922  1.00  0.00     0.272 C 
HETATM   12  N   UNL     1      40.618 -10.276   6.117  1.00  0.00    -0.355 N 
HETATM   13  H   UNL     1      41.361 -10.115   5.443  1.00  0.00     0.162 HD
HETATM   14  O   UNL     1      38.850 -11.675   6.549  1.00  0.00    -0.266 OA
BRANCH  12  15
HETATM   15  C   UNL     1      40.214  -9.251   7.053  1.00  0.00     0.127 C 
BRANCH  15  16
HETATM   16  C   UNL     1      40.834  -9.421   8.440  1.00  0.00     0.060 C 
BRANCH  16  17
HETATM   17  C   UNL     1      42.228  -8.877   8.528  1.00  0.00    -0.029 A 
HETATM   18  C   UNL     1      43.449  -9.556   8.215  1.00  0.00    -0.002 A 
HETATM   19  C   UNL     1      43.766 -10.853   7.756  1.00  0.00     0.014 A 
HETATM   20  C   UNL     1      44.497  -8.664   8.449  1.00  0.00     0.042 A 
HETATM   21  C   UNL     1      45.106 -11.205   7.550  1.00  0.00     0.001 A 
HETATM   22  C   UNL     1      46.127 -10.290   7.794  1.00  0.00     0.002 A 
HETATM   23  C   UNL     1      45.841  -8.999   8.248  1.00  0.00     0.030 A 
HETATM   24  N   UNL     1      43.936  -7.487   8.887  1.00  0.00    -0.365 N 
HETATM   25  H   UNL     1      44.461  -6.660   9.135  1.00  0.00     0.165 HD
HETATM   26  C   UNL     1      42.574  -7.605   8.943  1.00  0.00     0.096 A 
ENDBRANCH  16  17
ENDBRANCH  15  16
ENDBRANCH  12  15
ENDBRANCH   1  11
BRANCH   8  27
HETATM   27  C   UNL     1      40.342 -13.477   0.723  1.00  0.00     0.409 C 
HETATM   28  F   UNL     1      39.236 -12.831   0.292  1.00  0.00    -0.169 F 
HETATM   29  F   UNL     1      41.333 -12.571   0.843  1.00  0.00    -0.169 F 
HETATM   30  F   UNL     1      40.710 -14.318  -0.281  1.00  0.00    -0.169 F 
ENDBRANCH   8  27
BRANCH   6  31
HETATM   31  C   UNL     1      42.917 -16.720   2.910  1.00  0.00    -0.033 A 
HETATM   32  C   UNL     1      42.810 -17.977   2.290  1.00  0.00     0.049 A 
HETATM   33  C   UNL     1      43.354 -19.069   2.936  1.00  0.00     0.105 A 
HETATM   34  C   UNL     1      43.985 -18.958   4.153  1.00  0.00     0.105 A 
HETATM   35  O   UNL     1      43.343 -20.349   2.476  1.00  0.00    -0.323 OA
HETATM   36  O   UNL     1      44.447 -20.152   4.612  1.00  0.00    -0.323 OA
HETATM   37  C   UNL     1      44.117 -17.748   4.793  1.00  0.00     0.040 A 
HETATM   38  C   UNL     1      44.049 -21.027   3.539  1.00  0.00     0.352 A 
HETATM   39  C   UNL     1      43.585 -16.623   4.160  1.00  0.00     0.012 A 
ENDBRANCH   6  31
TORSDOF 6
ENDMDL
MODEL 5
REMARK VINA RESULT:     -10.0      5.499      9.473
REMARK  6 active torsions:
REMARK  status: ('A' for Active; 'I' for Inactive)
REMARK    1  A    between atoms: C_8  and  C_9 
REMARK    2  A    between atoms: C_9  and  C_10 
REMARK    3  A    between atoms: C_10  and  N_11 
REMARK       I    between atoms: N_11  and  C_12 
REMARK    4  A    between atoms: C_12  and  C_13 
REMARK    5  A    between atoms: C_18  and  C_19 
REMARK    6  A    between atoms: C_29  and  C_30 
ROOT
HETATM    1  C   UNL     1      40.381 -12.309   5.282  1.00  0.00     0.148 C 
HETATM    2  N   UNL     1      39.627 -12.808   4.273  1.00  0.00    -0.165 NA
HETATM    3  N   UNL     1      40.530 -13.436   3.501  1.00  0.00    -0.240 N 
HETATM    4  C   UNL     1      41.782 -13.491   4.038  1.00  0.00     0.123 C 
HETATM    5  N   UNL     1      42.750 -14.222   3.453  1.00  0.00    -0.366 N 
HETATM    6  C   UNL     1      42.438 -15.331   2.546  1.00  0.00     0.118 C 
HETATM    7  C   UNL     1      40.926 -15.464   2.236  1.00  0.00     0.066 C 
HETATM    8  C   UNL     1      40.176 -14.126   2.279  1.00  0.00     0.221 C 
HETATM    9  C   UNL     1      41.744 -12.699   5.152  1.00  0.00     0.088 C 
HETATM   10  H   UNL     1      43.670 -14.286   3.891  1.00  0.00     0.161 HD
ENDROOT
BRANCH   1  11
HETATM   11  C   UNL     1      39.809 -11.499   6.369  1.00  0.00     0.272 C 
HETATM   12  N   UNL     1      40.662 -10.527   6.836  1.00  0.00    -0.355 N 
HETATM   13  H   UNL     1      41.521 -10.404   6.307  1.00  0.00     0.162 HD
HETATM   14  O   UNL     1      38.671 -11.668   6.797  1.00  0.00    -0.266 OA
BRANCH  12  15
HETATM   15  C   UNL     1      40.256  -9.574   7.845  1.00  0.00     0.127 C 
BRANCH  15  16
HETATM   16  C   UNL     1      41.341  -9.294   8.884  1.00  0.00     0.060 C 
BRANCH  16  17
HETATM   17  C   UNL     1      40.836  -9.368  10.292  1.00  0.00    -0.029 A 
HETATM   18  C   UNL     1      41.532  -9.000  11.488  1.00  0.00    -0.002 A 
HETATM   19  C   UNL     1      42.817  -8.483  11.761  1.00  0.00     0.014 A 
HETATM   20  C   UNL     1      40.675  -9.242  12.564  1.00  0.00     0.042 A 
HETATM   21  C   UNL     1      43.194  -8.231  13.087  1.00  0.00     0.001 A 
HETATM   22  C   UNL     1      42.314  -8.485  14.135  1.00  0.00     0.002 A 
HETATM   23  C   UNL     1      41.036  -8.995  13.893  1.00  0.00     0.030 A 
HETATM   24  N   UNL     1      39.503  -9.738  12.043  1.00  0.00    -0.365 N 
HETATM   25  H   UNL     1      38.700 -10.004  12.595  1.00  0.00     0.165 HD
HETATM   26  C   UNL     1      39.589  -9.823  10.680  1.00  0.00     0.096 A 
ENDBRANCH  16  17
ENDBRANCH  15  16
ENDBRANCH  12  15
ENDBRANCH   1  11
BRANCH   8  27
HETATM   27  C   UNL     1      40.469 -13.254   1.080  1.00  0.00     0.409 C 
HETATM   28  F   UNL     1      41.334 -12.257   1.367  1.00  0.00    -0.169 F 
HETATM   29  F   UNL     1      40.951 -13.931   0.018  1.00  0.00    -0.169 F 
HETATM   30  F   UNL     1      39.320 -12.656   0.664  1.00  0.00    -0.169 F 
ENDBRANCH   8  27
BRANCH   6  31
HETATM   31  C   UNL     1      42.981 -16.613   3.164  1.00  0.00    -0.033 A 
HETATM   32  C   UNL     1      42.875 -17.836   2.481  1.00  0.00     0.049 A 
HETATM   33  C   UNL     1      43.402 -18.963   3.081  1.00  0.00     0.105 A 
HETATM   34  C   UNL     1      44.015 -18.917   4.311  1.00  0.00     0.105 A 
HETATM   35  O   UNL     1      43.390 -20.218   2.558  1.00  0.00    -0.323 OA
HETATM   36  O   UNL     1      44.462 -20.135   4.718  1.00  0.00    -0.323 OA
HETATM   37  C   UNL     1      44.145 -17.741   5.012  1.00  0.00     0.040 A 
HETATM   38  C   UNL     1      44.075 -20.953   3.596  1.00  0.00     0.352 A 
HETATM   39  C   UNL     1      43.630 -16.582   4.428  1.00  0.00     0.012 A 
ENDBRANCH   6  31
TORSDOF 6
ENDMDL
MODEL 6
REMARK VINA RESULT:      -9.9      7.877     11.068
REMARK  6 active torsions:
REMARK  status: ('A' for Active; 'I' for Inactive)
REMARK    1  A    between atoms: C_8  and  C_9 
REMARK    2  A    between atoms: C_9  and  C_10 
REMARK    3  A    between atoms: C_10  and  N_11 
REMARK       I    between atoms: N_11  and  C_12 
REMARK    4  A    between atoms: C_12  and  C_13 
REMARK    5  A    between atoms: C_18  and  C_19 
REMARK    6  A    between atoms: C_29  and  C_30 
ROOT
HETATM    1  C   UNL     1      42.294 -11.006   6.772  1.00  0.00     0.148 C 
HETATM    2  N   UNL     1      43.483 -11.470   7.227  1.00  0.00    -0.165 NA
HETATM    3  N   UNL     1      43.865 -10.523   8.100  1.00  0.00    -0.240 N 
HETATM    4  C   UNL     1      42.922  -9.567   8.335  1.00  0.00     0.123 C 
HETATM    5  N   UNL     1      43.102  -8.645   9.300  1.00  0.00    -0.366 N 
HETATM    6  C   UNL     1      44.018  -8.873  10.423  1.00  0.00     0.118 C 
HETATM    7  C   UNL     1      44.832 -10.185  10.295  1.00  0.00     0.066 C 
HETATM    8  C   UNL     1      45.106 -10.591   8.842  1.00  0.00     0.221 C 
HETATM    9  C   UNL     1      41.923  -9.798   7.430  1.00  0.00     0.088 C 
HETATM   10  H   UNL     1      42.368  -7.962   9.490  1.00  0.00     0.161 HD
ENDROOT
BRANCH   1  11
HETATM   11  C   UNL     1      41.508 -11.715   5.750  1.00  0.00     0.272 C 
HETATM   12  N   UNL     1      42.006 -12.960   5.442  1.00  0.00    -0.355 N 
HETATM   13  H   UNL     1      42.768 -13.287   6.029  1.00  0.00     0.162 HD
HETATM   14  O   UNL     1      40.496 -11.242   5.242  1.00  0.00    -0.266 OA
BRANCH  12  15
HETATM   15  C   UNL     1      41.329 -13.846   4.522  1.00  0.00     0.127 C 
BRANCH  15  16
HETATM   16  C   UNL     1      40.802 -15.119   5.187  1.00  0.00     0.060 C 
BRANCH  16  17
HETATM   17  C   UNL     1      41.871 -16.143   5.418  1.00  0.00    -0.029 A 
HETATM   18  C   UNL     1      42.531 -16.951   4.437  1.00  0.00    -0.002 A 
HETATM   19  C   UNL     1      42.433 -17.073   3.034  1.00  0.00     0.014 A 
HETATM   20  C   UNL     1      43.447 -17.762   5.109  1.00  0.00     0.042 A 
HETATM   21  C   UNL     1      43.248 -17.994   2.362  1.00  0.00     0.001 A 
HETATM   22  C   UNL     1      44.151 -18.787   3.064  1.00  0.00     0.002 A 
HETATM   23  C   UNL     1      44.269 -18.685   4.452  1.00  0.00     0.030 A 
HETATM   24  N   UNL     1      43.350 -17.459   6.446  1.00  0.00    -0.365 N 
HETATM   25  H   UNL     1      43.899 -17.897   7.173  1.00  0.00     0.165 HD
HETATM   26  C   UNL     1      42.404 -16.492   6.645  1.00  0.00     0.096 A 
ENDBRANCH  16  17
ENDBRANCH  15  16
ENDBRANCH  12  15
ENDBRANCH   1  11
BRANCH   8  27
HETATM   27  C   UNL     1      46.159  -9.731   8.184  1.00  0.00     0.409 C 
HETATM   28  F   UNL     1      45.648  -8.943   7.213  1.00  0.00    -0.169 F 
HETATM   29  F   UNL     1      46.838  -8.946   9.044  1.00  0.00    -0.169 F 
HETATM   30  F   UNL     1      47.083 -10.528   7.582  1.00  0.00    -0.169 F 
ENDBRANCH   8  27
BRANCH   6  31
HETATM   31  C   UNL     1      43.200  -8.864  11.708  1.00  0.00    -0.033 A 
HETATM   32  C   UNL     1      43.458  -7.917  12.713  1.00  0.00     0.049 A 
HETATM   33  C   UNL     1      42.672  -7.943  13.848  1.00  0.00     0.105 A 
HETATM   34  C   UNL     1      41.662  -8.861  14.016  1.00  0.00     0.105 A 
HETATM   35  O   UNL     1      42.783  -7.099  14.909  1.00  0.00    -0.323 OA
HETATM   36  O   UNL     1      41.013  -8.713  15.202  1.00  0.00    -0.323 OA
HETATM   37  C   UNL     1      41.371  -9.802  13.056  1.00  0.00     0.040 A 
HETATM   38  C   UNL     1      41.719  -7.586  15.757  1.00  0.00     0.352 A 
HETATM   39  C   UNL     1      42.143  -9.795  11.893  1.00  0.00     0.012 A 
ENDBRANCH   6  31
TORSDOF 6
ENDMDL
MODEL 7
REMARK VINA RESULT:      -9.7      5.504      7.902
REMARK  6 active torsions:
REMARK  status: ('A' for Active; 'I' for Inactive)
REMARK    1  A    between atoms: C_8  and  C_9 
REMARK    2  A    between atoms: C_9  and  C_10 
REMARK    3  A    between atoms: C_10  and  N_11 
REMARK       I    between atoms: N_11  and  C_12 
REMARK    4  A    between atoms: C_12  and  C_13 
REMARK    5  A    between atoms: C_18  and  C_19 
REMARK    6  A    between atoms: C_29  and  C_30 
ROOT
HETATM    1  C   UNL     1      40.093 -11.745   6.166  1.00  0.00     0.148 C 
HETATM    2  N   UNL     1      41.424 -11.929   5.994  1.00  0.00    -0.165 NA
HETATM    3  N   UNL     1      41.480 -12.940   5.112  1.00  0.00    -0.240 N 
HETATM    4  C   UNL     1      40.268 -13.306   4.605  1.00  0.00     0.123 C 
HETATM    5  N   UNL     1      40.184 -14.196   3.597  1.00  0.00    -0.366 N 
HETATM    6  C   UNL     1      41.313 -14.449   2.696  1.00  0.00     0.118 C 
HETATM    7  C   UNL     1      42.610 -13.711   3.113  1.00  0.00     0.066 C 
HETATM    8  C   UNL     1      42.726 -13.494   4.627  1.00  0.00     0.221 C 
HETATM    9  C   UNL     1      39.337 -12.611   5.326  1.00  0.00     0.088 C 
HETATM   10  H   UNL     1      39.272 -14.426   3.201  1.00  0.00     0.161 HD
ENDROOT
BRANCH   1  11
HETATM   11  C   UNL     1      39.548 -10.741   7.093  1.00  0.00     0.272 C 
HETATM   12  N   UNL     1      40.097  -9.490   6.931  1.00  0.00    -0.355 N 
HETATM   13  H   UNL     1      40.711  -9.379   6.130  1.00  0.00     0.162 HD
HETATM   14  O   UNL     1      38.672 -10.998   7.914  1.00  0.00    -0.266 OA
BRANCH  12  15
HETATM   15  C   UNL     1      39.635  -8.349   7.690  1.00  0.00     0.127 C 
BRANCH  15  16
HETATM   16  C   UNL     1      40.740  -7.678   8.505  1.00  0.00     0.060 C 
BRANCH  16  17
HETATM   17  C   UNL     1      41.397  -8.609   9.478  1.00  0.00    -0.029 A 
HETATM   18  C   UNL     1      42.790  -8.929   9.572  1.00  0.00    -0.002 A 
HETATM   19  C   UNL     1      43.943  -8.531   8.862  1.00  0.00     0.014 A 
HETATM   20  C   UNL     1      42.940  -9.841  10.618  1.00  0.00     0.042 A 
HETATM   21  C   UNL     1      45.192  -9.055   9.221  1.00  0.00     0.001 A 
HETATM   22  C   UNL     1      45.305  -9.963  10.270  1.00  0.00     0.002 A 
HETATM   23  C   UNL     1      44.180 -10.373  10.990  1.00  0.00     0.030 A 
HETATM   24  N   UNL     1      41.689 -10.067  11.140  1.00  0.00    -0.365 N 
HETATM   25  H   UNL     1      41.495 -10.689  11.913  1.00  0.00     0.165 HD
HETATM   26  C   UNL     1      40.753  -9.337  10.461  1.00  0.00     0.096 A 
ENDBRANCH  16  17
ENDBRANCH  15  16
ENDBRANCH  12  15
ENDBRANCH   1  11
BRANCH   8  27
HETATM   27  C   UNL     1      43.063 -14.762   5.375  1.00  0.00     0.409 C 
HETATM   28  F   UNL     1      42.008 -15.252   6.062  1.00  0.00    -0.169 F 
HETATM   29  F   UNL     1      43.542 -15.748   4.589  1.00  0.00    -0.169 F 
HETATM   30  F   UNL     1      44.031 -14.501   6.294  1.00  0.00    -0.169 F 
ENDBRANCH   8  27
BRANCH   6  31
HETATM   31  C   UNL     1      40.891 -14.053   1.287  1.00  0.00    -0.033 A 
HETATM   32  C   UNL     1      40.141 -14.934   0.490  1.00  0.00     0.049 A 
HETATM   33  C   UNL     1      39.770 -14.513  -0.772  1.00  0.00     0.105 A 
HETATM   34  C   UNL     1      40.113 -13.274  -1.259  1.00  0.00     0.105 A 
HETATM   35  O   UNL     1      39.043 -15.236  -1.665  1.00  0.00    -0.323 OA
HETATM   36  O   UNL     1      39.649 -13.062  -2.519  1.00  0.00    -0.323 OA
HETATM   37  C   UNL     1      40.841 -12.378  -0.512  1.00  0.00     0.040 A 
HETATM   38  C   UNL     1      38.960 -14.303  -2.766  1.00  0.00     0.352 A 
HETATM   39  C   UNL     1      41.224 -12.771   0.772  1.00  0.00     0.012 A 
ENDBRANCH   6  31
TORSDOF 6
ENDMDL
MODEL 8
REMARK VINA RESULT:      -9.6      6.443     10.100
REMARK  6 active torsions:
REMARK  status: ('A' for Active; 'I' for Inactive)
REMARK    1  A    between atoms: C_8  and  C_9 
REMARK    2  A    between atoms: C_9  and  C_10 
REMARK    3  A    between atoms: C_10  and  N_11 
REMARK       I    between atoms: N_11  and  C_12 
REMARK    4  A    between atoms: C_12  and  C_13 
REMARK    5  A    between atoms: C_18  and  C_19 
REMARK    6  A    between atoms: C_29  and  C_30 
ROOT
HETATM    1  C   UNL     1      43.746 -11.309   6.681  1.00  0.00     0.148 C 
HETATM    2  N   UNL     1      42.413 -11.548   6.739  1.00  0.00    -0.165 NA
HETATM    3  N   UNL     1      42.161 -12.151   5.565  1.00  0.00    -0.240 N 
HETATM    4  C   UNL     1      43.276 -12.441   4.836  1.00  0.00     0.123 C 
HETATM    5  N   UNL     1      43.192 -13.183   3.715  1.00  0.00    -0.366 N 
HETATM    6  C   UNL     1      42.065 -14.088   3.472  1.00  0.00     0.118 C 
HETATM    7  C   UNL     1      40.953 -13.986   4.547  1.00  0.00     0.066 C 
HETATM    8  C   UNL     1      40.840 -12.591   5.174  1.00  0.00     0.221 C 
HETATM    9  C   UNL     1      44.316 -11.836   5.487  1.00  0.00     0.088 C 
HETATM   10  H   UNL     1      44.041 -13.425   3.204  1.00  0.00     0.161 HD
ENDROOT
BRANCH   1  11
HETATM   11  C   UNL     1      44.471 -10.618   7.758  1.00  0.00     0.272 C 
HETATM   12  N   UNL     1      43.948  -9.383   8.067  1.00  0.00    -0.355 N 
HETATM   13  H   UNL     1      43.070  -9.151   7.611  1.00  0.00     0.162 HD
HETATM   14  O   UNL     1      45.436 -11.110   8.335  1.00  0.00    -0.266 OA
BRANCH  12  15
HETATM   15  C   UNL     1      44.468  -8.584   9.153  1.00  0.00     0.127 C 
BRANCH  15  16
HETATM   16  C   UNL     1      43.405  -7.719   9.830  1.00  0.00     0.060 C 
BRANCH  16  17
HETATM   17  C   UNL     1      42.641  -8.454  10.889  1.00  0.00    -0.029 A 
HETATM   18  C   UNL     1      42.590  -8.159  12.290  1.00  0.00    -0.002 A 
HETATM   19  C   UNL     1      43.176  -7.172  13.111  1.00  0.00     0.014 A 
HETATM   20  C   UNL     1      41.759  -9.109  12.888  1.00  0.00     0.042 A 
HETATM   21  C   UNL     1      42.913  -7.172  14.487  1.00  0.00     0.001 A 
HETATM   22  C   UNL     1      42.080  -8.134  15.050  1.00  0.00     0.002 A 
HETATM   23  C   UNL     1      41.485  -9.122  14.260  1.00  0.00     0.030 A 
HETATM   24  N   UNL     1      41.322  -9.948  11.891  1.00  0.00    -0.365 N 
HETATM   25  H   UNL     1      40.704 -10.734  12.035  1.00  0.00     0.165 HD
HETATM   26  C   UNL     1      41.848  -9.568  10.687  1.00  0.00     0.096 A 
ENDBRANCH  16  17
ENDBRANCH  15  16
ENDBRANCH  12  15
ENDBRANCH   1  11
BRANCH   8  27
HETATM   27  C   UNL     1      40.203 -11.583   4.245  1.00  0.00     0.409 C 
HETATM   28  F   UNL     1      40.953 -10.468   4.103  1.00  0.00    -0.169 F 
HETATM   29  F   UNL     1      39.938 -12.066   3.015  1.00  0.00    -0.169 F 
HETATM   30  F   UNL     1      39.012 -11.179   4.764  1.00  0.00    -0.169 F 
ENDBRANCH   8  27
BRANCH   6  31
HETATM   31  C   UNL     1      42.610 -15.508   3.388  1.00  0.00    -0.033 A 
HETATM   32  C   UNL     1      43.041 -16.178   4.545  1.00  0.00     0.049 A 
HETATM   33  C   UNL     1      43.508 -17.471   4.411  1.00  0.00     0.105 A 
HETATM   34  C   UNL     1      43.562 -18.106   3.192  1.00  0.00     0.105 A 
HETATM   35  O   UNL     1      43.957 -18.260   5.424  1.00  0.00    -0.323 OA
HETATM   36  O   UNL     1      44.053 -19.371   3.283  1.00  0.00    -0.323 OA
HETATM   37  C   UNL     1      43.146 -17.490   2.035  1.00  0.00     0.040 A 
HETATM   38  C   UNL     1      44.288 -19.467   4.702  1.00  0.00     0.352 A 
HETATM   39  C   UNL     1      42.660 -16.185   2.139  1.00  0.00     0.012 A 
ENDBRANCH   6  31
TORSDOF 6
ENDMDL
MODEL 9
REMARK VINA RESULT:      -9.4      5.766      8.330
REMARK  6 active torsions:
REMARK  status: ('A' for Active; 'I' for Inactive)
REMARK    1  A    between atoms: C_8  and  C_9 
REMARK    2  A    between atoms: C_9  and  C_10 
REMARK    3  A    between atoms: C_10  and  N_11 
REMARK       I    between atoms: N_11  and  C_12 
REMARK    4  A    between atoms: C_12  and  C_13 
REMARK    5  A    between atoms: C_18  and  C_19 
REMARK    6  A    between atoms: C_29  and  C_30 
ROOT
HETATM    1  C   UNL     1      42.653 -12.863   6.059  1.00  0.00     0.148 C 
HETATM    2  N   UNL     1      43.475 -13.705   5.387  1.00  0.00    -0.165 NA
HETATM    3  N   UNL     1      42.628 -14.409   4.618  1.00  0.00    -0.240 N 
HETATM    4  C   UNL     1      41.340 -13.962   4.653  1.00  0.00     0.123 C 
HETATM    5  N   UNL     1      40.413 -14.468   3.817  1.00  0.00    -0.366 N 
HETATM    6  C   UNL     1      40.785 -15.127   2.561  1.00  0.00     0.118 C 
HETATM    7  C   UNL     1      42.315 -15.297   2.386  1.00  0.00     0.066 C 
HETATM    8  C   UNL     1      43.066 -15.452   3.715  1.00  0.00     0.221 C 
HETATM    9  C   UNL     1      41.301 -13.016   5.639  1.00  0.00     0.088 C 
HETATM   10  H   UNL     1      39.464 -14.093   3.828  1.00  0.00     0.161 HD
ENDROOT
BRANCH   1  11
HETATM   11  C   UNL     1      43.149 -11.909   7.062  1.00  0.00     0.272 C 
HETATM   12  N   UNL     1      42.393 -10.763   7.149  1.00  0.00    -0.355 N 
HETATM   13  H   UNL     1      41.532 -10.761   6.610  1.00  0.00     0.162 HD
HETATM   14  O   UNL     1      44.131 -12.131   7.765  1.00  0.00    -0.266 OA
BRANCH  12  15
HETATM   15  C   UNL     1      42.668  -9.739   8.133  1.00  0.00     0.127 C 
BRANCH  15  16
HETATM   16  C   UNL     1      41.444  -8.895   8.485  1.00  0.00     0.060 C 
BRANCH  16  17
HETATM   17  C   UNL     1      40.898  -9.197   9.848  1.00  0.00    -0.029 A 
HETATM   18  C   UNL     1      41.541  -8.986  11.110  1.00  0.00    -0.002 A 
HETATM   19  C   UNL     1      42.794  -8.469  11.503  1.00  0.00     0.014 A 
HETATM   20  C   UNL     1      40.662  -9.417  12.105  1.00  0.00     0.042 A 
HETATM   21  C   UNL     1      43.118  -8.404  12.865  1.00  0.00     0.001 A 
HETATM   22  C   UNL     1      42.218  -8.843  13.831  1.00  0.00     0.002 A 
HETATM   23  C   UNL     1      40.970  -9.358  13.469  1.00  0.00     0.030 A 
HETATM   24  N   UNL     1      39.529  -9.873  11.474  1.00  0.00    -0.365 N 
HETATM   25  H   UNL     1      38.720 -10.248  11.950  1.00  0.00     0.165 HD
HETATM   26  C   UNL     1      39.660  -9.750  10.118  1.00  0.00     0.096 A 
ENDBRANCH  16  17
ENDBRANCH  15  16
ENDBRANCH  12  15
ENDBRANCH   1  11
BRANCH   8  27
HETATM   27  C   UNL     1      42.864 -16.810   4.345  1.00  0.00     0.409 C 
HETATM   28  F   UNL     1      43.950 -17.225   5.034  1.00  0.00    -0.169 F 
HETATM   29  F   UNL     1      41.798 -16.878   5.167  1.00  0.00    -0.169 F 
HETATM   30  F   UNL     1      42.655 -17.735   3.369  1.00  0.00    -0.169 F 
ENDBRANCH   8  27
BRANCH   6  31
HETATM   31  C   UNL     1      40.193 -14.321   1.412  1.00  0.00    -0.033 A 
HETATM   32  C   UNL     1      40.088 -14.879   0.127  1.00  0.00     0.049 A 
HETATM   33  C   UNL     1      39.526 -14.109  -0.872  1.00  0.00     0.105 A 
HETATM   34  C   UNL     1      39.076 -12.830  -0.643  1.00  0.00     0.105 A 
HETATM   35  O   UNL     1      39.344 -14.496  -2.164  1.00  0.00    -0.323 OA
HETATM   36  O   UNL     1      38.559 -12.250  -1.759  1.00  0.00    -0.323 OA
HETATM   37  C   UNL     1      39.155 -12.246   0.600  1.00  0.00     0.040 A 
HETATM   38  C   UNL     1      38.720 -13.316  -2.716  1.00  0.00     0.352 A 
HETATM   39  C   UNL     1      39.711 -13.003   1.633  1.00  0.00     0.012 A 
ENDBRANCH   6  31
TORSDOF 6
ENDMDL
MODEL 10
REMARK VINA RESULT:      -9.3      6.731      9.037
REMARK  6 active torsions:
REMARK  status: ('A' for Active; 'I' for Inactive)
REMARK    1  A    between atoms: C_8  and  C_9 
REMARK    2  A    between atoms: C_9  and  C_10 
REMARK    3  A    between atoms: C_10  and  N_11 
REMARK       I    between atoms: N_11  and  C_12 
REMARK    4  A    between atoms: C_12  and  C_13 
REMARK    5  A    between atoms: C_18  and  C_19 
REMARK    6  A    between atoms: C_29  and  C_30 
ROOT
HETATM    1  C   UNL     1      39.930 -11.402   6.310  1.00  0.00     0.148 C 
HETATM    2  N   UNL     1      41.272 -11.500   6.154  1.00  0.00    -0.165 NA
HETATM    3  N   UNL     1      41.411 -12.598   5.393  1.00  0.00    -0.240 N 
HETATM    4  C   UNL     1      40.234 -13.113   4.936  1.00  0.00     0.123 C 
HETATM    5  N   UNL     1      40.224 -14.116   4.037  1.00  0.00    -0.366 N 
HETATM    6  C   UNL     1      41.373 -14.382   3.166  1.00  0.00     0.118 C 
HETATM    7  C   UNL     1      42.606 -13.501   3.490  1.00  0.00     0.066 C 
HETATM    8  C   UNL     1      42.698 -13.104   4.968  1.00  0.00     0.221 C 
HETATM    9  C   UNL     1      39.248 -12.415   5.578  1.00  0.00     0.088 C 
HETATM   10  H   UNL     1      39.335 -14.460   3.675  1.00  0.00     0.161 HD
ENDROOT
BRANCH   1  11
HETATM   11  C   UNL     1      39.304 -10.345   7.119  1.00  0.00     0.272 C 
HETATM   12  N   UNL     1      39.522 -10.486   8.470  1.00  0.00    -0.355 N 
HETATM   13  H   UNL     1      40.175 -11.218   8.736  1.00  0.00     0.162 HD
HETATM   14  O   UNL     1      38.669  -9.417   6.627  1.00  0.00    -0.266 OA
BRANCH  12  15
HETATM   15  C   UNL     1      39.060  -9.504   9.425  1.00  0.00     0.127 C 
BRANCH  15  16
HETATM   16  C   UNL     1      40.194  -8.699  10.060  1.00  0.00     0.060 C 
BRANCH  16  17
HETATM   17  C   UNL     1      40.400  -9.022  11.509  1.00  0.00    -0.029 A 
HETATM   18  C   UNL     1      41.219  -8.319  12.450  1.00  0.00    -0.002 A 
HETATM   19  C   UNL     1      42.049  -7.180  12.376  1.00  0.00     0.014 A 
HETATM   20  C   UNL     1      41.111  -8.980  13.675  1.00  0.00     0.042 A 
HETATM   21  C   UNL     1      42.733  -6.748  13.520  1.00  0.00     0.001 A 
HETATM   22  C   UNL     1      42.602  -7.431  14.726  1.00  0.00     0.002 A 
HETATM   23  C   UNL     1      41.787  -8.561  14.827  1.00  0.00     0.030 A 
HETATM   24  N   UNL     1      40.260 -10.043  13.488  1.00  0.00    -0.365 N 
HETATM   25  H   UNL     1      39.997 -10.700  14.209  1.00  0.00     0.165 HD
HETATM   26  C   UNL     1      39.830 -10.082  12.189  1.00  0.00     0.096 A 
ENDBRANCH  16  17
ENDBRANCH  15  16
ENDBRANCH  12  15
ENDBRANCH   1  11
BRANCH   8  27
HETATM   27  C   UNL     1      43.131 -14.249   5.854  1.00  0.00     0.409 C 
HETATM   28  F   UNL     1      42.149 -14.654   6.689  1.00  0.00    -0.169 F 
HETATM   29  F   UNL     1      43.573 -15.327   5.176  1.00  0.00    -0.169 F 
HETATM   30  F   UNL     1      44.162 -13.844   6.644  1.00  0.00    -0.169 F 
ENDBRANCH   8  27
BRANCH   6  31
HETATM   31  C   UNL     1      40.927 -14.182   1.723  1.00  0.00    -0.033 A 
HETATM   32  C   UNL     1      41.285 -13.022   1.017  1.00  0.00     0.049 A 
HETATM   33  C   UNL     1      40.869 -12.904  -0.294  1.00  0.00     0.105 A 
HETATM   34  C   UNL     1      40.122 -13.878  -0.914  1.00  0.00     0.105 A 
HETATM   35  O   UNL     1      41.133 -11.854  -1.118  1.00  0.00    -0.323 OA
HETATM   36  O   UNL     1      39.820 -13.564  -2.202  1.00  0.00    -0.323 OA
HETATM   37  C   UNL     1      39.753 -15.032  -0.263  1.00  0.00     0.040 A 
HETATM   38  C   UNL     1      40.474 -12.286  -2.329  1.00  0.00     0.352 A 
HETATM   39  C   UNL     1      40.167 -15.184   1.062  1.00  0.00     0.012 A 
ENDBRANCH   6  31
TORSDOF 6
ENDMDL
