MODEL 1
REMARK VINA RESULT:      -7.9      0.000      0.000
REMARK  5 active torsions:
REMARK  status: ('A' for Active; 'I' for Inactive)
REMARK    1  A    between atoms: C_2  and  O_3 
REMARK    2  A    between atoms: C_4  and  C_5 
REMARK    3  A    between atoms: C_5  and  O_6 
REMARK    4  A    between atoms: C_9  and  C_10 
REMARK    5  A    between atoms: C_22  and  O_23 
ROOT
HETATM    1  C   UNL     1      41.762 -12.205   5.808  1.00  0.00     0.047 C 
HETATM    2  C   UNL     1      41.005 -13.540   5.663  1.00  0.00     0.073 C 
HETATM    3  C   UNL     1      42.028 -14.735   5.700  1.00  0.00     0.133 C 
HETATM    4  C   UNL     1      42.858 -14.949   4.388  1.00  0.00     0.074 C 
HETATM    5  C   UNL     1      42.240 -14.300   3.192  1.00  0.00     0.030 A 
HETATM    6  C   UNL     1      41.011 -13.680   3.200  1.00  0.00     0.042 A 
HETATM    7  N   UNL     1      40.804 -13.180   1.946  1.00  0.00    -0.279 N 
HETATM    8  H   UNL     1      40.007 -12.662   1.590  1.00  0.00     0.189 HD
HETATM    9  N   UNL     1      41.855 -13.392   1.124  1.00  0.00    -0.149 NA
HETATM   10  C   UNL     1      42.704 -14.056   1.898  1.00  0.00     0.190 A 
HETATM   11  C   UNL     1      40.131 -13.520   4.375  1.00  0.00     0.097 C 
ENDROOT
BRANCH   4  12
HETATM   12  C   UNL     1      43.120 -16.395   3.978  1.00  0.00    -0.048 A 
HETATM   13  C   UNL     1      44.108 -17.190   4.596  1.00  0.00     0.009 A 
HETATM   14  C   UNL     1      44.343 -18.501   4.177  1.00  0.00     0.024 A 
HETATM   15  C   UNL     1      43.595 -19.037   3.135  1.00  0.00     0.034 A 
HETATM   16 CL   UNL     1      43.888 -20.650   2.614  1.00  0.00    -0.084 Cl
HETATM   17  C   UNL     1      42.614 -18.272   2.508  1.00  0.00     0.024 A 
HETATM   18  C   UNL     1      42.378 -16.959   2.926  1.00  0.00     0.009 A 
ENDBRANCH   4  12
BRANCH   3  19
HETATM   19  C   UNL     1      41.336 -15.997   6.176  1.00  0.00     0.266 C 
HETATM   20  O   UNL     1      40.275 -16.419   5.733  1.00  0.00    -0.265 OA
BRANCH  19  21
HETATM   21  O   UNL     1      42.038 -16.562   7.200  1.00  0.00    -0.326 OA
HETATM   22  C   UNL     1      42.921 -15.668   7.878  1.00  0.00     0.213 C 
ENDBRANCH  19  21
ENDBRANCH   3  19
BRANCH   2  23
HETATM   23  O   UNL     1      40.134 -13.582   6.807  1.00  0.00    -0.389 OA
HETATM   24  H   UNL     1      39.211 -13.526   6.483  1.00  0.00     0.210 HD
ENDBRANCH   2  23
BRANCH  10  25
HETATM   25  O   UNL     1      43.870 -14.357   1.338  1.00  0.00    -0.343 OA
HETATM   26  H   UNL     1      44.391 -13.539   1.407  1.00  0.00     0.219 HD
ENDBRANCH  10  25
TORSDOF 5
ENDMDL
MODEL 2
REMARK VINA RESULT:      -6.8      3.275      5.019
REMARK  5 active torsions:
REMARK  status: ('A' for Active; 'I' for Inactive)
REMARK    1  A    between atoms: C_2  and  O_3 
REMARK    2  A    between atoms: C_4  and  C_5 
REMARK    3  A    between atoms: C_5  and  O_6 
REMARK    4  A    between atoms: C_9  and  C_10 
REMARK    5  A    between atoms: C_22  and  O_23 
ROOT
HETATM    1  C   UNL     1      44.816 -16.405   6.115  1.00  0.00     0.047 C 
HETATM    2  C   UNL     1      43.282 -16.287   6.017  1.00  0.00     0.073 C 
HETATM    3  C   UNL     1      42.876 -15.857   4.560  1.00  0.00     0.133 C 
HETATM    4  C   UNL     1      43.113 -14.346   4.215  1.00  0.00     0.074 C 
HETATM    5  C   UNL     1      43.250 -13.483   5.428  1.00  0.00     0.030 A 
HETATM    6  C   UNL     1      43.067 -13.931   6.717  1.00  0.00     0.042 A 
HETATM    7  N   UNL     1      43.310 -12.875   7.548  1.00  0.00    -0.279 N 
HETATM    8  H   UNL     1      43.272 -12.840   8.562  1.00  0.00     0.189 HD
HETATM    9  N   UNL     1      43.694 -11.766   6.878  1.00  0.00    -0.149 NA
HETATM   10  C   UNL     1      43.658 -12.161   5.612  1.00  0.00     0.190 A 
HETATM   11  C   UNL     1      42.751 -15.318   7.114  1.00  0.00     0.097 C 
ENDROOT
BRANCH   4  12
HETATM   12  C   UNL     1      42.052 -13.672   3.351  1.00  0.00    -0.048 A 
HETATM   13  C   UNL     1      40.872 -13.124   3.893  1.00  0.00     0.009 A 
HETATM   14  C   UNL     1      39.905 -12.539   3.072  1.00  0.00     0.024 A 
HETATM   15  C   UNL     1      40.104 -12.495   1.697  1.00  0.00     0.034 A 
HETATM   16 CL   UNL     1      38.912 -11.781   0.683  1.00  0.00    -0.084 Cl
HETATM   17  C   UNL     1      41.262 -13.031   1.136  1.00  0.00     0.024 A 
HETATM   18  C   UNL     1      42.229 -13.617   1.958  1.00  0.00     0.009 A 
ENDBRANCH   4  12
BRANCH   3  19
HETATM   19  C   UNL     1      41.465 -16.320   4.255  1.00  0.00     0.266 C 
HETATM   20  O   UNL     1      40.536 -16.291   5.052  1.00  0.00    -0.265 OA
BRANCH  19  21
HETATM   21  O   UNL     1      41.396 -16.818   2.987  1.00  0.00    -0.326 OA
HETATM   22  C   UNL     1      42.553 -17.545   2.572  1.00  0.00     0.213 C 
ENDBRANCH  19  21
ENDBRANCH   3  19
BRANCH   2  23
HETATM   23  O   UNL     1      42.803 -17.613   6.307  1.00  0.00    -0.389 OA
HETATM   24  H   UNL     1      43.099 -18.203   5.582  1.00  0.00     0.210 HD
ENDBRANCH   2  23
BRANCH  10  25
HETATM   25  O   UNL     1      44.046 -11.256   4.721  1.00  0.00    -0.343 OA
HETATM   26  H   UNL     1      43.226 -10.992   4.269  1.00  0.00     0.219 HD
ENDBRANCH  10  25
TORSDOF 5
ENDMDL
MODEL 3
REMARK VINA RESULT:      -6.8      2.662      3.579
REMARK  5 active torsions:
REMARK  status: ('A' for Active; 'I' for Inactive)
REMARK    1  A    between atoms: C_2  and  O_3 
REMARK    2  A    between atoms: C_4  and  C_5 
REMARK    3  A    between atoms: C_5  and  O_6 
REMARK    4  A    between atoms: C_9  and  C_10 
REMARK    5  A    between atoms: C_22  and  O_23 
ROOT
HETATM    1  C   UNL     1      40.563  -9.722   2.089  1.00  0.00     0.047 C 
HETATM    2  C   UNL     1      40.139 -10.949   2.919  1.00  0.00     0.073 C 
HETATM    3  C   UNL     1      41.306 -12.003   2.938  1.00  0.00     0.133 C 
HETATM    4  C   UNL     1      41.485 -12.832   1.619  1.00  0.00     0.074 C 
HETATM    5  C   UNL     1      40.270 -12.816   0.749  1.00  0.00     0.030 A 
HETATM    6  C   UNL     1      39.071 -12.242   1.108  1.00  0.00     0.042 A 
HETATM    7  N   UNL     1      38.219 -12.393   0.052  1.00  0.00    -0.279 N 
HETATM    8  H   UNL     1      37.254 -12.090  -0.037  1.00  0.00     0.189 HD
HETATM    9  N   UNL     1      38.808 -12.992  -1.006  1.00  0.00    -0.149 NA
HETATM   10  C   UNL     1      40.037 -13.225  -0.566  1.00  0.00     0.190 A 
HETATM   11  C   UNL     1      38.800 -11.526   2.371  1.00  0.00     0.097 C 
ENDROOT
BRANCH   4  12
HETATM   12  C   UNL     1      41.849 -14.305   1.786  1.00  0.00    -0.048 A 
HETATM   13  C   UNL     1      40.882 -15.298   2.041  1.00  0.00     0.009 A 
HETATM   14  C   UNL     1      41.250 -16.634   2.219  1.00  0.00     0.024 A 
HETATM   15  C   UNL     1      42.591 -16.994   2.144  1.00  0.00     0.034 A 
HETATM   16 CL   UNL     1      43.048 -18.638   2.368  1.00  0.00    -0.084 Cl
HETATM   17  C   UNL     1      43.566 -16.031   1.894  1.00  0.00     0.024 A 
HETATM   18  C   UNL     1      43.197 -14.694   1.717  1.00  0.00     0.009 A 
ENDBRANCH   4  12
BRANCH   3  19
HETATM   19  C   UNL     1      41.200 -12.874   4.175  1.00  0.00     0.266 C 
HETATM   20  O   UNL     1      40.154 -13.332   4.616  1.00  0.00    -0.265 OA
BRANCH  19  21
HETATM   21  O   UNL     1      42.428 -13.029   4.749  1.00  0.00    -0.326 OA
HETATM   22  C   UNL     1      42.624 -14.286   5.397  1.00  0.00     0.213 C 
ENDBRANCH  19  21
ENDBRANCH   3  19
BRANCH   2  23
HETATM   23  O   UNL     1      39.906 -10.425   4.238  1.00  0.00    -0.389 OA
HETATM   24  H   UNL     1      39.266  -9.688   4.159  1.00  0.00     0.210 HD
ENDBRANCH   2  23
BRANCH  10  25
HETATM   25  O   UNL     1      40.863 -13.779  -1.446  1.00  0.00    -0.343 OA
HETATM   26  H   UNL     1      41.434 -13.048  -1.738  1.00  0.00     0.219 HD
ENDBRANCH  10  25
TORSDOF 5
ENDMDL
MODEL 4
REMARK VINA RESULT:      -6.7     14.688     15.870
REMARK  5 active torsions:
REMARK  status: ('A' for Active; 'I' for Inactive)
REMARK    1  A    between atoms: C_2  and  O_3 
REMARK    2  A    between atoms: C_4  and  C_5 
REMARK    3  A    between atoms: C_5  and  O_6 
REMARK    4  A    between atoms: C_9  and  C_10 
REMARK    5  A    between atoms: C_22  and  O_23 
ROOT
HETATM    1  C   UNL     1      48.867 -29.987  -1.869  1.00  0.00     0.047 C 
HETATM    2  C   UNL     1      48.091 -29.254  -0.757  1.00  0.00     0.073 C 
HETATM    3  C   UNL     1      47.071 -30.244  -0.084  1.00  0.00     0.133 C 
HETATM    4  C   UNL     1      45.781 -30.551  -0.920  1.00  0.00     0.074 C 
HETATM    5  C   UNL     1      45.515 -29.532  -1.981  1.00  0.00     0.030 A 
HETATM    6  C   UNL     1      46.246 -28.377  -2.141  1.00  0.00     0.042 A 
HETATM    7  N   UNL     1      45.734 -27.724  -3.226  1.00  0.00    -0.279 N 
HETATM    8  H   UNL     1      46.027 -26.841  -3.635  1.00  0.00     0.189 HD
HETATM    9  N   UNL     1      44.737 -28.412  -3.822  1.00  0.00    -0.149 NA
HETATM   10  C   UNL     1      44.633 -29.495  -3.063  1.00  0.00     0.190 A 
HETATM   11  C   UNL     1      47.415 -27.975  -1.334  1.00  0.00     0.097 C 
ENDROOT
BRANCH   4  12
HETATM   12  C   UNL     1      44.477 -30.675  -0.137  1.00  0.00    -0.048 A 
HETATM   13  C   UNL     1      43.733 -29.551   0.275  1.00  0.00     0.009 A 
HETATM   14  C   UNL     1      42.558 -29.697   1.017  1.00  0.00     0.024 A 
HETATM   15  C   UNL     1      42.112 -30.970   1.357  1.00  0.00     0.034 A 
HETATM   16 CL   UNL     1      40.668 -31.151   2.275  1.00  0.00    -0.084 Cl
HETATM   17  C   UNL     1      42.830 -32.096   0.962  1.00  0.00     0.024 A 
HETATM   18  C   UNL     1      44.006 -31.950   0.221  1.00  0.00     0.009 A 
ENDBRANCH   4  12
BRANCH   3  19
HETATM   19  C   UNL     1      46.766 -29.794   1.331  1.00  0.00     0.266 C 
HETATM   20  O   UNL     1      46.582 -28.630   1.667  1.00  0.00    -0.265 OA
BRANCH  19  21
HETATM   21  O   UNL     1      46.778 -30.862   2.179  1.00  0.00    -0.326 OA
HETATM   22  C   UNL     1      45.882 -30.750   3.286  1.00  0.00     0.213 C 
ENDBRANCH  19  21
ENDBRANCH   3  19
BRANCH   2  23
HETATM   23  O   UNL     1      49.105 -28.853   0.182  1.00  0.00    -0.389 OA
HETATM   24  H   UNL     1      49.503 -28.021  -0.146  1.00  0.00     0.210 HD
ENDBRANCH   2  23
BRANCH  10  25
HETATM   25  O   UNL     1      43.734 -30.388  -3.462  1.00  0.00    -0.343 OA
HETATM   26  H   UNL     1      42.894 -29.900  -3.473  1.00  0.00     0.219 HD
ENDBRANCH  10  25
TORSDOF 5
ENDMDL
MODEL 5
REMARK VINA RESULT:      -6.6      2.851      4.356
REMARK  5 active torsions:
REMARK  status: ('A' for Active; 'I' for Inactive)
REMARK    1  A    between atoms: C_2  and  O_3 
REMARK    2  A    between atoms: C_4  and  C_5 
REMARK    3  A    between atoms: C_5  and  O_6 
REMARK    4  A    between atoms: C_9  and  C_10 
REMARK    5  A    between atoms: C_22  and  O_23 
ROOT
HETATM    1  C   UNL     1      41.460 -10.565   3.879  1.00  0.00     0.047 C 
HETATM    2  C   UNL     1      42.285 -11.723   3.285  1.00  0.00     0.073 C 
HETATM    3  C   UNL     1      41.757 -13.093   3.847  1.00  0.00     0.133 C 
HETATM    4  C   UNL     1      42.175 -13.420   5.322  1.00  0.00     0.074 C 
HETATM    5  C   UNL     1      43.351 -12.624   5.787  1.00  0.00     0.030 A 
HETATM    6  C   UNL     1      44.078 -11.779   4.979  1.00  0.00     0.042 A 
HETATM    7  N   UNL     1      45.042 -11.207   5.759  1.00  0.00    -0.279 N 
HETATM    8  H   UNL     1      45.756 -10.533   5.499  1.00  0.00     0.189 HD
HETATM    9  N   UNL     1      44.958 -11.591   7.051  1.00  0.00    -0.149 NA
HETATM   10  C   UNL     1      43.932 -12.431   7.042  1.00  0.00     0.190 A 
HETATM   11  C   UNL     1      43.801 -11.491   3.558  1.00  0.00     0.097 C 
ENDROOT
BRANCH   4  12
HETATM   12  C   UNL     1      42.521 -14.875   5.624  1.00  0.00    -0.048 A 
HETATM   13  C   UNL     1      43.793 -15.421   5.354  1.00  0.00     0.009 A 
HETATM   14  C   UNL     1      44.070 -16.765   5.614  1.00  0.00     0.024 A 
HETATM   15  C   UNL     1      43.078 -17.583   6.147  1.00  0.00     0.034 A 
HETATM   16 CL   UNL     1      43.416 -19.240   6.462  1.00  0.00    -0.084 Cl
HETATM   17  C   UNL     1      41.814 -17.067   6.420  1.00  0.00     0.024 A 
HETATM   18  C   UNL     1      41.536 -15.722   6.159  1.00  0.00     0.009 A 
ENDBRANCH   4  12
BRANCH   3  19
HETATM   19  C   UNL     1      42.080 -14.213   2.878  1.00  0.00     0.266 C 
HETATM   20  O   UNL     1      43.154 -14.350   2.305  1.00  0.00    -0.265 OA
BRANCH  19  21
HETATM   21  O   UNL     1      40.988 -15.012   2.699  1.00  0.00    -0.326 OA
HETATM   22  C   UNL     1      41.292 -16.393   2.499  1.00  0.00     0.213 C 
ENDBRANCH  19  21
ENDBRANCH   3  19
BRANCH   2  23
HETATM   23  O   UNL     1      42.057 -11.634   1.867  1.00  0.00    -0.389 OA
HETATM   24  H   UNL     1      41.121 -11.874   1.699  1.00  0.00     0.210 HD
ENDBRANCH   2  23
BRANCH  10  25
HETATM   25  O   UNL     1      43.594 -12.933   8.225  1.00  0.00    -0.343 OA
HETATM   26  H   UNL     1      43.245 -12.174   8.721  1.00  0.00     0.219 HD
ENDBRANCH  10  25
TORSDOF 5
ENDMDL
MODEL 6
REMARK VINA RESULT:      -6.6      3.459      6.021
REMARK  5 active torsions:
REMARK  status: ('A' for Active; 'I' for Inactive)
REMARK    1  A    between atoms: C_2  and  O_3 
REMARK    2  A    between atoms: C_4  and  C_5 
REMARK    3  A    between atoms: C_5  and  O_6 
REMARK    4  A    between atoms: C_9  and  C_10 
REMARK    5  A    between atoms: C_22  and  O_23 
ROOT
HETATM    1  C   UNL     1      42.832 -17.074   2.687  1.00  0.00     0.047 C 
HETATM    2  C   UNL     1      42.252 -15.647   2.640  1.00  0.00     0.073 C 
HETATM    3  C   UNL     1      43.195 -14.665   3.427  1.00  0.00     0.133 C 
HETATM    4  C   UNL     1      43.108 -14.756   4.989  1.00  0.00     0.074 C 
HETATM    5  C   UNL     1      41.851 -15.410   5.467  1.00  0.00     0.030 A 
HETATM    6  C   UNL     1      40.816 -15.788   4.642  1.00  0.00     0.042 A 
HETATM    7  N   UNL     1      39.869 -16.379   5.429  1.00  0.00    -0.279 N 
HETATM    8  H   UNL     1      38.975 -16.777   5.159  1.00  0.00     0.189 HD
HETATM    9  N   UNL     1      40.247 -16.457   6.723  1.00  0.00    -0.149 NA
HETATM   10  C   UNL     1      41.441 -15.879   6.717  1.00  0.00     0.190 A 
HETATM   11  C   UNL     1      40.788 -15.650   3.172  1.00  0.00     0.097 C 
ENDROOT
BRANCH   4  12
HETATM   12  C   UNL     1      43.198 -13.438   5.753  1.00  0.00    -0.048 A 
HETATM   13  C   UNL     1      42.126 -12.524   5.814  1.00  0.00     0.009 A 
HETATM   14  C   UNL     1      42.250 -11.312   6.497  1.00  0.00     0.024 A 
HETATM   15  C   UNL     1      43.449 -10.997   7.127  1.00  0.00     0.034 A 
HETATM   16 CL   UNL     1      43.606  -9.502   7.964  1.00  0.00    -0.084 Cl
HETATM   17  C   UNL     1      44.523 -11.882   7.080  1.00  0.00     0.024 A 
HETATM   18  C   UNL     1      44.399 -13.095   6.396  1.00  0.00     0.009 A 
ENDBRANCH   4  12
BRANCH   3  19
HETATM   19  C   UNL     1      43.027 -13.252   2.905  1.00  0.00     0.266 C 
HETATM   20  O   UNL     1      43.925 -12.422   2.839  1.00  0.00    -0.265 OA
BRANCH  19  21
HETATM   21  O   UNL     1      41.724 -13.024   2.571  1.00  0.00    -0.326 OA
HETATM   22  C   UNL     1      41.491 -11.784   1.902  1.00  0.00     0.213 C 
ENDBRANCH  19  21
ENDBRANCH   3  19
BRANCH   2  23
HETATM   23  O   UNL     1      42.229 -15.317   1.239  1.00  0.00    -0.389 OA
HETATM   24  H   UNL     1      41.300 -15.131   0.991  1.00  0.00     0.210 HD
ENDBRANCH   2  23
BRANCH  10  25
HETATM   25  O   UNL     1      42.074 -15.864   7.884  1.00  0.00    -0.343 OA
HETATM   26  H   UNL     1      41.541 -15.272   8.442  1.00  0.00     0.219 HD
ENDBRANCH  10  25
TORSDOF 5
ENDMDL
MODEL 7
REMARK VINA RESULT:      -6.5     14.424     16.040
REMARK  5 active torsions:
REMARK  status: ('A' for Active; 'I' for Inactive)
REMARK    1  A    between atoms: C_2  and  O_3 
REMARK    2  A    between atoms: C_4  and  C_5 
REMARK    3  A    between atoms: C_5  and  O_6 
REMARK    4  A    between atoms: C_9  and  C_10 
REMARK    5  A    between atoms: C_22  and  O_23 
ROOT
HETATM    1  C   UNL     1      47.887 -28.113   2.494  1.00  0.00     0.047 C 
HETATM    2  C   UNL     1      47.998 -29.254   1.463  1.00  0.00     0.073 C 
HETATM    3  C   UNL     1      47.486 -28.754   0.063  1.00  0.00     0.133 C 
HETATM    4  C   UNL     1      45.929 -28.641  -0.082  1.00  0.00     0.074 C 
HETATM    5  C   UNL     1      45.187 -29.439   0.941  1.00  0.00     0.030 A 
HETATM    6  C   UNL     1      45.789 -30.285   1.845  1.00  0.00     0.042 A 
HETATM    7  N   UNL     1      44.800 -30.803   2.632  1.00  0.00    -0.279 N 
HETATM    8  H   UNL     1      44.878 -31.459   3.403  1.00  0.00     0.189 HD
HETATM    9  N   UNL     1      43.582 -30.304   2.329  1.00  0.00    -0.149 NA
HETATM   10  C   UNL     1      43.844 -29.482   1.321  1.00  0.00     0.190 A 
HETATM   11  C   UNL     1      47.242 -30.513   1.980  1.00  0.00     0.097 C 
ENDROOT
BRANCH   4  12
HETATM   12  C   UNL     1      45.340 -29.053  -1.428  1.00  0.00    -0.048 A 
HETATM   13  C   UNL     1      44.858 -30.355  -1.675  1.00  0.00     0.009 A 
HETATM   14  C   UNL     1      44.352 -30.710  -2.928  1.00  0.00     0.024 A 
HETATM   15  C   UNL     1      44.321 -29.768  -3.950  1.00  0.00     0.034 A 
HETATM   16 CL   UNL     1      43.703 -30.205  -5.495  1.00  0.00    -0.084 Cl
HETATM   17  C   UNL     1      44.792 -28.475  -3.731  1.00  0.00     0.024 A 
HETATM   18  C   UNL     1      45.300 -28.120  -2.478  1.00  0.00     0.009 A 
ENDBRANCH   4  12
BRANCH   3  19
HETATM   19  C   UNL     1      48.126 -29.566  -1.046  1.00  0.00     0.266 C 
HETATM   20  O   UNL     1      48.594 -29.092  -2.074  1.00  0.00    -0.265 OA
BRANCH  19  21
HETATM   21  O   UNL     1      48.060 -30.897  -0.754  1.00  0.00    -0.326 OA
HETATM   22  C   UNL     1      48.430 -31.758  -1.832  1.00  0.00     0.213 C 
ENDBRANCH  19  21
ENDBRANCH   3  19
BRANCH   2  23
HETATM   23  O   UNL     1      49.405 -29.553   1.412  1.00  0.00    -0.389 OA
HETATM   24  H   UNL     1      49.557 -30.141   0.643  1.00  0.00     0.210 HD
ENDBRANCH   2  23
BRANCH  10  25
HETATM   25  O   UNL     1      42.802 -28.807   0.850  1.00  0.00    -0.343 OA
HETATM   26  H   UNL     1      42.447 -28.336   1.622  1.00  0.00     0.219 HD
ENDBRANCH  10  25
TORSDOF 5
ENDMDL
MODEL 8
REMARK VINA RESULT:      -6.5      3.243      4.638
REMARK  5 active torsions:
REMARK  status: ('A' for Active; 'I' for Inactive)
REMARK    1  A    between atoms: C_2  and  O_3 
REMARK    2  A    between atoms: C_4  and  C_5 
REMARK    3  A    between atoms: C_5  and  O_6 
REMARK    4  A    between atoms: C_9  and  C_10 
REMARK    5  A    between atoms: C_22  and  O_23 
ROOT
HETATM    1  C   UNL     1      42.863 -17.338   7.280  1.00  0.00     0.047 C 
HETATM    2  C   UNL     1      43.277 -16.135   6.411  1.00  0.00     0.073 C 
HETATM    3  C   UNL     1      42.094 -15.741   5.454  1.00  0.00     0.133 C 
HETATM    4  C   UNL     1      41.884 -16.686   4.220  1.00  0.00     0.074 C 
HETATM    5  C   UNL     1      43.088 -17.515   3.907  1.00  0.00     0.030 A 
HETATM    6  C   UNL     1      44.300 -17.387   4.547  1.00  0.00     0.042 A 
HETATM    7  N   UNL     1      45.135 -18.330   4.020  1.00  0.00    -0.279 N 
HETATM    8  H   UNL     1      46.104 -18.525   4.253  1.00  0.00     0.189 HD
HETATM    9  N   UNL     1      44.523 -19.108   3.101  1.00  0.00    -0.149 NA
HETATM   10  C   UNL     1      43.296 -18.605   3.060  1.00  0.00     0.190 A 
HETATM   11  C   UNL     1      44.599 -16.456   5.654  1.00  0.00     0.097 C 
ENDROOT
BRANCH   4  12
HETATM   12  C   UNL     1      41.498 -16.013   2.906  1.00  0.00    -0.048 A 
HETATM   13  C   UNL     1      42.458 -15.544   1.986  1.00  0.00     0.009 A 
HETATM   14  C   UNL     1      42.073 -14.906   0.806  1.00  0.00     0.024 A 
HETATM   15  C   UNL     1      40.723 -14.726   0.528  1.00  0.00     0.034 A 
HETATM   16 CL   UNL     1      40.247 -13.934  -0.923  1.00  0.00    -0.084 Cl
HETATM   17  C   UNL     1      39.755 -15.179   1.422  1.00  0.00     0.024 A 
HETATM   18  C   UNL     1      40.140 -15.817   2.605  1.00  0.00     0.009 A 
ENDBRANCH   4  12
BRANCH   3  19
HETATM   19  C   UNL     1      42.201 -14.279   5.068  1.00  0.00     0.266 C 
HETATM   20  O   UNL     1      43.234 -13.728   4.708  1.00  0.00    -0.265 OA
BRANCH  19  21
HETATM   21  O   UNL     1      40.997 -13.658   5.229  1.00  0.00    -0.326 OA
HETATM   22  C   UNL     1      40.199 -14.180   6.291  1.00  0.00     0.213 C 
ENDBRANCH  19  21
ENDBRANCH   3  19
BRANCH   2  23
HETATM   23  O   UNL     1      43.536 -15.083   7.358  1.00  0.00    -0.389 OA
HETATM   24  H   UNL     1      44.483 -14.842   7.287  1.00  0.00     0.210 HD
ENDBRANCH   2  23
BRANCH  10  25
HETATM   25  O   UNL     1      42.449 -19.231   2.251  1.00  0.00    -0.343 OA
HETATM   26  H   UNL     1      41.589 -19.165   2.699  1.00  0.00     0.219 HD
ENDBRANCH  10  25
TORSDOF 5
ENDMDL
MODEL 9
REMARK VINA RESULT:      -6.4      3.046      5.329
REMARK  5 active torsions:
REMARK  status: ('A' for Active; 'I' for Inactive)
REMARK    1  A    between atoms: C_2  and  O_3 
REMARK    2  A    between atoms: C_4  and  C_5 
REMARK    3  A    between atoms: C_5  and  O_6 
REMARK    4  A    between atoms: C_9  and  C_10 
REMARK    5  A    between atoms: C_22  and  O_23 
ROOT
HETATM    1  C   UNL     1      37.474 -11.205   1.440  1.00  0.00     0.047 C 
HETATM    2  C   UNL     1      38.990 -11.358   1.211  1.00  0.00     0.073 C 
HETATM    3  C   UNL     1      39.390 -12.876   1.310  1.00  0.00     0.133 C 
HETATM    4  C   UNL     1      39.449 -13.462   2.762  1.00  0.00     0.074 C 
HETATM    5  C   UNL     1      39.565 -12.407   3.815  1.00  0.00     0.030 A 
HETATM    6  C   UNL     1      39.727 -11.066   3.548  1.00  0.00     0.042 A 
HETATM    7  N   UNL     1      39.756 -10.417   4.748  1.00  0.00    -0.279 N 
HETATM    8  H   UNL     1      39.860  -9.423   4.934  1.00  0.00     0.189 HD
HETATM    9  N   UNL     1      39.570 -11.252   5.793  1.00  0.00    -0.149 NA
HETATM   10  C   UNL     1      39.449 -12.435   5.206  1.00  0.00     0.190 A 
HETATM   11  C   UNL     1      39.773 -10.451   2.206  1.00  0.00     0.097 C 
ENDROOT
BRANCH   4  12
HETATM   12  C   UNL     1      40.574 -14.452   3.051  1.00  0.00    -0.048 A 
HETATM   13  C   UNL     1      40.437 -15.838   2.832  1.00  0.00     0.009 A 
HETATM   14  C   UNL     1      41.475 -16.721   3.134  1.00  0.00     0.024 A 
HETATM   15  C   UNL     1      42.665 -16.232   3.661  1.00  0.00     0.034 A 
HETATM   16 CL   UNL     1      43.943 -17.319   4.039  1.00  0.00    -0.084 Cl
HETATM   17  C   UNL     1      42.825 -14.867   3.888  1.00  0.00     0.024 A 
HETATM   18  C   UNL     1      41.785 -13.982   3.586  1.00  0.00     0.009 A 
ENDBRANCH   4  12
BRANCH   3  19
HETATM   19  C   UNL     1      40.655 -13.134   0.515  1.00  0.00     0.266 C 
HETATM   20  O   UNL     1      41.638 -12.404   0.515  1.00  0.00    -0.265 OA
BRANCH  19  21
HETATM   21  O   UNL     1      40.518 -14.265  -0.235  1.00  0.00    -0.326 OA
HETATM   22  C   UNL     1      39.480 -14.205  -1.213  1.00  0.00     0.213 C 
ENDBRANCH  19  21
ENDBRANCH   3  19
BRANCH   2  23
HETATM   23  O   UNL     1      39.202 -10.864  -0.124  1.00  0.00    -0.389 OA
HETATM   24  H   UNL     1      39.145 -11.625  -0.738  1.00  0.00     0.210 HD
ENDBRANCH   2  23
BRANCH  10  25
HETATM   25  O   UNL     1      39.205 -13.455   6.021  1.00  0.00    -0.343 OA
HETATM   26  H   UNL     1      38.623 -14.042   5.509  1.00  0.00     0.219 HD
ENDBRANCH  10  25
TORSDOF 5
ENDMDL
MODEL 10
REMARK VINA RESULT:      -6.3      2.628      3.793
REMARK  5 active torsions:
REMARK  status: ('A' for Active; 'I' for Inactive)
REMARK    1  A    between atoms: C_2  and  O_3 
REMARK    2  A    between atoms: C_4  and  C_5 
REMARK    3  A    between atoms: C_5  and  O_6 
REMARK    4  A    between atoms: C_9  and  C_10 
REMARK    5  A    between atoms: C_22  and  O_23 
ROOT
HETATM    1  C   UNL     1      39.089 -11.235   3.917  1.00  0.00     0.047 C 
HETATM    2  C   UNL     1      39.632 -12.162   2.812  1.00  0.00     0.073 C 
HETATM    3  C   UNL     1      39.893 -13.595   3.405  1.00  0.00     0.133 C 
HETATM    4  C   UNL     1      41.178 -13.733   4.291  1.00  0.00     0.074 C 
HETATM    5  C   UNL     1      42.167 -12.636   4.061  1.00  0.00     0.030 A 
HETATM    6  C   UNL     1      42.034 -11.667   3.092  1.00  0.00     0.042 A 
HETATM    7  N   UNL     1      43.103 -10.827   3.212  1.00  0.00    -0.279 N 
HETATM    8  H   UNL     1      43.330 -10.002   2.665  1.00  0.00     0.189 HD
HETATM    9  N   UNL     1      43.910 -11.159   4.243  1.00  0.00    -0.149 NA
HETATM   10  C   UNL     1      43.321 -12.239   4.740  1.00  0.00     0.190 A 
HETATM   11  C   UNL     1      40.897 -11.528   2.160  1.00  0.00     0.097 C 
ENDROOT
BRANCH   4  12
HETATM   12  C   UNL     1      41.968 -15.031   4.146  1.00  0.00    -0.048 A 
HETATM   13  C   UNL     1      41.932 -16.051   5.119  1.00  0.00     0.009 A 
HETATM   14  C   UNL     1      42.689 -17.214   4.972  1.00  0.00     0.024 A 
HETATM   15  C   UNL     1      43.495 -17.374   3.850  1.00  0.00     0.034 A 
HETATM   16 CL   UNL     1      44.434 -18.805   3.669  1.00  0.00    -0.084 Cl
HETATM   17  C   UNL     1      43.550 -16.381   2.875  1.00  0.00     0.024 A 
HETATM   18  C   UNL     1      42.792 -15.215   3.023  1.00  0.00     0.009 A 
ENDBRANCH   4  12
BRANCH   3  19
HETATM   19  C   UNL     1      39.818 -14.635   2.304  1.00  0.00     0.266 C 
HETATM   20  O   UNL     1      39.384 -15.771   2.447  1.00  0.00    -0.265 OA
BRANCH  19  21
HETATM   21  O   UNL     1      40.351 -14.139   1.149  1.00  0.00    -0.326 OA
HETATM   22  C   UNL     1      39.959 -14.839  -0.032  1.00  0.00     0.213 C 
ENDBRANCH  19  21
ENDBRANCH   3  19
BRANCH   2  23
HETATM   23  O   UNL     1      38.581 -12.202   1.830  1.00  0.00    -0.389 OA
HETATM   24  H   UNL     1      39.000 -12.225   0.945  1.00  0.00     0.210 HD
ENDBRANCH   2  23
BRANCH  10  25
HETATM   25  O   UNL     1      43.896 -12.757   5.820  1.00  0.00    -0.343 OA
HETATM   26  H   UNL     1      44.459 -13.471   5.477  1.00  0.00     0.219 HD
ENDBRANCH  10  25
TORSDOF 5
ENDMDL
