MODEL 1
REMARK VINA RESULT:      -8.9      0.000      0.000
REMARK  9 active torsions:
REMARK  status: ('A' for Active; 'I' for Inactive)
REMARK       I    between atoms: C_2  and  N_3 
REMARK    1  A    between atoms: N_3  and  C_4 
REMARK    2  A    between atoms: C_6  and  O_7 
REMARK    3  A    between atoms: O_7  and  C_8 
REMARK    4  A    between atoms: C_8  and  C_9 
REMARK    5  A    between atoms: C_9  and  C_10 
REMARK    6  A    between atoms: C_10  and  C_11 
REMARK    7  A    between atoms: C_11  and  N_12 
REMARK       I    between atoms: N_12  and  C_13 
REMARK    8  A    between atoms: C_13  and  C_14 
REMARK    9  A    between atoms: C_18  and  C_19 
ROOT
HETATM    1  N   UNL     1      43.519 -11.334   8.292  1.00  0.00    -0.345 N 
HETATM    2  C   UNL     1      44.424 -10.818   9.183  1.00  0.00     0.270 C 
HETATM    3  O   UNL     1      45.623 -10.746   8.944  1.00  0.00    -0.266 OA
HETATM    4  H   UNL     1      42.560 -11.470   8.570  1.00  0.00     0.163 HD
ENDROOT
BRANCH   1   5
HETATM    5  C   UNL     1      43.930 -11.861   7.017  1.00  0.00     0.217 C 
BRANCH   5   6
HETATM    6  C   UNL     1      42.850 -12.813   6.530  1.00  0.00    -0.085 C 
BRANCH   6   7
HETATM    7  C   UNL     1      41.922 -13.630   6.113  1.00  0.00    -0.078 C 
BRANCH   7   8
HETATM    8  C   UNL     1      40.841 -14.509   5.644  1.00  0.00     0.269 C 
BRANCH   8   9
HETATM    9  O   UNL     1      40.666 -14.329   4.240  1.00  0.00    -0.339 OA
BRANCH   9  10
HETATM   10  C   UNL     1      41.552 -14.976   3.420  1.00  0.00     0.072 A 
HETATM   11  C   UNL     1      41.694 -16.363   3.295  1.00  0.00     0.066 A 
HETATM   12  C   UNL     1      42.637 -16.908   2.417  1.00  0.00     0.037 A 
HETATM   13  C   UNL     1      43.445 -16.046   1.665  1.00  0.00     0.029 A 
HETATM   14  C   UNL     1      43.311 -14.662   1.787  1.00  0.00     0.005 A 
HETATM   15  C   UNL     1      42.366 -14.133   2.664  1.00  0.00     0.037 A 
BRANCH  12  16
HETATM   16  N   UNL     1      42.834 -18.294   2.235  1.00  0.00    -0.327 N 
HETATM   17  C   UNL     1      43.752 -19.108   2.876  1.00  0.00     0.218 C 
HETATM   18  C   UNL     1      43.666 -20.545   2.424  1.00  0.00     0.117 C 
HETATM   19  O   UNL     1      44.554 -18.775   3.742  1.00  0.00    -0.274 OA
HETATM   20  H   UNL     1      42.221 -18.741   1.565  1.00  0.00     0.169 HD
ENDBRANCH  12  16
ENDBRANCH   9  10
ENDBRANCH   8   9
ENDBRANCH   7   8
ENDBRANCH   6   7
ENDBRANCH   5   6
ENDBRANCH   1   5
BRANCH   2  21
HETATM   21  C   UNL     1      43.861 -10.369  10.428  1.00  0.00     0.120 A 
HETATM   22  N   UNL     1      43.401 -11.247  11.368  1.00  0.00    -0.272 N 
HETATM   23  H   UNL     1      43.406 -12.261  11.306  1.00  0.00     0.189 HD
HETATM   24  N   UNL     1      42.899 -10.666  12.467  1.00  0.00    -0.174 NA
HETATM   25  C   UNL     1      43.045  -9.348  12.255  1.00  0.00     0.089 A 
HETATM   26  C   UNL     1      43.646  -9.122  10.984  1.00  0.00     0.071 A 
BRANCH  25  27
HETATM   27  C   UNL     1      42.608  -8.354  13.244  1.00  0.00    -0.003 A 
HETATM   28  C   UNL     1      42.026  -8.771  14.454  1.00  0.00     0.053 A 
HETATM   29  C   UNL     1      41.615  -7.808  15.353  1.00  0.00     0.106 A 
HETATM   30  C   UNL     1      41.762  -6.466  15.097  1.00  0.00     0.105 A 
HETATM   31  O   UNL     1      41.031  -8.044  16.559  1.00  0.00    -0.323 OA
HETATM   32  O   UNL     1      41.291  -5.689  16.107  1.00  0.00    -0.323 OA
HETATM   33  C   UNL     1      42.332  -6.012  13.929  1.00  0.00     0.040 A 
HETATM   34  C   UNL     1      40.829  -6.696  17.030  1.00  0.00     0.352 A 
HETATM   35  C   UNL     1      42.758  -6.967  12.996  1.00  0.00     0.017 A 
ENDBRANCH  25  27
ENDBRANCH   2  21
TORSDOF 9
ENDMDL
MODEL 2
REMARK VINA RESULT:      -8.8      1.465      2.536
REMARK  9 active torsions:
REMARK  status: ('A' for Active; 'I' for Inactive)
REMARK       I    between atoms: C_2  and  N_3 
REMARK    1  A    between atoms: N_3  and  C_4 
REMARK    2  A    between atoms: C_6  and  O_7 
REMARK    3  A    between atoms: O_7  and  C_8 
REMARK    4  A    between atoms: C_8  and  C_9 
REMARK    5  A    between atoms: C_9  and  C_10 
REMARK    6  A    between atoms: C_10  and  C_11 
REMARK    7  A    between atoms: C_11  and  N_12 
REMARK       I    between atoms: N_12  and  C_13 
REMARK    8  A    between atoms: C_13  and  C_14 
REMARK    9  A    between atoms: C_18  and  C_19 
ROOT
HETATM    1  N   UNL     1      43.474 -11.225   8.140  1.00  0.00    -0.345 N 
HETATM    2  C   UNL     1      44.409 -10.828   9.059  1.00  0.00     0.270 C 
HETATM    3  O   UNL     1      45.614 -10.858   8.834  1.00  0.00    -0.266 OA
HETATM    4  H   UNL     1      42.502 -11.283   8.404  1.00  0.00     0.163 HD
ENDROOT
BRANCH   1   5
HETATM    5  C   UNL     1      43.850 -11.740   6.850  1.00  0.00     0.217 C 
BRANCH   5   6
HETATM    6  C   UNL     1      43.717 -13.253   6.889  1.00  0.00    -0.085 C 
BRANCH   6   7
HETATM    7  C   UNL     1      43.604 -14.552   6.922  1.00  0.00    -0.078 C 
BRANCH   7   8
HETATM    8  C   UNL     1      43.458 -16.015   6.908  1.00  0.00     0.269 C 
BRANCH   8   9
HETATM    9  O   UNL     1      44.380 -16.569   5.970  1.00  0.00    -0.339 OA
BRANCH   9  10
HETATM   10  C   UNL     1      43.858 -17.023   4.788  1.00  0.00     0.072 A 
HETATM   11  C   UNL     1      42.835 -16.414   4.053  1.00  0.00     0.066 A 
HETATM   12  C   UNL     1      42.387 -16.973   2.851  1.00  0.00     0.037 A 
HETATM   13  C   UNL     1      42.973 -18.159   2.393  1.00  0.00     0.029 A 
HETATM   14  C   UNL     1      43.992 -18.774   3.122  1.00  0.00     0.005 A 
HETATM   15  C   UNL     1      44.430 -18.205   4.316  1.00  0.00     0.037 A 
BRANCH  12  16
HETATM   16  N   UNL     1      41.364 -16.413   2.055  1.00  0.00    -0.327 N 
HETATM   17  C   UNL     1      41.383 -15.203   1.384  1.00  0.00     0.218 C 
HETATM   18  C   UNL     1      40.104 -14.941   0.628  1.00  0.00     0.117 C 
HETATM   19  O   UNL     1      42.307 -14.398   1.341  1.00  0.00    -0.274 OA
HETATM   20  H   UNL     1      40.527 -16.974   1.958  1.00  0.00     0.169 HD
ENDBRANCH  12  16
ENDBRANCH   9  10
ENDBRANCH   8   9
ENDBRANCH   7   8
ENDBRANCH   6   7
ENDBRANCH   5   6
ENDBRANCH   1   5
BRANCH   2  21
HETATM   21  C   UNL     1      43.874 -10.376  10.315  1.00  0.00     0.120 A 
HETATM   22  N   UNL     1      43.486 -11.252  11.289  1.00  0.00    -0.272 N 
HETATM   23  H   UNL     1      43.530 -12.266  11.247  1.00  0.00     0.189 HD
HETATM   24  N   UNL     1      43.001 -10.668  12.394  1.00  0.00    -0.174 NA
HETATM   25  C   UNL     1      43.084  -9.351  12.151  1.00  0.00     0.089 A 
HETATM   26  C   UNL     1      43.628  -9.128  10.855  1.00  0.00     0.071 A 
BRANCH  25  27
HETATM   27  C   UNL     1      42.643  -8.355  13.136  1.00  0.00    -0.003 A 
HETATM   28  C   UNL     1      42.019  -8.767  14.326  1.00  0.00     0.053 A 
HETATM   29  C   UNL     1      41.605  -7.802  15.221  1.00  0.00     0.106 A 
HETATM   30  C   UNL     1      41.789  -6.462  14.980  1.00  0.00     0.105 A 
HETATM   31  O   UNL     1      40.982  -8.034  16.409  1.00  0.00    -0.323 OA
HETATM   32  O   UNL     1      41.308  -5.682  15.984  1.00  0.00    -0.323 OA
HETATM   33  C   UNL     1      42.401  -6.012  13.833  1.00  0.00     0.040 A 
HETATM   34  C   UNL     1      40.798  -6.685  16.886  1.00  0.00     0.352 A 
HETATM   35  C   UNL     1      42.831  -6.970  12.904  1.00  0.00     0.017 A 
ENDBRANCH  25  27
ENDBRANCH   2  21
TORSDOF 9
ENDMDL
MODEL 3
REMARK VINA RESULT:      -8.2      3.192     11.658
REMARK  9 active torsions:
REMARK  status: ('A' for Active; 'I' for Inactive)
REMARK       I    between atoms: C_2  and  N_3 
REMARK    1  A    between atoms: N_3  and  C_4 
REMARK    2  A    between atoms: C_6  and  O_7 
REMARK    3  A    between atoms: O_7  and  C_8 
REMARK    4  A    between atoms: C_8  and  C_9 
REMARK    5  A    between atoms: C_9  and  C_10 
REMARK    6  A    between atoms: C_10  and  C_11 
REMARK    7  A    between atoms: C_11  and  N_12 
REMARK       I    between atoms: N_12  and  C_13 
REMARK    8  A    between atoms: C_13  and  C_14 
REMARK    9  A    between atoms: C_18  and  C_19 
ROOT
HETATM    1  N   UNL     1      41.578 -10.907   4.320  1.00  0.00    -0.345 N 
HETATM    2  C   UNL     1      42.467 -11.607   3.547  1.00  0.00     0.270 C 
HETATM    3  O   UNL     1      43.056 -11.106   2.596  1.00  0.00    -0.266 OA
HETATM    4  H   UNL     1      41.039 -11.386   5.025  1.00  0.00     0.163 HD
ENDROOT
BRANCH   1   5
HETATM    5  C   UNL     1      41.249  -9.534   4.041  1.00  0.00     0.217 C 
BRANCH   5   6
HETATM    6  C   UNL     1      41.551  -8.714   5.285  1.00  0.00    -0.085 C 
BRANCH   6   7
HETATM    7  C   UNL     1      41.809  -8.010   6.352  1.00  0.00    -0.078 C 
BRANCH   7   8
HETATM    8  C   UNL     1      42.143  -7.249   7.565  1.00  0.00     0.269 C 
BRANCH   8   9
HETATM    9  O   UNL     1      43.465  -7.588   7.982  1.00  0.00    -0.339 OA
BRANCH   9  10
HETATM   10  C   UNL     1      43.575  -8.478   9.017  1.00  0.00     0.072 A 
HETATM   11  C   UNL     1      42.534  -8.902   9.851  1.00  0.00     0.066 A 
HETATM   12  C   UNL     1      42.771  -9.823  10.877  1.00  0.00     0.037 A 
HETATM   13  C   UNL     1      44.068 -10.314  11.065  1.00  0.00     0.029 A 
HETATM   14  C   UNL     1      45.112  -9.894  10.239  1.00  0.00     0.005 A 
HETATM   15  C   UNL     1      44.862  -8.978   9.219  1.00  0.00     0.037 A 
BRANCH  12  16
HETATM   16  N   UNL     1      41.771 -10.299  11.754  1.00  0.00    -0.327 N 
HETATM   17  C   UNL     1      40.479  -9.826  11.897  1.00  0.00     0.218 C 
HETATM   18  C   UNL     1      39.694 -10.591  12.935  1.00  0.00     0.117 C 
HETATM   19  O   UNL     1      39.954  -8.913  11.268  1.00  0.00    -0.274 OA
HETATM   20  H   UNL     1      42.034 -11.086  12.333  1.00  0.00     0.169 HD
ENDBRANCH  12  16
ENDBRANCH   9  10
ENDBRANCH   8   9
ENDBRANCH   7   8
ENDBRANCH   6   7
ENDBRANCH   5   6
ENDBRANCH   1   5
BRANCH   2  21
HETATM   21  C   UNL     1      42.657 -12.980   3.931  1.00  0.00     0.120 A 
HETATM   22  N   UNL     1      42.643 -13.368   5.241  1.00  0.00    -0.272 N 
HETATM   23  H   UNL     1      42.501 -12.771   6.050  1.00  0.00     0.189 HD
HETATM   24  N   UNL     1      42.844 -14.680   5.430  1.00  0.00    -0.174 NA
HETATM   25  C   UNL     1      42.982 -15.187   4.195  1.00  0.00     0.089 A 
HETATM   26  C   UNL     1      42.870 -14.149   3.227  1.00  0.00     0.071 A 
BRANCH  25  27
HETATM   27  C   UNL     1      43.222 -16.618   3.969  1.00  0.00    -0.003 A 
HETATM   28  C   UNL     1      43.564 -17.454   5.047  1.00  0.00     0.053 A 
HETATM   29  C   UNL     1      43.796 -18.791   4.795  1.00  0.00     0.106 A 
HETATM   30  C   UNL     1      43.699 -19.318   3.530  1.00  0.00     0.105 A 
HETATM   31  O   UNL     1      44.140 -19.727   5.721  1.00  0.00    -0.323 OA
HETATM   32  O   UNL     1      43.969 -20.650   3.499  1.00  0.00    -0.323 OA
HETATM   33  C   UNL     1      43.361 -18.539   2.447  1.00  0.00     0.040 A 
HETATM   34  C   UNL     1      44.249 -20.901   4.892  1.00  0.00     0.352 A 
HETATM   35  C   UNL     1      43.121 -17.177   2.672  1.00  0.00     0.017 A 
ENDBRANCH  25  27
ENDBRANCH   2  21
TORSDOF 9
ENDMDL
MODEL 4
REMARK VINA RESULT:      -8.2      7.550     11.003
REMARK  9 active torsions:
REMARK  status: ('A' for Active; 'I' for Inactive)
REMARK       I    between atoms: C_2  and  N_3 
REMARK    1  A    between atoms: N_3  and  C_4 
REMARK    2  A    between atoms: C_6  and  O_7 
REMARK    3  A    between atoms: O_7  and  C_8 
REMARK    4  A    between atoms: C_8  and  C_9 
REMARK    5  A    between atoms: C_9  and  C_10 
REMARK    6  A    between atoms: C_10  and  C_11 
REMARK    7  A    between atoms: C_11  and  N_12 
REMARK       I    between atoms: N_12  and  C_13 
REMARK    8  A    between atoms: C_13  and  C_14 
REMARK    9  A    between atoms: C_18  and  C_19 
ROOT
HETATM    1  N   UNL     1      41.669 -12.066   3.538  1.00  0.00    -0.345 N 
HETATM    2  C   UNL     1      42.948 -12.443   3.225  1.00  0.00     0.270 C 
HETATM    3  O   UNL     1      43.892 -11.660   3.239  1.00  0.00    -0.266 OA
HETATM    4  H   UNL     1      40.908 -12.715   3.411  1.00  0.00     0.163 HD
ENDROOT
BRANCH   1   5
HETATM    5  C   UNL     1      41.341 -10.705   3.873  1.00  0.00     0.217 C 
BRANCH   5   6
HETATM    6  C   UNL     1      41.092  -9.946   2.580  1.00  0.00    -0.085 C 
BRANCH   6   7
HETATM    7  C   UNL     1      40.879  -9.294   1.471  1.00  0.00    -0.078 C 
BRANCH   7   8
HETATM    8  C   UNL     1      40.690  -8.571   0.205  1.00  0.00     0.269 C 
BRANCH   8   9
HETATM    9  O   UNL     1      40.869  -9.476  -0.884  1.00  0.00    -0.339 OA
BRANCH   9  10
HETATM   10  C   UNL     1      40.010 -10.540  -0.948  1.00  0.00     0.072 A 
HETATM   11  C   UNL     1      40.275 -11.839  -0.499  1.00  0.00     0.066 A 
HETATM   12  C   UNL     1      39.311 -12.846  -0.616  1.00  0.00     0.037 A 
HETATM   13  C   UNL     1      38.074 -12.540  -1.197  1.00  0.00     0.029 A 
HETATM   14  C   UNL     1      37.804 -11.248  -1.650  1.00  0.00     0.005 A 
HETATM   15  C   UNL     1      38.773 -10.253  -1.524  1.00  0.00     0.037 A 
BRANCH  12  16
HETATM   16  N   UNL     1      39.505 -14.176  -0.183  1.00  0.00    -0.327 N 
HETATM   17  C   UNL     1      39.789 -14.614   1.099  1.00  0.00     0.218 C 
HETATM   18  C   UNL     1      39.924 -16.114   1.182  1.00  0.00     0.117 C 
HETATM   19  O   UNL     1      39.903 -13.922   2.106  1.00  0.00    -0.274 OA
HETATM   20  H   UNL     1      39.412 -14.888  -0.896  1.00  0.00     0.169 HD
ENDBRANCH  12  16
ENDBRANCH   9  10
ENDBRANCH   8   9
ENDBRANCH   7   8
ENDBRANCH   6   7
ENDBRANCH   5   6
ENDBRANCH   1   5
BRANCH   2  21
HETATM   21  C   UNL     1      43.105 -13.828   2.873  1.00  0.00     0.120 A 
HETATM   22  N   UNL     1      43.234 -14.230   1.573  1.00  0.00    -0.272 N 
HETATM   23  H   UNL     1      43.238 -13.634   0.751  1.00  0.00     0.189 HD
HETATM   24  N   UNL     1      43.361 -15.555   1.416  1.00  0.00    -0.174 NA
HETATM   25  C   UNL     1      43.331 -16.053   2.662  1.00  0.00     0.089 A 
HETATM   26  C   UNL     1      43.172 -14.998   3.605  1.00  0.00     0.071 A 
BRANCH  25  27
HETATM   27  C   UNL     1      43.444 -17.494   2.921  1.00  0.00    -0.003 A 
HETATM   28  C   UNL     1      43.824 -17.955   4.194  1.00  0.00     0.053 A 
HETATM   29  C   UNL     1      43.933 -19.315   4.396  1.00  0.00     0.106 A 
HETATM   30  C   UNL     1      43.679 -20.221   3.394  1.00  0.00     0.105 A 
HETATM   31  O   UNL     1      44.294 -19.920   5.561  1.00  0.00    -0.323 OA
HETATM   32  O   UNL     1      43.847 -21.507   3.800  1.00  0.00    -0.323 OA
HETATM   33  C   UNL     1      43.298 -19.816   2.135  1.00  0.00     0.040 A 
HETATM   34  C   UNL     1      44.238 -21.308   5.175  1.00  0.00     0.352 A 
HETATM   35  C   UNL     1      43.180 -18.440   1.900  1.00  0.00     0.017 A 
ENDBRANCH  25  27
ENDBRANCH   2  21
TORSDOF 9
ENDMDL
MODEL 5
REMARK VINA RESULT:      -8.2      3.060     11.213
REMARK  9 active torsions:
REMARK  status: ('A' for Active; 'I' for Inactive)
REMARK       I    between atoms: C_2  and  N_3 
REMARK    1  A    between atoms: N_3  and  C_4 
REMARK    2  A    between atoms: C_6  and  O_7 
REMARK    3  A    between atoms: O_7  and  C_8 
REMARK    4  A    between atoms: C_8  and  C_9 
REMARK    5  A    between atoms: C_9  and  C_10 
REMARK    6  A    between atoms: C_10  and  C_11 
REMARK    7  A    between atoms: C_11  and  N_12 
REMARK       I    between atoms: N_12  and  C_13 
REMARK    8  A    between atoms: C_13  and  C_14 
REMARK    9  A    between atoms: C_18  and  C_19 
ROOT
HETATM    1  N   UNL     1      40.417 -11.077   5.726  1.00  0.00    -0.345 N 
HETATM    2  C   UNL     1      39.987 -12.376   5.778  1.00  0.00     0.270 C 
HETATM    3  O   UNL     1      38.825 -12.681   6.027  1.00  0.00    -0.266 OA
HETATM    4  H   UNL     1      41.399 -10.876   5.622  1.00  0.00     0.163 HD
ENDROOT
BRANCH   1   5
HETATM    5  C   UNL     1      39.532  -9.974   5.997  1.00  0.00     0.217 C 
BRANCH   5   6
HETATM    6  C   UNL     1      39.479  -9.770   7.502  1.00  0.00    -0.085 C 
BRANCH   6   7
HETATM    7  C   UNL     1      39.434  -9.596   8.794  1.00  0.00    -0.078 C 
BRANCH   7   8
HETATM    8  C   UNL     1      39.332  -9.379  10.244  1.00  0.00     0.269 C 
BRANCH   8   9
HETATM    9  O   UNL     1      40.440  -8.591  10.680  1.00  0.00    -0.339 OA
BRANCH   9  10
HETATM   10  C   UNL     1      41.646  -9.229  10.786  1.00  0.00     0.072 A 
HETATM   11  C   UNL     1      42.631  -9.296   9.794  1.00  0.00     0.066 A 
HETATM   12  C   UNL     1      43.831  -9.977  10.024  1.00  0.00     0.037 A 
HETATM   13  C   UNL     1      44.034 -10.600  11.261  1.00  0.00     0.029 A 
HETATM   14  C   UNL     1      43.055 -10.540  12.254  1.00  0.00     0.005 A 
HETATM   15  C   UNL     1      41.866  -9.856  12.013  1.00  0.00     0.037 A 
BRANCH  12  16
HETATM   16  N   UNL     1      44.871 -10.084   9.074  1.00  0.00    -0.327 N 
HETATM   17  C   UNL     1      45.009 -11.033   8.076  1.00  0.00     0.218 C 
HETATM   18  C   UNL     1      46.251 -10.823   7.246  1.00  0.00     0.117 C 
HETATM   19  O   UNL     1      44.236 -11.950   7.818  1.00  0.00    -0.274 OA
HETATM   20  H   UNL     1      45.588  -9.372   9.127  1.00  0.00     0.169 HD
ENDBRANCH  12  16
ENDBRANCH   9  10
ENDBRANCH   8   9
ENDBRANCH   7   8
ENDBRANCH   6   7
ENDBRANCH   5   6
ENDBRANCH   1   5
BRANCH   2  21
HETATM   21  C   UNL     1      41.001 -13.363   5.521  1.00  0.00     0.120 A 
HETATM   22  N   UNL     1      42.331 -13.054   5.561  1.00  0.00    -0.272 N 
HETATM   23  H   UNL     1      42.738 -12.146   5.768  1.00  0.00     0.189 HD
HETATM   24  N   UNL     1      43.146 -14.083   5.290  1.00  0.00    -0.174 NA
HETATM   25  C   UNL     1      42.324 -15.123   5.076  1.00  0.00     0.089 A 
HETATM   26  C   UNL     1      40.968 -14.709   5.213  1.00  0.00     0.071 A 
BRANCH  25  27
HETATM   27  C   UNL     1      42.838 -16.458   4.744  1.00  0.00    -0.003 A 
HETATM   28  C   UNL     1      42.712 -16.956   3.435  1.00  0.00     0.053 A 
HETATM   29  C   UNL     1      43.194 -18.220   3.163  1.00  0.00     0.106 A 
HETATM   30  C   UNL     1      43.789 -18.994   4.130  1.00  0.00     0.105 A 
HETATM   31  O   UNL     1      43.144 -18.848   1.956  1.00  0.00    -0.323 OA
HETATM   32  O   UNL     1      44.190 -20.203   3.656  1.00  0.00    -0.323 OA
HETATM   33  C   UNL     1      43.940 -18.545   5.422  1.00  0.00     0.040 A 
HETATM   34  C   UNL     1      43.777 -20.103   2.277  1.00  0.00     0.352 A 
HETATM   35  C   UNL     1      43.459 -17.265   5.729  1.00  0.00     0.017 A 
ENDBRANCH  25  27
ENDBRANCH   2  21
TORSDOF 9
ENDMDL
MODEL 6
REMARK VINA RESULT:      -8.1      2.937     12.886
REMARK  9 active torsions:
REMARK  status: ('A' for Active; 'I' for Inactive)
REMARK       I    between atoms: C_2  and  N_3 
REMARK    1  A    between atoms: N_3  and  C_4 
REMARK    2  A    between atoms: C_6  and  O_7 
REMARK    3  A    between atoms: O_7  and  C_8 
REMARK    4  A    between atoms: C_8  and  C_9 
REMARK    5  A    between atoms: C_9  and  C_10 
REMARK    6  A    between atoms: C_10  and  C_11 
REMARK    7  A    between atoms: C_11  and  N_12 
REMARK       I    between atoms: N_12  and  C_13 
REMARK    8  A    between atoms: C_13  and  C_14 
REMARK    9  A    between atoms: C_18  and  C_19 
ROOT
HETATM    1  N   UNL     1      40.218 -10.337   6.970  1.00  0.00    -0.345 N 
HETATM    2  C   UNL     1      39.357 -11.321   6.559  1.00  0.00     0.270 C 
HETATM    3  O   UNL     1      38.146 -11.259   6.738  1.00  0.00    -0.266 OA
HETATM    4  H   UNL     1      41.213 -10.477   6.897  1.00  0.00     0.163 HD
ENDROOT
BRANCH   1   5
HETATM    5  C   UNL     1      39.754  -9.172   7.678  1.00  0.00     0.217 C 
BRANCH   5   6
HETATM    6  C   UNL     1      39.927  -9.423   9.166  1.00  0.00    -0.085 C 
BRANCH   6   7
HETATM    7  C   UNL     1      40.076  -9.639  10.444  1.00  0.00    -0.078 C 
BRANCH   7   8
HETATM    8  C   UNL     1      40.281  -9.920  11.872  1.00  0.00     0.269 C 
BRANCH   8   9
HETATM    9  O   UNL     1      41.654  -9.708  12.200  1.00  0.00    -0.339 OA
BRANCH   9  10
HETATM   10  C   UNL     1      41.913  -8.890  13.266  1.00  0.00     0.072 A 
HETATM   11  C   UNL     1      41.343  -8.994  14.540  1.00  0.00     0.066 A 
HETATM   12  C   UNL     1      41.693  -8.096  15.555  1.00  0.00     0.037 A 
HETATM   13  C   UNL     1      42.619  -7.084  15.278  1.00  0.00     0.029 A 
HETATM   14  C   UNL     1      43.190  -6.972  14.009  1.00  0.00     0.005 A 
HETATM   15  C   UNL     1      42.835  -7.874  13.009  1.00  0.00     0.037 A 
BRANCH  12  16
HETATM   16  N   UNL     1      41.163  -8.141  16.863  1.00  0.00    -0.327 N 
HETATM   17  C   UNL     1      40.152  -7.359  17.392  1.00  0.00     0.218 C 
HETATM   18  C   UNL     1      39.850  -7.699  18.831  1.00  0.00     0.117 C 
HETATM   19  O   UNL     1      39.510  -6.490  16.810  1.00  0.00    -0.274 OA
HETATM   20  H   UNL     1      41.566  -8.838  17.476  1.00  0.00     0.169 HD
ENDBRANCH  12  16
ENDBRANCH   9  10
ENDBRANCH   8   9
ENDBRANCH   7   8
ENDBRANCH   6   7
ENDBRANCH   5   6
ENDBRANCH   1   5
BRANCH   2  21
HETATM   21  C   UNL     1      39.980 -12.438   5.902  1.00  0.00     0.120 A 
HETATM   22  N   UNL     1      39.537 -12.900   4.695  1.00  0.00    -0.272 N 
HETATM   23  H   UNL     1      38.765 -12.531   4.149  1.00  0.00     0.189 HD
HETATM   24  N   UNL     1      40.220 -13.953   4.224  1.00  0.00    -0.174 NA
HETATM   25  C   UNL     1      41.165 -14.190   5.147  1.00  0.00     0.089 A 
HETATM   26  C   UNL     1      41.046 -13.258   6.217  1.00  0.00     0.071 A 
BRANCH  25  27
HETATM   27  C   UNL     1      42.134 -15.283   4.997  1.00  0.00    -0.003 A 
HETATM   28  C   UNL     1      42.048 -16.157   3.900  1.00  0.00     0.053 A 
HETATM   29  C   UNL     1      42.967 -17.181   3.799  1.00  0.00     0.106 A 
HETATM   30  C   UNL     1      43.956 -17.363   4.736  1.00  0.00     0.105 A 
HETATM   31  O   UNL     1      43.017 -18.112   2.808  1.00  0.00    -0.323 OA
HETATM   32  O   UNL     1      44.752 -18.427   4.453  1.00  0.00    -0.323 OA
HETATM   33  C   UNL     1      44.083 -16.528   5.823  1.00  0.00     0.040 A 
HETATM   34  C   UNL     1      44.150 -18.898   3.229  1.00  0.00     0.352 A 
HETATM   35  C   UNL     1      43.162 -15.480   5.952  1.00  0.00     0.017 A 
ENDBRANCH  25  27
ENDBRANCH   2  21
TORSDOF 9
ENDMDL
MODEL 7
REMARK VINA RESULT:      -8.0      2.018      2.579
REMARK  9 active torsions:
REMARK  status: ('A' for Active; 'I' for Inactive)
REMARK       I    between atoms: C_2  and  N_3 
REMARK    1  A    between atoms: N_3  and  C_4 
REMARK    2  A    between atoms: C_6  and  O_7 
REMARK    3  A    between atoms: O_7  and  C_8 
REMARK    4  A    between atoms: C_8  and  C_9 
REMARK    5  A    between atoms: C_9  and  C_10 
REMARK    6  A    between atoms: C_10  and  C_11 
REMARK    7  A    between atoms: C_11  and  N_12 
REMARK       I    between atoms: N_12  and  C_13 
REMARK    8  A    between atoms: C_13  and  C_14 
REMARK    9  A    between atoms: C_18  and  C_19 
ROOT
HETATM    1  N   UNL     1      43.549 -12.507   7.586  1.00  0.00    -0.345 N 
HETATM    2  C   UNL     1      44.448 -11.497   7.362  1.00  0.00     0.270 C 
HETATM    3  O   UNL     1      45.304 -11.554   6.486  1.00  0.00    -0.266 OA
HETATM    4  H   UNL     1      42.933 -12.464   8.383  1.00  0.00     0.163 HD
ENDROOT
BRANCH   1   5
HETATM    5  C   UNL     1      43.575 -13.727   6.823  1.00  0.00     0.217 C 
BRANCH   5   6
HETATM    6  C   UNL     1      42.520 -13.626   5.735  1.00  0.00    -0.085 C 
BRANCH   6   7
HETATM    7  C   UNL     1      41.614 -13.539   4.801  1.00  0.00    -0.078 C 
BRANCH   7   8
HETATM    8  C   UNL     1      40.575 -13.491   3.762  1.00  0.00     0.269 C 
BRANCH   8   9
HETATM    9  O   UNL     1      40.286 -14.819   3.325  1.00  0.00    -0.339 OA
BRANCH   9  10
HETATM   10  C   UNL     1      41.351 -15.579   2.920  1.00  0.00     0.072 A 
HETATM   11  C   UNL     1      41.792 -16.763   3.523  1.00  0.00     0.066 A 
HETATM   12  C   UNL     1      42.894 -17.457   3.013  1.00  0.00     0.037 A 
HETATM   13  C   UNL     1      43.559 -16.948   1.891  1.00  0.00     0.029 A 
HETATM   14  C   UNL     1      43.126 -15.766   1.286  1.00  0.00     0.005 A 
HETATM   15  C   UNL     1      42.025 -15.087   1.803  1.00  0.00     0.037 A 
BRANCH  12  16
HETATM   16  N   UNL     1      43.393 -18.657   3.565  1.00  0.00    -0.327 N 
HETATM   17  C   UNL     1      43.961 -18.840   4.814  1.00  0.00     0.218 C 
HETATM   18  C   UNL     1      44.375 -20.271   5.056  1.00  0.00     0.117 C 
HETATM   19  O   UNL     1      44.115 -17.991   5.685  1.00  0.00    -0.274 OA
HETATM   20  H   UNL     1      43.312 -19.477   2.978  1.00  0.00     0.169 HD
ENDBRANCH  12  16
ENDBRANCH   9  10
ENDBRANCH   8   9
ENDBRANCH   7   8
ENDBRANCH   6   7
ENDBRANCH   5   6
ENDBRANCH   1   5
BRANCH   2  21
HETATM   21  C   UNL     1      44.316 -10.361   8.234  1.00  0.00     0.120 A 
HETATM   22  N   UNL     1      45.032  -9.215   8.036  1.00  0.00    -0.272 N 
HETATM   23  H   UNL     1      45.700  -9.037   7.292  1.00  0.00     0.189 HD
HETATM   24  N   UNL     1      44.799  -8.255   8.943  1.00  0.00    -0.174 NA
HETATM   25  C   UNL     1      43.880  -8.779   9.768  1.00  0.00     0.089 A 
HETATM   26  C   UNL     1      43.550 -10.101   9.355  1.00  0.00     0.071 A 
BRANCH  25  27
HETATM   27  C   UNL     1      43.353  -8.027  10.915  1.00  0.00    -0.003 A 
HETATM   28  C   UNL     1      42.675  -6.813  10.710  1.00  0.00     0.053 A 
HETATM   29  C   UNL     1      42.206  -6.127  11.812  1.00  0.00     0.106 A 
HETATM   30  C   UNL     1      42.383  -6.599  13.090  1.00  0.00     0.105 A 
HETATM   31  O   UNL     1      41.539  -4.941  11.786  1.00  0.00    -0.323 OA
HETATM   32  O   UNL     1      41.850  -5.773  14.029  1.00  0.00    -0.323 OA
HETATM   33  C   UNL     1      43.034  -7.786  13.338  1.00  0.00     0.040 A 
HETATM   34  C   UNL     1      41.318  -4.724  13.194  1.00  0.00     0.352 A 
HETATM   35  C   UNL     1      43.523  -8.504  12.237  1.00  0.00     0.017 A 
ENDBRANCH  25  27
ENDBRANCH   2  21
TORSDOF 9
ENDMDL
MODEL 8
REMARK VINA RESULT:      -7.9      2.291     13.371
REMARK  9 active torsions:
REMARK  status: ('A' for Active; 'I' for Inactive)
REMARK       I    between atoms: C_2  and  N_3 
REMARK    1  A    between atoms: N_3  and  C_4 
REMARK    2  A    between atoms: C_6  and  O_7 
REMARK    3  A    between atoms: O_7  and  C_8 
REMARK    4  A    between atoms: C_8  and  C_9 
REMARK    5  A    between atoms: C_9  and  C_10 
REMARK    6  A    between atoms: C_10  and  C_11 
REMARK    7  A    between atoms: C_11  and  N_12 
REMARK       I    between atoms: N_12  and  C_13 
REMARK    8  A    between atoms: C_13  and  C_14 
REMARK    9  A    between atoms: C_18  and  C_19 
ROOT
HETATM    1  N   UNL     1      43.624 -11.085   7.269  1.00  0.00    -0.345 N 
HETATM    2  C   UNL     1      42.717 -11.652   6.412  1.00  0.00     0.270 C 
HETATM    3  O   UNL     1      41.790 -11.023   5.917  1.00  0.00    -0.266 OA
HETATM    4  H   UNL     1      44.307 -11.664   7.734  1.00  0.00     0.163 HD
ENDROOT
BRANCH   1   5
HETATM    5  C   UNL     1      43.524  -9.708   7.675  1.00  0.00     0.217 C 
BRANCH   5   6
HETATM    6  C   UNL     1      43.403  -9.669   9.189  1.00  0.00    -0.085 C 
BRANCH   6   7
HETATM    7  C   UNL     1      43.299  -9.636  10.489  1.00  0.00    -0.078 C 
BRANCH   7   8
HETATM    8  C   UNL     1      43.234  -9.577  11.957  1.00  0.00     0.269 C 
BRANCH   8   9
HETATM    9  O   UNL     1      43.615  -8.273  12.392  1.00  0.00    -0.339 OA
BRANCH   9  10
HETATM   10  C   UNL     1      42.749  -7.625  13.231  1.00  0.00     0.072 A 
HETATM   11  C   UNL     1      43.022  -7.221  14.543  1.00  0.00     0.066 A 
HETATM   12  C   UNL     1      42.051  -6.559  15.303  1.00  0.00     0.037 A 
HETATM   13  C   UNL     1      40.795  -6.311  14.737  1.00  0.00     0.029 A 
HETATM   14  C   UNL     1      40.515  -6.714  13.430  1.00  0.00     0.005 A 
HETATM   15  C   UNL     1      41.491  -7.370  12.683  1.00  0.00     0.037 A 
BRANCH  12  16
HETATM   16  N   UNL     1      42.256  -6.119  16.629  1.00  0.00    -0.327 N 
HETATM   17  C   UNL     1      41.847  -6.739  17.798  1.00  0.00     0.218 C 
HETATM   18  C   UNL     1      42.252  -5.971  19.032  1.00  0.00     0.117 C 
HETATM   19  O   UNL     1      41.248  -7.804  17.896  1.00  0.00    -0.274 OA
HETATM   20  H   UNL     1      42.772  -5.255  16.730  1.00  0.00     0.169 HD
ENDBRANCH  12  16
ENDBRANCH   9  10
ENDBRANCH   8   9
ENDBRANCH   7   8
ENDBRANCH   6   7
ENDBRANCH   5   6
ENDBRANCH   1   5
BRANCH   2  21
HETATM   21  C   UNL     1      42.932 -13.047   6.137  1.00  0.00     0.120 A 
HETATM   22  N   UNL     1      43.222 -13.940   7.130  1.00  0.00    -0.272 N 
HETATM   23  H   UNL     1      43.311 -13.738   8.121  1.00  0.00     0.189 HD
HETATM   24  N   UNL     1      43.403 -15.199   6.704  1.00  0.00    -0.174 NA
HETATM   25  C   UNL     1      43.210 -15.143   5.377  1.00  0.00     0.089 A 
HETATM   26  C   UNL     1      42.912 -13.808   4.983  1.00  0.00     0.071 A 
BRANCH  25  27
HETATM   27  C   UNL     1      43.321 -16.337   4.530  1.00  0.00    -0.003 A 
HETATM   28  C   UNL     1      43.616 -17.586   5.105  1.00  0.00     0.053 A 
HETATM   29  C   UNL     1      43.726 -18.683   4.277  1.00  0.00     0.106 A 
HETATM   30  C   UNL     1      43.554 -18.586   2.917  1.00  0.00     0.105 A 
HETATM   31  O   UNL     1      44.012 -19.954   4.672  1.00  0.00    -0.323 OA
HETATM   32  O   UNL     1      43.708 -19.780   2.286  1.00  0.00    -0.323 OA
HETATM   33  C   UNL     1      43.257 -17.386   2.310  1.00  0.00     0.040 A 
HETATM   34  C   UNL     1      43.999 -20.642   3.405  1.00  0.00     0.352 A 
HETATM   35  C   UNL     1      43.140 -16.254   3.127  1.00  0.00     0.017 A 
ENDBRANCH  25  27
ENDBRANCH   2  21
TORSDOF 9
ENDMDL
MODEL 9
REMARK VINA RESULT:      -7.9      2.234     13.175
REMARK  9 active torsions:
REMARK  status: ('A' for Active; 'I' for Inactive)
REMARK       I    between atoms: C_2  and  N_3 
REMARK    1  A    between atoms: N_3  and  C_4 
REMARK    2  A    between atoms: C_6  and  O_7 
REMARK    3  A    between atoms: O_7  and  C_8 
REMARK    4  A    between atoms: C_8  and  C_9 
REMARK    5  A    between atoms: C_9  and  C_10 
REMARK    6  A    between atoms: C_10  and  C_11 
REMARK    7  A    between atoms: C_11  and  N_12 
REMARK       I    between atoms: N_12  and  C_13 
REMARK    8  A    between atoms: C_13  and  C_14 
REMARK    9  A    between atoms: C_18  and  C_19 
ROOT
HETATM    1  N   UNL     1      43.561 -10.990   9.266  1.00  0.00    -0.345 N 
HETATM    2  C   UNL     1      44.141 -11.035   8.025  1.00  0.00     0.270 C 
HETATM    3  O   UNL     1      45.019 -10.255   7.675  1.00  0.00    -0.266 OA
HETATM    4  H   UNL     1      42.771 -11.581   9.474  1.00  0.00     0.163 HD
ENDROOT
BRANCH   1   5
HETATM    5  C   UNL     1      43.926  -9.991  10.236  1.00  0.00     0.217 C 
BRANCH   5   6
HETATM    6  C   UNL     1      42.812  -9.904  11.266  1.00  0.00    -0.085 C 
BRANCH   6   7
HETATM    7  C   UNL     1      41.856  -9.829  12.150  1.00  0.00    -0.078 C 
BRANCH   7   8
HETATM    8  C   UNL     1      40.767  -9.797  13.137  1.00  0.00     0.269 C 
BRANCH   8   9
HETATM    9  O   UNL     1      40.319  -8.452  13.299  1.00  0.00    -0.339 OA
BRANCH   9  10
HETATM   10  C   UNL     1      40.781  -7.776  14.397  1.00  0.00     0.072 A 
HETATM   11  C   UNL     1      40.910  -8.299  15.689  1.00  0.00     0.066 A 
HETATM   12  C   UNL     1      41.401  -7.508  16.733  1.00  0.00     0.037 A 
HETATM   13  C   UNL     1      41.758  -6.179  16.471  1.00  0.00     0.029 A 
HETATM   14  C   UNL     1      41.629  -5.651  15.186  1.00  0.00     0.005 A 
HETATM   15  C   UNL     1      41.141  -6.450  14.154  1.00  0.00     0.037 A 
BRANCH  12  16
HETATM   16  N   UNL     1      41.563  -7.966  18.059  1.00  0.00    -0.327 N 
HETATM   17  C   UNL     1      40.572  -8.226  18.989  1.00  0.00     0.218 C 
HETATM   18  C   UNL     1      41.128  -8.709  20.306  1.00  0.00     0.117 C 
HETATM   19  O   UNL     1      39.361  -8.126  18.824  1.00  0.00    -0.274 OA
HETATM   20  H   UNL     1      42.517  -8.134  18.352  1.00  0.00     0.169 HD
ENDBRANCH  12  16
ENDBRANCH   9  10
ENDBRANCH   8   9
ENDBRANCH   7   8
ENDBRANCH   6   7
ENDBRANCH   5   6
ENDBRANCH   1   5
BRANCH   2  21
HETATM   21  C   UNL     1      43.639 -12.066   7.158  1.00  0.00     0.120 A 
HETATM   22  N   UNL     1      42.335 -12.092   6.751  1.00  0.00    -0.272 N 
HETATM   23  H   UNL     1      41.609 -11.425   6.994  1.00  0.00     0.189 HD
HETATM   24  N   UNL     1      42.027 -13.124   5.952  1.00  0.00    -0.174 NA
HETATM   25  C   UNL     1      43.176 -13.803   5.810  1.00  0.00     0.089 A 
HETATM   26  C   UNL     1      44.212 -13.168   6.553  1.00  0.00     0.071 A 
BRANCH  25  27
HETATM   27  C   UNL     1      43.258 -15.021   4.994  1.00  0.00    -0.003 A 
HETATM   28  C   UNL     1      43.692 -16.228   5.571  1.00  0.00     0.053 A 
HETATM   29  C   UNL     1      43.769 -17.349   4.770  1.00  0.00     0.106 A 
HETATM   30  C   UNL     1      43.434 -17.315   3.438  1.00  0.00     0.105 A 
HETATM   31  O   UNL     1      44.174 -18.586   5.170  1.00  0.00    -0.323 OA
HETATM   32  O   UNL     1      43.584 -18.522   2.832  1.00  0.00    -0.323 OA
HETATM   33  C   UNL     1      42.998 -16.158   2.833  1.00  0.00     0.040 A 
HETATM   34  C   UNL     1      44.054 -19.322   3.936  1.00  0.00     0.352 A 
HETATM   35  C   UNL     1      42.911 -15.002   3.621  1.00  0.00     0.017 A 
ENDBRANCH  25  27
ENDBRANCH   2  21
TORSDOF 9
ENDMDL
MODEL 10
REMARK VINA RESULT:      -7.8      2.076      3.024
REMARK  9 active torsions:
REMARK  status: ('A' for Active; 'I' for Inactive)
REMARK       I    between atoms: C_2  and  N_3 
REMARK    1  A    between atoms: N_3  and  C_4 
REMARK    2  A    between atoms: C_6  and  O_7 
REMARK    3  A    between atoms: O_7  and  C_8 
REMARK    4  A    between atoms: C_8  and  C_9 
REMARK    5  A    between atoms: C_9  and  C_10 
REMARK    6  A    between atoms: C_10  and  C_11 
REMARK    7  A    between atoms: C_11  and  N_12 
REMARK       I    between atoms: N_12  and  C_13 
REMARK    8  A    between atoms: C_13  and  C_14 
REMARK    9  A    between atoms: C_18  and  C_19 
ROOT
HETATM    1  N   UNL     1      43.723 -11.496   7.772  1.00  0.00    -0.345 N 
HETATM    2  C   UNL     1      44.624 -10.731   8.465  1.00  0.00     0.270 C 
HETATM    3  O   UNL     1      45.831 -10.942   8.439  1.00  0.00    -0.266 OA
HETATM    4  H   UNL     1      42.734 -11.353   7.905  1.00  0.00     0.163 HD
ENDROOT
BRANCH   1   5
HETATM    5  C   UNL     1      44.137 -12.631   6.990  1.00  0.00     0.217 C 
BRANCH   5   6
HETATM    6  C   UNL     1      42.891 -13.386   6.556  1.00  0.00    -0.085 C 
BRANCH   6   7
HETATM    7  C   UNL     1      41.822 -14.033   6.184  1.00  0.00    -0.078 C 
BRANCH   7   8
HETATM    8  C   UNL     1      40.600 -14.765   5.817  1.00  0.00     0.269 C 
BRANCH   8   9
HETATM    9  O   UNL     1      40.961 -15.998   5.196  1.00  0.00    -0.339 OA
BRANCH   9  10
HETATM   10  C   UNL     1      41.523 -15.918   3.950  1.00  0.00     0.072 A 
HETATM   11  C   UNL     1      41.115 -15.066   2.917  1.00  0.00     0.066 A 
HETATM   12  C   UNL     1      41.775 -15.073   1.683  1.00  0.00     0.037 A 
HETATM   13  C   UNL     1      42.848 -15.952   1.490  1.00  0.00     0.029 A 
HETATM   14  C   UNL     1      43.258 -16.806   2.514  1.00  0.00     0.005 A 
HETATM   15  C   UNL     1      42.594 -16.787   3.739  1.00  0.00     0.037 A 
BRANCH  12  16
HETATM   16  N   UNL     1      41.423 -14.241   0.597  1.00  0.00    -0.327 N 
HETATM   17  C   UNL     1      40.367 -14.402  -0.283  1.00  0.00     0.218 C 
HETATM   18  C   UNL     1      40.303 -13.305  -1.316  1.00  0.00     0.117 C 
HETATM   19  O   UNL     1      39.523 -15.292  -0.267  1.00  0.00    -0.274 OA
HETATM   20  H   UNL     1      42.008 -13.427   0.461  1.00  0.00     0.169 HD
ENDBRANCH  12  16
ENDBRANCH   9  10
ENDBRANCH   8   9
ENDBRANCH   7   8
ENDBRANCH   6   7
ENDBRANCH   5   6
ENDBRANCH   1   5
BRANCH   2  21
HETATM   21  C   UNL     1      44.048  -9.658   9.230  1.00  0.00     0.120 A 
HETATM   22  N   UNL     1      43.981  -8.383   8.744  1.00  0.00    -0.272 N 
HETATM   23  H   UNL     1      44.307  -8.061   7.837  1.00  0.00     0.189 HD
HETATM   24  N   UNL     1      43.424  -7.500   9.585  1.00  0.00    -0.174 NA
HETATM   25  C   UNL     1      43.093  -8.220  10.668  1.00  0.00     0.089 A 
HETATM   26  C   UNL     1      43.469  -9.581  10.482  1.00  0.00     0.071 A 
BRANCH  25  27
HETATM   27  C   UNL     1      42.448  -7.607  11.836  1.00  0.00    -0.003 A 
HETATM   28  C   UNL     1      43.076  -7.650  13.093  1.00  0.00     0.053 A 
HETATM   29  C   UNL     1      42.434  -7.076  14.170  1.00  0.00     0.106 A 
HETATM   30  C   UNL     1      41.208  -6.467  14.044  1.00  0.00     0.105 A 
HETATM   31  O   UNL     1      42.901  -7.038  15.448  1.00  0.00    -0.323 OA
HETATM   32  O   UNL     1      40.750  -5.970  15.223  1.00  0.00    -0.323 OA
HETATM   33  C   UNL     1      40.559  -6.395  12.833  1.00  0.00     0.040 A 
HETATM   34  C   UNL     1      41.828  -6.336  16.108  1.00  0.00     0.352 A 
HETATM   35  C   UNL     1      41.187  -6.971  11.720  1.00  0.00     0.017 A 
ENDBRANCH  25  27
ENDBRANCH   2  21
TORSDOF 9
ENDMDL
