MODEL 1
REMARK VINA RESULT:      -8.3      0.000      0.000
REMARK  5 active torsions:
REMARK  status: ('A' for Active; 'I' for Inactive)
REMARK    1  A    between atoms: C_2  and  N_3 
REMARK       I    between atoms: N_3  and  C_4 
REMARK    2  A    between atoms: C_4  and  C_5 
REMARK    3  A    between atoms: N_8  and  C_10 
REMARK    4  A    between atoms: C_10  and  C_11 
REMARK    5  A    between atoms: C_12  and  C_13 
ROOT
HETATM    1  C   UNL     1      41.128 -14.881   0.644  1.00  0.00     0.081 C 
HETATM    2  C   UNL     1      40.008 -15.777   1.172  1.00  0.00     0.042 C 
HETATM    3  C   UNL     1      39.924 -15.748   2.695  1.00  0.00     0.236 C 
HETATM    4  N   UNL     1      41.245 -16.169   3.294  1.00  0.00    -0.067 N 
HETATM    5  H   UNL     1      41.420 -17.131   2.985  1.00  0.00     0.280 HD
HETATM    6  C   UNL     1      42.397 -15.306   2.830  1.00  0.00     0.236 C 
HETATM    7  C   UNL     1      42.458 -15.250   1.308  1.00  0.00     0.042 C 
ENDROOT
BRANCH   4   8
HETATM    8  C   UNL     1      41.211 -16.199   4.818  1.00  0.00     0.277 C 
BRANCH   8   9
HETATM    9  C   UNL     1      42.542 -16.066   5.464  1.00  0.00     0.016 A 
HETATM   10  C   UNL     1      43.609 -17.023   5.554  1.00  0.00     0.096 A 
HETATM   11  N   UNL     1      44.659 -16.490   6.194  1.00  0.00    -0.174 NA
HETATM   12  N   UNL     1      44.319 -15.227   6.457  1.00  0.00    -0.288 N 
HETATM   13  H   UNL     1      45.004 -14.628   6.913  1.00  0.00     0.188 HD
HETATM   14  C   UNL     1      43.058 -14.921   6.046  1.00  0.00     0.120 A 
BRANCH  10  15
HETATM   15  C   UNL     1      43.703 -18.395   5.040  1.00  0.00    -0.003 A 
HETATM   16  C   UNL     1      43.724 -18.675   3.670  1.00  0.00     0.037 A 
HETATM   17  C   UNL     1      43.827 -19.995   3.222  1.00  0.00     0.035 A 
HETATM   18 CL   UNL     1      43.877 -20.300   1.530  1.00  0.00    -0.084 Cl
HETATM   19  C   UNL     1      43.890 -21.052   4.124  1.00  0.00     0.024 A 
HETATM   20  C   UNL     1      43.848 -20.788   5.490  1.00  0.00     0.003 A 
HETATM   21  C   UNL     1      43.756 -19.469   5.944  1.00  0.00     0.014 A 
ENDBRANCH  10  15
ENDBRANCH   8   9
ENDBRANCH   4   8
BRANCH   1  22
HETATM   22  C   UNL     1      40.752 -13.425   0.892  1.00  0.00     0.222 C 
HETATM   23  N   UNL     1      39.446 -13.120   0.600  1.00  0.00    -0.357 N 
HETATM   24  H   UNL     1      38.828 -13.828   0.225  1.00  0.00     0.162 HD
HETATM   25  O   UNL     1      41.538 -12.643   1.414  1.00  0.00    -0.273 OA
BRANCH  23  26
HETATM   26  C   UNL     1      38.861 -11.824   0.930  1.00  0.00     0.076 C 
HETATM   27  C   UNL     1      38.308 -11.847   2.353  1.00  0.00     0.032 C 
HETATM   28  C   UNL     1      37.769 -11.466  -0.072  1.00  0.00     0.032 C 
ENDBRANCH  23  26
ENDBRANCH   1  22
TORSDOF 5
ENDMDL
MODEL 2
REMARK VINA RESULT:      -8.3      2.554      4.170
REMARK  5 active torsions:
REMARK  status: ('A' for Active; 'I' for Inactive)
REMARK    1  A    between atoms: C_2  and  N_3 
REMARK       I    between atoms: N_3  and  C_4 
REMARK    2  A    between atoms: C_4  and  C_5 
REMARK    3  A    between atoms: N_8  and  C_10 
REMARK    4  A    between atoms: C_10  and  C_11 
REMARK    5  A    between atoms: C_12  and  C_13 
ROOT
HETATM    1  C   UNL     1      40.306 -13.549   1.764  1.00  0.00     0.081 C 
HETATM    2  C   UNL     1      41.720 -13.289   2.283  1.00  0.00     0.042 C 
HETATM    3  C   UNL     1      42.698 -14.375   1.846  1.00  0.00     0.236 C 
HETATM    4  N   UNL     1      42.216 -15.726   2.320  1.00  0.00    -0.067 N 
HETATM    5  H   UNL     1      42.190 -15.690   3.344  1.00  0.00     0.280 HD
HETATM    6  C   UNL     1      40.827 -16.058   1.822  1.00  0.00     0.236 C 
HETATM    7  C   UNL     1      39.842 -14.950   2.174  1.00  0.00     0.042 C 
ENDROOT
BRANCH   4   8
HETATM    8  C   UNL     1      43.176 -16.850   1.947  1.00  0.00     0.277 C 
BRANCH   8   9
HETATM    9  C   UNL     1      43.551 -17.737   3.079  1.00  0.00     0.016 A 
HETATM   10  C   UNL     1      43.350 -17.549   4.488  1.00  0.00     0.096 A 
HETATM   11  N   UNL     1      43.807 -18.609   5.168  1.00  0.00    -0.174 NA
HETATM   12  N   UNL     1      44.231 -19.475   4.247  1.00  0.00    -0.288 N 
HETATM   13  H   UNL     1      44.586 -20.376   4.559  1.00  0.00     0.188 HD
HETATM   14  C   UNL     1      44.106 -19.001   2.977  1.00  0.00     0.120 A 
BRANCH  10  15
HETATM   15  C   UNL     1      42.722 -16.442   5.220  1.00  0.00    -0.003 A 
HETATM   16  C   UNL     1      43.460 -15.358   5.704  1.00  0.00     0.037 A 
HETATM   17  C   UNL     1      42.821 -14.318   6.385  1.00  0.00     0.035 A 
HETATM   18 CL   UNL     1      43.758 -12.987   6.942  1.00  0.00    -0.084 Cl
HETATM   19  C   UNL     1      41.449 -14.349   6.612  1.00  0.00     0.024 A 
HETATM   20  C   UNL     1      40.706 -15.434   6.155  1.00  0.00     0.003 A 
HETATM   21  C   UNL     1      41.338 -16.472   5.464  1.00  0.00     0.014 A 
ENDBRANCH  10  15
ENDBRANCH   8   9
ENDBRANCH   4   8
BRANCH   1  22
HETATM   22  C   UNL     1      40.294 -13.366   0.252  1.00  0.00     0.222 C 
HETATM   23  N   UNL     1      39.306 -14.064  -0.396  1.00  0.00    -0.357 N 
HETATM   24  H   UNL     1      38.679 -14.664   0.126  1.00  0.00     0.162 HD
HETATM   25  O   UNL     1      41.043 -12.568  -0.300  1.00  0.00    -0.273 OA
BRANCH  23  26
HETATM   26  C   UNL     1      39.034 -13.883  -1.819  1.00  0.00     0.076 C 
HETATM   27  C   UNL     1      37.790 -13.018  -2.005  1.00  0.00     0.032 C 
HETATM   28  C   UNL     1      38.863 -15.235  -2.501  1.00  0.00     0.032 C 
ENDBRANCH  23  26
ENDBRANCH   1  22
TORSDOF 5
ENDMDL
MODEL 3
REMARK VINA RESULT:      -7.9      3.404      5.936
REMARK  5 active torsions:
REMARK  status: ('A' for Active; 'I' for Inactive)
REMARK    1  A    between atoms: C_2  and  N_3 
REMARK       I    between atoms: N_3  and  C_4 
REMARK    2  A    between atoms: C_4  and  C_5 
REMARK    3  A    between atoms: N_8  and  C_10 
REMARK    4  A    between atoms: C_10  and  C_11 
REMARK    5  A    between atoms: C_12  and  C_13 
ROOT
HETATM    1  C   UNL     1      44.283 -11.675   6.313  1.00  0.00     0.081 C 
HETATM    2  C   UNL     1      43.716 -11.535   4.901  1.00  0.00     0.042 C 
HETATM    3  C   UNL     1      42.348 -12.198   4.767  1.00  0.00     0.236 C 
HETATM    4  N   UNL     1      42.443 -13.658   5.141  1.00  0.00    -0.067 N 
HETATM    5  H   UNL     1      43.094 -14.093   4.479  1.00  0.00     0.280 HD
HETATM    6  C   UNL     1      42.978 -13.870   6.539  1.00  0.00     0.236 C 
HETATM    7  C   UNL     1      44.307 -13.149   6.729  1.00  0.00     0.042 C 
ENDROOT
BRANCH   4   8
HETATM    8  C   UNL     1      41.112 -14.386   4.987  1.00  0.00     0.277 C 
BRANCH   8   9
HETATM    9  C   UNL     1      40.785 -14.779   3.592  1.00  0.00     0.016 A 
HETATM   10  C   UNL     1      41.312 -15.856   2.803  1.00  0.00     0.096 A 
HETATM   11  N   UNL     1      40.722 -15.883   1.600  1.00  0.00    -0.174 NA
HETATM   12  N   UNL     1      39.810 -14.910   1.623  1.00  0.00    -0.288 N 
HETATM   13  H   UNL     1      39.216 -14.787   0.805  1.00  0.00     0.188 HD
HETATM   14  C   UNL     1      39.808 -14.213   2.791  1.00  0.00     0.120 A 
BRANCH  10  15
HETATM   15  C   UNL     1      42.314 -16.876   3.134  1.00  0.00    -0.003 A 
HETATM   16  C   UNL     1      42.502 -18.016   2.347  1.00  0.00     0.037 A 
HETATM   17  C   UNL     1      43.476 -18.958   2.690  1.00  0.00     0.035 A 
HETATM   18 CL   UNL     1      43.697 -20.335   1.682  1.00  0.00    -0.084 Cl
HETATM   19  C   UNL     1      44.261 -18.791   3.826  1.00  0.00     0.024 A 
HETATM   20  C   UNL     1      44.069 -17.672   4.631  1.00  0.00     0.003 A 
HETATM   21  C   UNL     1      43.103 -16.722   4.286  1.00  0.00     0.014 A 
ENDBRANCH  10  15
ENDBRANCH   8   9
ENDBRANCH   4   8
BRANCH   1  22
HETATM   22  C   UNL     1      43.449 -10.828   7.266  1.00  0.00     0.222 C 
HETATM   23  N   UNL     1      43.886 -10.844   8.568  1.00  0.00    -0.357 N 
HETATM   24  H   UNL     1      44.682 -11.411   8.832  1.00  0.00     0.162 HD
HETATM   25  O   UNL     1      42.541 -10.115   6.858  1.00  0.00    -0.273 OA
BRANCH  23  26
HETATM   26  C   UNL     1      43.318  -9.966   9.587  1.00  0.00     0.076 C 
HETATM   27  C   UNL     1      43.950  -8.579   9.491  1.00  0.00     0.032 C 
HETATM   28  C   UNL     1      43.524 -10.563  10.974  1.00  0.00     0.032 C 
ENDBRANCH  23  26
ENDBRANCH   1  22
TORSDOF 5
ENDMDL
MODEL 4
REMARK VINA RESULT:      -7.9      4.551      7.442
REMARK  5 active torsions:
REMARK  status: ('A' for Active; 'I' for Inactive)
REMARK    1  A    between atoms: C_2  and  N_3 
REMARK       I    between atoms: N_3  and  C_4 
REMARK    2  A    between atoms: C_4  and  C_5 
REMARK    3  A    between atoms: N_8  and  C_10 
REMARK    4  A    between atoms: C_10  and  C_11 
REMARK    5  A    between atoms: C_12  and  C_13 
ROOT
HETATM    1  C   UNL     1      42.479 -16.707   6.645  1.00  0.00     0.081 C 
HETATM    2  C   UNL     1      41.068 -16.357   6.172  1.00  0.00     0.042 C 
HETATM    3  C   UNL     1      41.006 -14.969   5.541  1.00  0.00     0.236 C 
HETATM    4  N   UNL     1      41.493 -13.931   6.524  1.00  0.00    -0.067 N 
HETATM    5  H   UNL     1      40.859 -13.963   7.329  1.00  0.00     0.280 HD
HETATM    6  C   UNL     1      42.896 -14.206   7.017  1.00  0.00     0.236 C 
HETATM    7  C   UNL     1      43.009 -15.617   7.581  1.00  0.00     0.042 C 
ENDROOT
BRANCH   4   8
HETATM    8  C   UNL     1      41.416 -12.515   5.963  1.00  0.00     0.277 C 
BRANCH   8   9
HETATM    9  C   UNL     1      42.476 -12.190   4.973  1.00  0.00     0.016 A 
HETATM   10  C   UNL     1      43.728 -11.515   5.170  1.00  0.00     0.096 A 
HETATM   11  N   UNL     1      44.409 -11.456   4.018  1.00  0.00    -0.174 NA
HETATM   12  N   UNL     1      43.669 -12.113   3.125  1.00  0.00    -0.288 N 
HETATM   13  H   UNL     1      44.033 -12.219   2.180  1.00  0.00     0.188 HD
HETATM   14  C   UNL     1      42.496 -12.570   3.643  1.00  0.00     0.120 A 
BRANCH  10  15
HETATM   15  C   UNL     1      44.326 -10.955   6.388  1.00  0.00    -0.003 A 
HETATM   16  C   UNL     1      43.588 -10.185   7.292  1.00  0.00     0.037 A 
HETATM   17  C   UNL     1      44.192  -9.681   8.447  1.00  0.00     0.035 A 
HETATM   18 CL   UNL     1      43.246  -8.761   9.550  1.00  0.00    -0.084 Cl
HETATM   19  C   UNL     1      45.538  -9.915   8.709  1.00  0.00     0.024 A 
HETATM   20  C   UNL     1      46.290 -10.661   7.805  1.00  0.00     0.003 A 
HETATM   21  C   UNL     1      45.688 -11.177   6.654  1.00  0.00     0.014 A 
ENDBRANCH  10  15
ENDBRANCH   8   9
ENDBRANCH   4   8
BRANCH   1  22
HETATM   22  C   UNL     1      43.374 -16.897   5.427  1.00  0.00     0.222 C 
HETATM   23  N   UNL     1      42.697 -17.174   4.265  1.00  0.00    -0.357 N 
HETATM   24  H   UNL     1      41.689 -17.265   4.271  1.00  0.00     0.162 HD
HETATM   25  O   UNL     1      44.582 -16.702   5.486  1.00  0.00    -0.273 OA
BRANCH  23  26
HETATM   26  C   UNL     1      43.369 -17.222   2.969  1.00  0.00     0.076 C 
HETATM   27  C   UNL     1      42.856 -16.096   2.074  1.00  0.00     0.032 C 
HETATM   28  C   UNL     1      43.155 -18.580   2.312  1.00  0.00     0.032 C 
ENDBRANCH  23  26
ENDBRANCH   1  22
TORSDOF 5
ENDMDL
MODEL 5
REMARK VINA RESULT:      -7.9      3.464      5.927
REMARK  5 active torsions:
REMARK  status: ('A' for Active; 'I' for Inactive)
REMARK    1  A    between atoms: C_2  and  N_3 
REMARK       I    between atoms: N_3  and  C_4 
REMARK    2  A    between atoms: C_4  and  C_5 
REMARK    3  A    between atoms: N_8  and  C_10 
REMARK    4  A    between atoms: C_10  and  C_11 
REMARK    5  A    between atoms: C_12  and  C_13 
ROOT
HETATM    1  C   UNL     1      42.123 -10.873   6.117  1.00  0.00     0.081 C 
HETATM    2  C   UNL     1      41.178 -12.059   5.932  1.00  0.00     0.042 C 
HETATM    3  C   UNL     1      41.744 -13.095   4.965  1.00  0.00     0.236 C 
HETATM    4  N   UNL     1      42.029 -12.451   3.628  1.00  0.00    -0.067 N 
HETATM    5  H   UNL     1      41.134 -12.107   3.266  1.00  0.00     0.280 HD
HETATM    6  C   UNL     1      42.979 -11.280   3.735  1.00  0.00     0.236 C 
HETATM    7  C   UNL     1      42.480 -10.265   4.757  1.00  0.00     0.042 C 
ENDROOT
BRANCH   4   8
HETATM    8  C   UNL     1      42.561 -13.448   2.604  1.00  0.00     0.277 C 
BRANCH   8   9
HETATM    9  C   UNL     1      41.534 -14.373   2.058  1.00  0.00     0.016 A 
HETATM   10  C   UNL     1      41.475 -15.806   2.121  1.00  0.00     0.096 A 
HETATM   11  N   UNL     1      40.357 -16.252   1.531  1.00  0.00    -0.174 NA
HETATM   12  N   UNL     1      39.688 -15.162   1.155  1.00  0.00    -0.288 N 
HETATM   13  H   UNL     1      38.778 -15.282   0.715  1.00  0.00     0.188 HD
HETATM   14  C   UNL     1      40.350 -14.008   1.441  1.00  0.00     0.120 A 
BRANCH  10  15
HETATM   15  C   UNL     1      42.396 -16.770   2.735  1.00  0.00    -0.003 A 
HETATM   16  C   UNL     1      42.678 -18.007   2.146  1.00  0.00     0.037 A 
HETATM   17  C   UNL     1      43.571 -18.891   2.757  1.00  0.00     0.035 A 
HETATM   18 CL   UNL     1      43.916 -20.392   1.989  1.00  0.00    -0.084 Cl
HETATM   19  C   UNL     1      44.179 -18.570   3.966  1.00  0.00     0.024 A 
HETATM   20  C   UNL     1      43.889 -17.352   4.575  1.00  0.00     0.003 A 
HETATM   21  C   UNL     1      43.005 -16.460   3.963  1.00  0.00     0.014 A 
ENDBRANCH  10  15
ENDBRANCH   8   9
ENDBRANCH   4   8
BRANCH   1  22
HETATM   22  C   UNL     1      43.359 -11.340   6.874  1.00  0.00     0.222 C 
HETATM   23  N   UNL     1      44.115 -10.326   7.407  1.00  0.00    -0.357 N 
HETATM   24  H   UNL     1      43.850  -9.360   7.256  1.00  0.00     0.162 HD
HETATM   25  O   UNL     1      43.574 -12.531   7.072  1.00  0.00    -0.273 OA
BRANCH  23  26
HETATM   26  C   UNL     1      45.238 -10.583   8.303  1.00  0.00     0.076 C 
HETATM   27  C   UNL     1      45.312  -9.496   9.372  1.00  0.00     0.032 C 
HETATM   28  C   UNL     1      46.539 -10.659   7.513  1.00  0.00     0.032 C 
ENDBRANCH  23  26
ENDBRANCH   1  22
TORSDOF 5
ENDMDL
MODEL 6
REMARK VINA RESULT:      -7.6      5.112      7.979
REMARK  5 active torsions:
REMARK  status: ('A' for Active; 'I' for Inactive)
REMARK    1  A    between atoms: C_2  and  N_3 
REMARK       I    between atoms: N_3  and  C_4 
REMARK    2  A    between atoms: C_4  and  C_5 
REMARK    3  A    between atoms: N_8  and  C_10 
REMARK    4  A    between atoms: C_10  and  C_11 
REMARK    5  A    between atoms: C_12  and  C_13 
ROOT
HETATM    1  C   UNL     1      41.737 -16.010   6.240  1.00  0.00     0.081 C 
HETATM    2  C   UNL     1      40.707 -14.968   6.673  1.00  0.00     0.042 C 
HETATM    3  C   UNL     1      41.038 -13.580   6.132  1.00  0.00     0.236 C 
HETATM    4  N   UNL     1      42.416 -13.163   6.589  1.00  0.00    -0.067 N 
HETATM    5  H   UNL     1      42.392 -13.127   7.613  1.00  0.00     0.280 HD
HETATM    6  C   UNL     1      43.490 -14.142   6.173  1.00  0.00     0.236 C 
HETATM    7  C   UNL     1      43.146 -15.554   6.630  1.00  0.00     0.042 C 
ENDROOT
BRANCH   4   8
HETATM    8  C   UNL     1      42.788 -11.763   6.112  1.00  0.00     0.277 C 
BRANCH   8   9
HETATM    9  C   UNL     1      44.116 -11.288   6.580  1.00  0.00     0.016 A 
HETATM   10  C   UNL     1      44.468 -10.640   7.812  1.00  0.00     0.096 A 
HETATM   11  N   UNL     1      45.787 -10.408   7.855  1.00  0.00    -0.174 NA
HETATM   12  N   UNL     1      46.283 -10.933   6.734  1.00  0.00    -0.288 N 
HETATM   13  H   UNL     1      47.290 -10.897   6.589  1.00  0.00     0.188 HD
HETATM   14  C   UNL     1      45.325 -11.469   5.931  1.00  0.00     0.120 A 
BRANCH  10  15
HETATM   15  C   UNL     1      43.634 -10.260   8.959  1.00  0.00    -0.003 A 
HETATM   16  C   UNL     1      42.478  -9.487   8.814  1.00  0.00     0.037 A 
HETATM   17  C   UNL     1      41.705  -9.157   9.931  1.00  0.00     0.035 A 
HETATM   18 CL   UNL     1      40.275  -8.228   9.710  1.00  0.00    -0.084 Cl
HETATM   19  C   UNL     1      42.078  -9.572  11.205  1.00  0.00     0.024 A 
HETATM   20  C   UNL     1      43.240 -10.323  11.366  1.00  0.00     0.003 A 
HETATM   21  C   UNL     1      44.010 -10.665  10.251  1.00  0.00     0.014 A 
ENDBRANCH  10  15
ENDBRANCH   8   9
ENDBRANCH   4   8
BRANCH   1  22
HETATM   22  C   UNL     1      41.607 -16.239   4.740  1.00  0.00     0.222 C 
HETATM   23  N   UNL     1      42.723 -16.779   4.151  1.00  0.00    -0.357 N 
HETATM   24  H   UNL     1      43.552 -16.964   4.702  1.00  0.00     0.162 HD
HETATM   25  O   UNL     1      40.546 -16.054   4.156  1.00  0.00    -0.273 OA
BRANCH  23  26
HETATM   26  C   UNL     1      42.728 -17.223   2.760  1.00  0.00     0.076 C 
HETATM   27  C   UNL     1      43.517 -18.523   2.630  1.00  0.00     0.032 C 
HETATM   28  C   UNL     1      43.312 -16.139   1.861  1.00  0.00     0.032 C 
ENDBRANCH  23  26
ENDBRANCH   1  22
TORSDOF 5
ENDMDL
MODEL 7
REMARK VINA RESULT:      -7.6      5.534      8.160
REMARK  5 active torsions:
REMARK  status: ('A' for Active; 'I' for Inactive)
REMARK    1  A    between atoms: C_2  and  N_3 
REMARK       I    between atoms: N_3  and  C_4 
REMARK    2  A    between atoms: C_4  and  C_5 
REMARK    3  A    between atoms: N_8  and  C_10 
REMARK    4  A    between atoms: C_10  and  C_11 
REMARK    5  A    between atoms: C_12  and  C_13 
ROOT
HETATM    1  C   UNL     1      45.278  -9.129   9.117  1.00  0.00     0.081 C 
HETATM    2  C   UNL     1      44.153  -8.415   8.370  1.00  0.00     0.042 C 
HETATM    3  C   UNL     1      43.100  -9.392   7.854  1.00  0.00     0.236 C 
HETATM    4  N   UNL     1      43.746 -10.419   6.954  1.00  0.00    -0.067 N 
HETATM    5  H   UNL     1      44.148  -9.910   6.161  1.00  0.00     0.280 HD
HETATM    6  C   UNL     1      44.857 -11.181   7.641  1.00  0.00     0.236 C 
HETATM    7  C   UNL     1      45.884 -10.227   8.238  1.00  0.00     0.042 C 
ENDROOT
BRANCH   4   8
HETATM    8  C   UNL     1      42.734 -11.402   6.374  1.00  0.00     0.277 C 
BRANCH   8   9
HETATM    9  C   UNL     1      42.629 -11.370   4.892  1.00  0.00     0.016 A 
HETATM   10  C   UNL     1      42.726 -12.449   3.950  1.00  0.00     0.096 A 
HETATM   11  N   UNL     1      42.537 -11.995   2.703  1.00  0.00    -0.174 NA
HETATM   12  N   UNL     1      42.268 -10.695   2.828  1.00  0.00    -0.288 N 
HETATM   13  H   UNL     1      42.053 -10.164   1.987  1.00  0.00     0.188 HD
HETATM   14  C   UNL     1      42.315 -10.266   4.119  1.00  0.00     0.120 A 
BRANCH  10  15
HETATM   15  C   UNL     1      42.954 -13.883   4.165  1.00  0.00    -0.003 A 
HETATM   16  C   UNL     1      42.936 -14.805   3.114  1.00  0.00     0.037 A 
HETATM   17  C   UNL     1      43.170 -16.160   3.359  1.00  0.00     0.035 A 
HETATM   18 CL   UNL     1      43.167 -17.261   2.037  1.00  0.00    -0.084 Cl
HETATM   19  C   UNL     1      43.405 -16.621   4.651  1.00  0.00     0.024 A 
HETATM   20  C   UNL     1      43.404 -15.718   5.710  1.00  0.00     0.003 A 
HETATM   21  C   UNL     1      43.181 -14.359   5.468  1.00  0.00     0.014 A 
ENDBRANCH  10  15
ENDBRANCH   8   9
ENDBRANCH   4   8
BRANCH   1  22
HETATM   22  C   UNL     1      44.727  -9.685  10.424  1.00  0.00     0.222 C 
HETATM   23  N   UNL     1      43.895  -8.827  11.099  1.00  0.00    -0.357 N 
HETATM   24  H   UNL     1      43.717  -7.898  10.736  1.00  0.00     0.162 HD
HETATM   25  O   UNL     1      44.934 -10.845  10.762  1.00  0.00    -0.273 OA
BRANCH  23  26
HETATM   26  C   UNL     1      43.143  -9.243  12.278  1.00  0.00     0.076 C 
HETATM   27  C   UNL     1      41.782  -9.796  11.861  1.00  0.00     0.032 C 
HETATM   28  C   UNL     1      42.982  -8.075  13.244  1.00  0.00     0.032 C 
ENDBRANCH  23  26
ENDBRANCH   1  22
TORSDOF 5
ENDMDL
MODEL 8
REMARK VINA RESULT:      -7.3     14.133     16.965
REMARK  5 active torsions:
REMARK  status: ('A' for Active; 'I' for Inactive)
REMARK    1  A    between atoms: C_2  and  N_3 
REMARK       I    between atoms: N_3  and  C_4 
REMARK    2  A    between atoms: C_4  and  C_5 
REMARK    3  A    between atoms: N_8  and  C_10 
REMARK    4  A    between atoms: C_10  and  C_11 
REMARK    5  A    between atoms: C_12  and  C_13 
ROOT
HETATM    1  C   UNL     1      49.357 -29.998  -1.494  1.00  0.00     0.081 C 
HETATM    2  C   UNL     1      48.629 -28.856  -0.786  1.00  0.00     0.042 C 
HETATM    3  C   UNL     1      47.764 -29.358   0.367  1.00  0.00     0.236 C 
HETATM    4  N   UNL     1      46.765 -30.370  -0.140  1.00  0.00    -0.067 N 
HETATM    5  H   UNL     1      46.170 -29.886  -0.820  1.00  0.00     0.280 HD
HETATM    6  C   UNL     1      47.421 -31.543  -0.834  1.00  0.00     0.236 C 
HETATM    7  C   UNL     1      48.355 -31.068  -1.940  1.00  0.00     0.042 C 
ENDROOT
BRANCH   4   8
HETATM    8  C   UNL     1      45.842 -30.880   0.963  1.00  0.00     0.277 C 
BRANCH   8   9
HETATM    9  C   UNL     1      44.507 -30.229   0.995  1.00  0.00     0.016 A 
HETATM   10  C   UNL     1      43.827 -29.496  -0.036  1.00  0.00     0.096 A 
HETATM   11  N   UNL     1      42.620 -29.104   0.393  1.00  0.00    -0.174 NA
HETATM   12  N   UNL     1      42.490 -29.607   1.621  1.00  0.00    -0.288 N 
HETATM   13  H   UNL     1      41.614 -29.453   2.116  1.00  0.00     0.188 HD
HETATM   14  C   UNL     1      43.595 -30.286   2.034  1.00  0.00     0.120 A 
BRANCH  10  15
HETATM   15  C   UNL     1      44.240 -29.177  -1.408  1.00  0.00    -0.003 A 
HETATM   16  C   UNL     1      43.972 -30.031  -2.482  1.00  0.00     0.037 A 
HETATM   17  C   UNL     1      44.372 -29.684  -3.775  1.00  0.00     0.035 A 
HETATM   18 CL   UNL     1      44.000 -30.746  -5.077  1.00  0.00    -0.084 Cl
HETATM   19  C   UNL     1      45.059 -28.499  -4.016  1.00  0.00     0.024 A 
HETATM   20  C   UNL     1      45.353 -27.651  -2.952  1.00  0.00     0.003 A 
HETATM   21  C   UNL     1      44.945 -27.988  -1.658  1.00  0.00     0.014 A 
ENDBRANCH  10  15
ENDBRANCH   8   9
ENDBRANCH   4   8
BRANCH   1  22
HETATM   22  C   UNL     1      50.415 -30.565  -0.556  1.00  0.00     0.222 C 
HETATM   23  N   UNL     1      50.981 -31.739  -0.985  1.00  0.00    -0.357 N 
HETATM   24  H   UNL     1      50.668 -32.173  -1.845  1.00  0.00     0.162 HD
HETATM   25  O   UNL     1      50.789 -29.945   0.433  1.00  0.00    -0.273 OA
BRANCH  23  26
HETATM   26  C   UNL     1      52.125 -32.341  -0.307  1.00  0.00     0.076 C 
HETATM   27  C   UNL     1      53.250 -32.595  -1.308  1.00  0.00     0.032 C 
HETATM   28  C   UNL     1      51.711 -33.635   0.385  1.00  0.00     0.032 C 
ENDBRANCH  23  26
ENDBRANCH   1  22
TORSDOF 5
ENDMDL
MODEL 9
REMARK VINA RESULT:      -7.3      6.262      8.896
REMARK  5 active torsions:
REMARK  status: ('A' for Active; 'I' for Inactive)
REMARK    1  A    between atoms: C_2  and  N_3 
REMARK       I    between atoms: N_3  and  C_4 
REMARK    2  A    between atoms: C_4  and  C_5 
REMARK    3  A    between atoms: N_8  and  C_10 
REMARK    4  A    between atoms: C_10  and  C_11 
REMARK    5  A    between atoms: C_12  and  C_13 
ROOT
HETATM    1  C   UNL     1      41.672 -12.114   3.577  1.00  0.00     0.081 C 
HETATM    2  C   UNL     1      43.163 -11.778   3.571  1.00  0.00     0.042 C 
HETATM    3  C   UNL     1      43.800 -11.982   4.942  1.00  0.00     0.236 C 
HETATM    4  N   UNL     1      43.087 -11.142   5.974  1.00  0.00    -0.067 N 
HETATM    5  H   UNL     1      43.203 -10.163   5.693  1.00  0.00     0.280 HD
HETATM    6  C   UNL     1      41.607 -11.440   6.049  1.00  0.00     0.236 C 
HETATM    7  C   UNL     1      40.957 -11.323   4.676  1.00  0.00     0.042 C 
ENDROOT
BRANCH   4   8
HETATM    8  C   UNL     1      43.706 -11.274   7.361  1.00  0.00     0.277 C 
BRANCH   8   9
HETATM    9  C   UNL     1      44.965 -10.507   7.547  1.00  0.00     0.016 A 
HETATM   10  C   UNL     1      45.208  -9.334   8.338  1.00  0.00     0.096 A 
HETATM   11  N   UNL     1      46.497  -8.977   8.257  1.00  0.00    -0.174 NA
HETATM   12  N   UNL     1      47.082  -9.906   7.500  1.00  0.00    -0.288 N 
HETATM   13  H   UNL     1      48.086  -9.839   7.345  1.00  0.00     0.188 HD
HETATM   14  C   UNL     1      46.209 -10.844   7.042  1.00  0.00     0.120 A 
BRANCH  10  15
HETATM   15  C   UNL     1      44.300  -8.555   9.189  1.00  0.00    -0.003 A 
HETATM   16  C   UNL     1      44.083  -8.875  10.533  1.00  0.00     0.037 A 
HETATM   17  C   UNL     1      43.220  -8.100  11.312  1.00  0.00     0.035 A 
HETATM   18 CL   UNL     1      43.000  -8.507  12.969  1.00  0.00    -0.084 Cl
HETATM   19  C   UNL     1      42.546  -7.013  10.765  1.00  0.00     0.024 A 
HETATM   20  C   UNL     1      42.735  -6.698   9.422  1.00  0.00     0.003 A 
HETATM   21  C   UNL     1      43.606  -7.463   8.642  1.00  0.00     0.014 A 
ENDBRANCH  10  15
ENDBRANCH   8   9
ENDBRANCH   4   8
BRANCH   1  22
HETATM   22  C   UNL     1      41.507 -13.617   3.758  1.00  0.00     0.222 C 
HETATM   23  N   UNL     1      42.504 -14.369   3.188  1.00  0.00    -0.357 N 
HETATM   24  H   UNL     1      43.251 -13.920   2.673  1.00  0.00     0.162 HD
HETATM   25  O   UNL     1      40.611 -14.082   4.453  1.00  0.00    -0.273 OA
BRANCH  23  26
HETATM   26  C   UNL     1      42.605 -15.810   3.399  1.00  0.00     0.076 C 
HETATM   27  C   UNL     1      43.498 -16.099   4.604  1.00  0.00     0.032 C 
HETATM   28  C   UNL     1      43.143 -16.492   2.147  1.00  0.00     0.032 C 
ENDBRANCH  23  26
ENDBRANCH   1  22
TORSDOF 5
ENDMDL
MODEL 10
REMARK VINA RESULT:      -7.2      3.340      8.760
REMARK  5 active torsions:
REMARK  status: ('A' for Active; 'I' for Inactive)
REMARK    1  A    between atoms: C_2  and  N_3 
REMARK       I    between atoms: N_3  and  C_4 
REMARK    2  A    between atoms: C_4  and  C_5 
REMARK    3  A    between atoms: N_8  and  C_10 
REMARK    4  A    between atoms: C_10  and  C_11 
REMARK    5  A    between atoms: C_12  and  C_13 
ROOT
HETATM    1  C   UNL     1      40.787 -14.783   3.185  1.00  0.00     0.081 C 
HETATM    2  C   UNL     1      39.760 -15.672   2.486  1.00  0.00     0.042 C 
HETATM    3  C   UNL     1      39.940 -15.670   0.971  1.00  0.00     0.236 C 
HETATM    4  N   UNL     1      39.846 -14.258   0.441  1.00  0.00    -0.067 N 
HETATM    5  H   UNL     1      38.906 -13.917   0.668  1.00  0.00     0.280 HD
HETATM    6  C   UNL     1      40.854 -13.327   1.077  1.00  0.00     0.236 C 
HETATM    7  C   UNL     1      40.751 -13.369   2.596  1.00  0.00     0.042 C 
ENDROOT
BRANCH   4   8
HETATM    8  C   UNL     1      39.979 -14.196  -1.077  1.00  0.00     0.277 C 
BRANCH   8   9
HETATM    9  C   UNL     1      38.899 -13.434  -1.756  1.00  0.00     0.016 A 
HETATM   10  C   UNL     1      38.621 -12.026  -1.726  1.00  0.00     0.096 A 
HETATM   11  N   UNL     1      37.571 -11.743  -2.509  1.00  0.00    -0.174 NA
HETATM   12  N   UNL     1      37.217 -12.899  -3.072  1.00  0.00    -0.288 N 
HETATM   13  H   UNL     1      36.451 -12.895  -3.742  1.00  0.00     0.188 HD
HETATM   14  C   UNL     1      37.976 -13.947  -2.652  1.00  0.00     0.120 A 
BRANCH  10  15
HETATM   15  C   UNL     1      39.310 -10.935  -1.027  1.00  0.00    -0.003 A 
HETATM   16  C   UNL     1      40.510 -10.393  -1.497  1.00  0.00     0.037 A 
HETATM   17  C   UNL     1      41.129  -9.346  -0.809  1.00  0.00     0.035 A 
HETATM   18 CL   UNL     1      42.590  -8.685  -1.433  1.00  0.00    -0.084 Cl
HETATM   19  C   UNL     1      40.577  -8.837   0.362  1.00  0.00     0.024 A 
HETATM   20  C   UNL     1      39.395  -9.383   0.854  1.00  0.00     0.003 A 
HETATM   21  C   UNL     1      38.767 -10.423   0.163  1.00  0.00     0.014 A 
ENDBRANCH  10  15
ENDBRANCH   8   9
ENDBRANCH   4   8
BRANCH   1  22
HETATM   22  C   UNL     1      42.164 -15.421   3.051  1.00  0.00     0.222 C 
HETATM   23  N   UNL     1      42.187 -16.772   3.291  1.00  0.00    -0.357 N 
HETATM   24  H   UNL     1      41.341 -17.258   3.562  1.00  0.00     0.162 HD
HETATM   25  O   UNL     1      43.129 -14.780   2.652  1.00  0.00    -0.273 OA
BRANCH  23  26
HETATM   26  C   UNL     1      43.377 -17.582   3.048  1.00  0.00     0.076 C 
HETATM   27  C   UNL     1      43.005 -18.832   2.254  1.00  0.00     0.032 C 
HETATM   28  C   UNL     1      44.042 -17.955   4.368  1.00  0.00     0.032 C 
ENDBRANCH  23  26
ENDBRANCH   1  22
TORSDOF 5
ENDMDL
