MODEL 1
REMARK VINA RESULT:      -9.7      0.000      0.000
REMARK  8 active torsions:
REMARK  status: ('A' for Active; 'I' for Inactive)
REMARK    1  A    between atoms: C_4  and  S_5 
REMARK    2  A    between atoms: S_5  and  C_6 
REMARK    3  A    between atoms: C_6  and  C_7 
REMARK       I    between atoms: C_7  and  N_8 
REMARK    4  A    between atoms: N_8  and  C_9 
REMARK    5  A    between atoms: C_20  and  C_21 
REMARK    6  A    between atoms: C_27  and  C_28 
REMARK       I    between atoms: C_28  and  N_29 
REMARK    7  A    between atoms: N_29  and  C_30 
REMARK    8  A    between atoms: C_31  and  O_32 
ROOT
HETATM    1  C   UNL     1      43.384 -13.830   7.060  1.00  0.00     0.069 C 
HETATM    2  C   UNL     1      42.258 -13.243   6.247  1.00  0.00     0.019 C 
HETATM    3  N   UNL     1      41.969 -11.916   6.471  1.00  0.00    -0.353 N 
HETATM    4  C   UNL     1      40.963 -11.198   5.853  1.00  0.00     0.088 C 
HETATM    5  C   UNL     1      40.247 -11.767   4.849  1.00  0.00     0.069 C 
HETATM    6  C   UNL     1      39.248 -11.048   4.120  1.00  0.00     0.099 C 
HETATM    7  N   UNL     1      38.434 -10.452   3.546  1.00  0.00    -0.192 NA
HETATM    8  C   UNL     1      40.409 -13.265   4.544  1.00  0.00     0.106 C 
HETATM    9  C   UNL     1      41.511 -13.928   5.356  1.00  0.00     0.046 C 
HETATM   10  H   UNL     1      42.534 -11.399   7.138  1.00  0.00     0.166 HD
ENDROOT
BRANCH   4  11
HETATM   11  S   UNL     1      40.660  -9.578   6.455  1.00  0.00    -0.102 SA
BRANCH  11  12
HETATM   12  C   UNL     1      39.490  -9.838   7.827  1.00  0.00     0.184 C 
BRANCH  12  13
HETATM   13  C   UNL     1      39.876  -9.175   9.144  1.00  0.00     0.231 C 
HETATM   14  N   UNL     1      40.865  -9.834   9.850  1.00  0.00    -0.325 N 
HETATM   15  H   UNL     1      41.151 -10.753   9.526  1.00  0.00     0.169 HD
HETATM   16  O   UNL     1      39.337  -8.131   9.507  1.00  0.00    -0.272 OA
BRANCH  14  17
HETATM   17  C   UNL     1      41.539  -9.370  11.012  1.00  0.00     0.056 A 
HETATM   18  C   UNL     1      40.991  -9.666  12.274  1.00  0.00     0.060 A 
HETATM   19 CL   UNL     1      39.506 -10.545  12.415  1.00  0.00    -0.082 Cl
HETATM   20  C   UNL     1      41.632  -9.264  13.452  1.00  0.00     0.026 A 
HETATM   21  C   UNL     1      42.832  -8.560  13.385  1.00  0.00     0.002 A 
HETATM   22  C   UNL     1      43.387  -8.259  12.146  1.00  0.00     0.002 A 
HETATM   23  C   UNL     1      42.745  -8.662  10.968  1.00  0.00     0.031 A 
ENDBRANCH  14  17
ENDBRANCH  12  13
ENDBRANCH  11  12
ENDBRANCH   4  11
BRANCH   8  24
HETATM   24  C   UNL     1      40.510 -13.548   3.047  1.00  0.00    -0.044 A 
HETATM   25  C   UNL     1      39.771 -14.568   2.432  1.00  0.00     0.008 A 
HETATM   26  C   UNL     1      39.905 -14.809   1.063  1.00  0.00     0.001 A 
HETATM   27  C   UNL     1      40.782 -14.045   0.296  1.00  0.00     0.000 A 
HETATM   28  C   UNL     1      41.531 -13.035   0.895  1.00  0.00     0.001 A 
HETATM   29  C   UNL     1      41.396 -12.788   2.261  1.00  0.00     0.008 A 
ENDBRANCH   8  24
BRANCH   9  30
HETATM   30  C   UNL     1      41.648 -15.404   5.283  1.00  0.00     0.255 C 
HETATM   31  N   UNL     1      42.664 -15.734   4.406  1.00  0.00    -0.321 N 
HETATM   32  H   UNL     1      43.075 -14.953   3.908  1.00  0.00     0.169 HD
HETATM   33  O   UNL     1      40.827 -16.117   5.837  1.00  0.00    -0.268 OA
BRANCH  31  34
HETATM   34  C   UNL     1      43.071 -17.009   3.953  1.00  0.00     0.068 A 
HETATM   35  C   UNL     1      43.788 -17.966   4.683  1.00  0.00     0.095 A 
HETATM   36  C   UNL     1      44.117 -19.198   4.095  1.00  0.00     0.039 A 
HETATM   37  C   UNL     1      43.723 -19.492   2.791  1.00  0.00     0.003 A 
HETATM   38  C   UNL     1      43.025 -18.545   2.052  1.00  0.00     0.002 A 
HETATM   39  C   UNL     1      42.713 -17.310   2.625  1.00  0.00     0.032 A 
BRANCH  35  40
HETATM   40  O   UNL     1      44.325 -17.664   5.905  1.00  0.00    -0.354 OA
HETATM   41  C   UNL     1      43.493 -18.098   6.980  1.00  0.00     0.210 C 
ENDBRANCH  35  40
ENDBRANCH  31  34
ENDBRANCH   9  30
TORSDOF 8
ENDMDL
MODEL 2
REMARK VINA RESULT:      -9.3      4.625      8.081
REMARK  8 active torsions:
REMARK  status: ('A' for Active; 'I' for Inactive)
REMARK    1  A    between atoms: C_4  and  S_5 
REMARK    2  A    between atoms: S_5  and  C_6 
REMARK    3  A    between atoms: C_6  and  C_7 
REMARK       I    between atoms: C_7  and  N_8 
REMARK    4  A    between atoms: N_8  and  C_9 
REMARK    5  A    between atoms: C_20  and  C_21 
REMARK    6  A    between atoms: C_27  and  C_28 
REMARK       I    between atoms: C_28  and  N_29 
REMARK    7  A    between atoms: N_29  and  C_30 
REMARK    8  A    between atoms: C_31  and  O_32 
ROOT
HETATM    1  C   UNL     1      39.689 -15.363   2.254  1.00  0.00     0.069 C 
HETATM    2  C   UNL     1      40.253 -14.016   2.629  1.00  0.00     0.019 C 
HETATM    3  N   UNL     1      39.360 -12.969   2.672  1.00  0.00    -0.353 N 
HETATM    4  C   UNL     1      39.676 -11.656   2.965  1.00  0.00     0.088 C 
HETATM    5  C   UNL     1      40.934 -11.338   3.365  1.00  0.00     0.069 C 
HETATM    6  C   UNL     1      41.299 -10.011   3.757  1.00  0.00     0.099 C 
HETATM    7  N   UNL     1      41.580  -8.927   4.062  1.00  0.00    -0.192 NA
HETATM    8  C   UNL     1      42.053 -12.390   3.289  1.00  0.00     0.106 C 
HETATM    9  C   UNL     1      41.555 -13.769   2.886  1.00  0.00     0.046 C 
HETATM   10  H   UNL     1      38.380 -13.155   2.483  1.00  0.00     0.166 HD
ENDROOT
BRANCH   4  11
HETATM   11  S   UNL     1      38.402 -10.468   2.757  1.00  0.00    -0.102 SA
BRANCH  11  12
HETATM   12  C   UNL     1      38.635  -9.875   1.051  1.00  0.00     0.184 C 
BRANCH  12  13
HETATM   13  C   UNL     1      39.115 -10.926   0.057  1.00  0.00     0.231 C 
HETATM   14  N   UNL     1      38.190 -11.915  -0.222  1.00  0.00    -0.325 N 
HETATM   15  H   UNL     1      37.346 -11.953   0.341  1.00  0.00     0.169 HD
HETATM   16  O   UNL     1      40.235 -10.856  -0.445  1.00  0.00    -0.272 OA
BRANCH  14  17
HETATM   17  C   UNL     1      38.290 -12.919  -1.223  1.00  0.00     0.056 A 
HETATM   18  C   UNL     1      37.544 -12.769  -2.407  1.00  0.00     0.060 A 
HETATM   19 CL   UNL     1      36.494 -11.410  -2.630  1.00  0.00    -0.082 Cl
HETATM   20  C   UNL     1      37.631 -13.709  -3.440  1.00  0.00     0.026 A 
HETATM   21  C   UNL     1      38.467 -14.816  -3.306  1.00  0.00     0.002 A 
HETATM   22  C   UNL     1      39.211 -14.979  -2.142  1.00  0.00     0.002 A 
HETATM   23  C   UNL     1      39.124 -14.038  -1.109  1.00  0.00     0.031 A 
ENDBRANCH  14  17
ENDBRANCH  12  13
ENDBRANCH  11  12
ENDBRANCH   4  11
BRANCH   8  24
HETATM   24  C   UNL     1      42.923 -12.407   4.544  1.00  0.00    -0.044 A 
HETATM   25  C   UNL     1      42.581 -13.160   5.676  1.00  0.00     0.008 A 
HETATM   26  C   UNL     1      43.392 -13.135   6.812  1.00  0.00     0.001 A 
HETATM   27  C   UNL     1      44.545 -12.351   6.837  1.00  0.00     0.000 A 
HETATM   28  C   UNL     1      44.891 -11.589   5.724  1.00  0.00     0.001 A 
HETATM   29  C   UNL     1      44.086 -11.617   4.585  1.00  0.00     0.008 A 
ENDBRANCH   8  24
BRANCH   9  30
HETATM   30  C   UNL     1      42.559 -14.826   2.606  1.00  0.00     0.255 C 
HETATM   31  N   UNL     1      42.255 -15.960   3.335  1.00  0.00    -0.321 N 
HETATM   32  H   UNL     1      41.482 -15.863   3.983  1.00  0.00     0.169 HD
HETATM   33  O   UNL     1      43.546 -14.562   1.939  1.00  0.00    -0.268 OA
BRANCH  31  34
HETATM   34  C   UNL     1      42.988 -17.162   3.460  1.00  0.00     0.068 A 
HETATM   35  C   UNL     1      43.850 -17.510   4.509  1.00  0.00     0.095 A 
HETATM   36  C   UNL     1      44.507 -18.751   4.496  1.00  0.00     0.039 A 
HETATM   37  C   UNL     1      44.299 -19.656   3.457  1.00  0.00     0.003 A 
HETATM   38  C   UNL     1      43.459 -19.315   2.404  1.00  0.00     0.002 A 
HETATM   39  C   UNL     1      42.818 -18.074   2.402  1.00  0.00     0.032 A 
BRANCH  35  40
HETATM   40  O   UNL     1      44.201 -16.597   5.465  1.00  0.00    -0.354 OA
HETATM   41  C   UNL     1      43.682 -16.940   6.750  1.00  0.00     0.210 C 
ENDBRANCH  35  40
ENDBRANCH  31  34
ENDBRANCH   9  30
TORSDOF 8
ENDMDL
MODEL 3
REMARK VINA RESULT:      -9.1      2.677      3.293
REMARK  8 active torsions:
REMARK  status: ('A' for Active; 'I' for Inactive)
REMARK    1  A    between atoms: C_4  and  S_5 
REMARK    2  A    between atoms: S_5  and  C_6 
REMARK    3  A    between atoms: C_6  and  C_7 
REMARK       I    between atoms: C_7  and  N_8 
REMARK    4  A    between atoms: N_8  and  C_9 
REMARK    5  A    between atoms: C_20  and  C_21 
REMARK    6  A    between atoms: C_27  and  C_28 
REMARK       I    between atoms: C_28  and  N_29 
REMARK    7  A    between atoms: N_29  and  C_30 
REMARK    8  A    between atoms: C_31  and  O_32 
ROOT
HETATM    1  C   UNL     1      43.666 -12.391   4.206  1.00  0.00     0.069 C 
HETATM    2  C   UNL     1      42.296 -12.361   3.577  1.00  0.00     0.019 C 
HETATM    3  N   UNL     1      41.442 -11.377   4.019  1.00  0.00    -0.353 N 
HETATM    4  C   UNL     1      40.140 -11.193   3.593  1.00  0.00     0.088 C 
HETATM    5  C   UNL     1      39.652 -11.944   2.572  1.00  0.00     0.069 C 
HETATM    6  C   UNL     1      38.340 -11.745   2.037  1.00  0.00     0.099 C 
HETATM    7  N   UNL     1      37.269 -11.577   1.622  1.00  0.00    -0.192 NA
HETATM    8  C   UNL     1      40.467 -13.132   2.035  1.00  0.00     0.106 C 
HETATM    9  C   UNL     1      41.852 -13.238   2.653  1.00  0.00     0.046 C 
HETATM   10  H   UNL     1      41.777 -10.714   4.712  1.00  0.00     0.166 HD
ENDROOT
BRANCH   4  11
HETATM   11  S   UNL     1      39.185  -9.998   4.453  1.00  0.00    -0.102 SA
BRANCH  11  12
HETATM   12  C   UNL     1      39.839 -10.061   6.152  1.00  0.00     0.184 C 
BRANCH  12  13
HETATM   13  C   UNL     1      41.253  -9.520   6.325  1.00  0.00     0.231 C 
HETATM   14  N   UNL     1      41.933 -10.031   7.415  1.00  0.00    -0.325 N 
HETATM   15  H   UNL     1      41.414 -10.597   8.079  1.00  0.00     0.169 HD
HETATM   16  O   UNL     1      41.720  -8.707   5.529  1.00  0.00    -0.272 OA
BRANCH  14  17
HETATM   17  C   UNL     1      43.306  -9.845   7.729  1.00  0.00     0.056 A 
HETATM   18  C   UNL     1      43.700  -8.645   8.350  1.00  0.00     0.060 A 
HETATM   19 CL   UNL     1      42.546  -7.401   8.694  1.00  0.00    -0.082 Cl
HETATM   20  C   UNL     1      45.033  -8.423   8.714  1.00  0.00     0.026 A 
HETATM   21  C   UNL     1      45.995  -9.400   8.461  1.00  0.00     0.002 A 
HETATM   22  C   UNL     1      45.622 -10.591   7.848  1.00  0.00     0.002 A 
HETATM   23  C   UNL     1      44.288 -10.812   7.485  1.00  0.00     0.031 A 
ENDBRANCH  14  17
ENDBRANCH  12  13
ENDBRANCH  11  12
ENDBRANCH   4  11
BRANCH   8  24
HETATM   24  C   UNL     1      40.482 -13.185   0.509  1.00  0.00    -0.044 A 
HETATM   25  C   UNL     1      41.026 -12.151  -0.266  1.00  0.00     0.008 A 
HETATM   26  C   UNL     1      41.003 -12.227  -1.660  1.00  0.00     0.001 A 
HETATM   27  C   UNL     1      40.429 -13.327  -2.296  1.00  0.00     0.000 A 
HETATM   28  C   UNL     1      39.876 -14.356  -1.539  1.00  0.00     0.001 A 
HETATM   29  C   UNL     1      39.902 -14.287  -0.147  1.00  0.00     0.008 A 
ENDBRANCH   8  24
BRANCH   9  30
HETATM   30  C   UNL     1      42.668 -14.441   2.349  1.00  0.00     0.255 C 
HETATM   31  N   UNL     1      42.310 -15.471   3.197  1.00  0.00    -0.321 N 
HETATM   32  H   UNL     1      41.640 -15.226   3.916  1.00  0.00     0.169 HD
HETATM   33  O   UNL     1      43.592 -14.362   1.557  1.00  0.00    -0.268 OA
BRANCH  31  34
HETATM   34  C   UNL     1      42.888 -16.753   3.336  1.00  0.00     0.068 A 
HETATM   35  C   UNL     1      43.655 -17.211   4.416  1.00  0.00     0.095 A 
HETATM   36  C   UNL     1      44.160 -18.521   4.414  1.00  0.00     0.039 A 
HETATM   37  C   UNL     1      43.894 -19.385   3.354  1.00  0.00     0.003 A 
HETATM   38  C   UNL     1      43.148 -18.937   2.271  1.00  0.00     0.002 A 
HETATM   39  C   UNL     1      42.660 -17.629   2.258  1.00  0.00     0.032 A 
BRANCH  35  40
HETATM   40  O   UNL     1      44.069 -16.355   5.400  1.00  0.00    -0.354 OA
HETATM   41  C   UNL     1      43.363 -16.564   6.624  1.00  0.00     0.210 C 
ENDBRANCH  35  40
ENDBRANCH  31  34
ENDBRANCH   9  30
TORSDOF 8
ENDMDL
MODEL 4
REMARK VINA RESULT:      -8.8      4.975      8.338
REMARK  8 active torsions:
REMARK  status: ('A' for Active; 'I' for Inactive)
REMARK    1  A    between atoms: C_4  and  S_5 
REMARK    2  A    between atoms: S_5  and  C_6 
REMARK    3  A    between atoms: C_6  and  C_7 
REMARK       I    between atoms: C_7  and  N_8 
REMARK    4  A    between atoms: N_8  and  C_9 
REMARK    5  A    between atoms: C_20  and  C_21 
REMARK    6  A    between atoms: C_27  and  C_28 
REMARK       I    between atoms: C_28  and  N_29 
REMARK    7  A    between atoms: N_29  and  C_30 
REMARK    8  A    between atoms: C_31  and  O_32 
ROOT
HETATM    1  C   UNL     1      39.930 -16.082   0.984  1.00  0.00     0.069 C 
HETATM    2  C   UNL     1      40.314 -14.639   1.195  1.00  0.00     0.019 C 
HETATM    3  N   UNL     1      39.416 -13.696   0.747  1.00  0.00    -0.353 N 
HETATM    4  C   UNL     1      39.588 -12.327   0.818  1.00  0.00     0.088 C 
HETATM    5  C   UNL     1      40.657 -11.814   1.481  1.00  0.00     0.069 C 
HETATM    6  C   UNL     1      40.845 -10.407   1.656  1.00  0.00     0.099 C 
HETATM    7  N   UNL     1      40.987  -9.262   1.779  1.00  0.00    -0.192 NA
HETATM    8  C   UNL     1      41.779 -12.748   1.965  1.00  0.00     0.106 C 
HETATM    9  C   UNL     1      41.469 -14.221   1.753  1.00  0.00     0.046 C 
HETATM   10  H   UNL     1      38.545 -14.010   0.330  1.00  0.00     0.166 HD
ENDROOT
BRANCH   4  11
HETATM   11  S   UNL     1      38.399 -11.334  -0.006  1.00  0.00    -0.102 SA
BRANCH  11  12
HETATM   12  C   UNL     1      38.713 -11.656  -1.771  1.00  0.00     0.184 C 
BRANCH  12  13
HETATM   13  C   UNL     1      39.967 -11.003  -2.338  1.00  0.00     0.231 C 
HETATM   14  N   UNL     1      40.071  -9.647  -2.088  1.00  0.00    -0.325 N 
HETATM   15  H   UNL     1      39.268  -9.173  -1.686  1.00  0.00     0.169 HD
HETATM   16  O   UNL     1      40.802 -11.666  -2.951  1.00  0.00    -0.272 OA
BRANCH  14  17
HETATM   17  C   UNL     1      41.194  -8.815  -2.343  1.00  0.00     0.056 A 
HETATM   18  C   UNL     1      41.308  -8.202  -3.604  1.00  0.00     0.060 A 
HETATM   19 CL   UNL     1      40.126  -8.480  -4.838  1.00  0.00    -0.082 Cl
HETATM   20  C   UNL     1      42.375  -7.345  -3.897  1.00  0.00     0.026 A 
HETATM   21  C   UNL     1      43.347  -7.087  -2.931  1.00  0.00     0.002 A 
HETATM   22  C   UNL     1      43.249  -7.686  -1.680  1.00  0.00     0.002 A 
HETATM   23  C   UNL     1      42.181  -8.543  -1.388  1.00  0.00     0.031 A 
ENDBRANCH  14  17
ENDBRANCH  12  13
ENDBRANCH  11  12
ENDBRANCH   4  11
BRANCH   8  24
HETATM   24  C   UNL     1      42.231 -12.426   3.388  1.00  0.00    -0.044 A 
HETATM   25  C   UNL     1      41.416 -12.676   4.502  1.00  0.00     0.008 A 
HETATM   26  C   UNL     1      41.857 -12.350   5.786  1.00  0.00     0.001 A 
HETATM   27  C   UNL     1      43.107 -11.762   5.973  1.00  0.00     0.000 A 
HETATM   28  C   UNL     1      43.922 -11.498   4.875  1.00  0.00     0.001 A 
HETATM   29  C   UNL     1      43.488 -11.828   3.592  1.00  0.00     0.008 A 
ENDBRANCH   8  24
BRANCH   9  30
HETATM   30  C   UNL     1      42.543 -15.212   2.016  1.00  0.00     0.255 C 
HETATM   31  N   UNL     1      42.121 -16.112   2.976  1.00  0.00    -0.321 N 
HETATM   32  H   UNL     1      41.220 -15.908   3.392  1.00  0.00     0.169 HD
HETATM   33  O   UNL     1      43.645 -15.057   1.515  1.00  0.00    -0.268 OA
BRANCH  31  34
HETATM   34  C   UNL     1      42.845 -17.150   3.603  1.00  0.00     0.068 A 
HETATM   35  C   UNL     1      43.170 -17.239   4.964  1.00  0.00     0.095 A 
HETATM   36  C   UNL     1      43.894 -18.342   5.444  1.00  0.00     0.039 A 
HETATM   37  C   UNL     1      44.282 -19.367   4.583  1.00  0.00     0.003 A 
HETATM   38  C   UNL     1      43.979 -19.283   3.230  1.00  0.00     0.002 A 
HETATM   39  C   UNL     1      43.276 -18.178   2.744  1.00  0.00     0.032 A 
BRANCH  35  40
HETATM   40  O   UNL     1      42.945 -16.188   5.812  1.00  0.00    -0.354 OA
HETATM   41  C   UNL     1      44.146 -15.743   6.443  1.00  0.00     0.210 C 
ENDBRANCH  35  40
ENDBRANCH  31  34
ENDBRANCH   9  30
TORSDOF 8
ENDMDL
MODEL 5
REMARK VINA RESULT:      -8.7      3.074      9.221
REMARK  8 active torsions:
REMARK  status: ('A' for Active; 'I' for Inactive)
REMARK    1  A    between atoms: C_4  and  S_5 
REMARK    2  A    between atoms: S_5  and  C_6 
REMARK    3  A    between atoms: C_6  and  C_7 
REMARK       I    between atoms: C_7  and  N_8 
REMARK    4  A    between atoms: N_8  and  C_9 
REMARK    5  A    between atoms: C_20  and  C_21 
REMARK    6  A    between atoms: C_27  and  C_28 
REMARK       I    between atoms: C_28  and  N_29 
REMARK    7  A    between atoms: N_29  and  C_30 
REMARK    8  A    between atoms: C_31  and  O_32 
ROOT
HETATM    1  C   UNL     1      43.376 -13.482   7.117  1.00  0.00     0.069 C 
HETATM    2  C   UNL     1      42.874 -12.557   6.038  1.00  0.00     0.019 C 
HETATM    3  N   UNL     1      42.451 -13.152   4.870  1.00  0.00    -0.353 N 
HETATM    4  C   UNL     1      41.983 -12.486   3.753  1.00  0.00     0.088 C 
HETATM    5  C   UNL     1      41.794 -11.141   3.800  1.00  0.00     0.069 C 
HETATM    6  C   UNL     1      41.239 -10.410   2.703  1.00  0.00     0.099 C 
HETATM    7  N   UNL     1      40.796  -9.830   1.799  1.00  0.00    -0.192 NA
HETATM    8  C   UNL     1      42.294 -10.337   5.011  1.00  0.00     0.106 C 
HETATM    9  C   UNL     1      42.843 -11.211   6.127  1.00  0.00     0.046 C 
HETATM   10  H   UNL     1      42.470 -14.165   4.804  1.00  0.00     0.166 HD
ENDROOT
BRANCH   4  11
HETATM   11  S   UNL     1      41.698 -13.450   2.316  1.00  0.00    -0.102 SA
BRANCH  11  12
HETATM   12  C   UNL     1      43.093 -14.621   2.295  1.00  0.00     0.184 C 
BRANCH  12  13
HETATM   13  C   UNL     1      42.792 -16.001   2.865  1.00  0.00     0.231 C 
HETATM   14  N   UNL     1      43.737 -16.964   2.566  1.00  0.00    -0.325 N 
HETATM   15  H   UNL     1      44.461 -16.731   1.893  1.00  0.00     0.169 HD
HETATM   16  O   UNL     1      41.785 -16.197   3.545  1.00  0.00    -0.272 OA
BRANCH  14  17
HETATM   17  C   UNL     1      43.811 -18.282   3.094  1.00  0.00     0.056 A 
HETATM   18  C   UNL     1      44.174 -18.450   4.443  1.00  0.00     0.060 A 
HETATM   19 CL   UNL     1      44.562 -17.085   5.436  1.00  0.00    -0.082 Cl
HETATM   20  C   UNL     1      44.228 -19.722   5.024  1.00  0.00     0.026 A 
HETATM   21  C   UNL     1      43.918 -20.848   4.264  1.00  0.00     0.002 A 
HETATM   22  C   UNL     1      43.557 -20.699   2.929  1.00  0.00     0.002 A 
HETATM   23  C   UNL     1      43.503 -19.426   2.348  1.00  0.00     0.031 A 
ENDBRANCH  14  17
ENDBRANCH  12  13
ENDBRANCH  11  12
ENDBRANCH   4  11
BRANCH   8  24
HETATM   24  C   UNL     1      41.269  -9.314   5.495  1.00  0.00    -0.044 A 
HETATM   25  C   UNL     1      41.530  -7.936   5.480  1.00  0.00     0.008 A 
HETATM   26  C   UNL     1      40.575  -7.032   5.949  1.00  0.00     0.001 A 
HETATM   27  C   UNL     1      39.356  -7.491   6.447  1.00  0.00     0.000 A 
HETATM   28  C   UNL     1      39.087  -8.857   6.477  1.00  0.00     0.001 A 
HETATM   29  C   UNL     1      40.037  -9.762   6.004  1.00  0.00     0.008 A 
ENDBRANCH   8  24
BRANCH   9  30
HETATM   30  C   UNL     1      43.518 -10.549   7.272  1.00  0.00     0.255 C 
HETATM   31  N   UNL     1      42.570 -10.082   8.163  1.00  0.00    -0.321 N 
HETATM   32  H   UNL     1      41.608 -10.183   7.862  1.00  0.00     0.169 HD
HETATM   33  O   UNL     1      44.724 -10.366   7.242  1.00  0.00    -0.268 OA
BRANCH  31  34
HETATM   34  C   UNL     1      42.750  -9.304   9.329  1.00  0.00     0.068 A 
HETATM   35  C   UNL     1      43.436  -9.685  10.490  1.00  0.00     0.095 A 
HETATM   36  C   UNL     1      43.536  -8.796  11.572  1.00  0.00     0.039 A 
HETATM   37  C   UNL     1      42.973  -7.523  11.501  1.00  0.00     0.003 A 
HETATM   38  C   UNL     1      42.278  -7.140  10.361  1.00  0.00     0.002 A 
HETATM   39  C   UNL     1      42.158  -8.028   9.290  1.00  0.00     0.032 A 
BRANCH  35  40
HETATM   40  O   UNL     1      43.868 -10.972  10.663  1.00  0.00    -0.354 OA
HETATM   41  C   UNL     1      43.662 -11.432  11.999  1.00  0.00     0.210 C 
ENDBRANCH  35  40
ENDBRANCH  31  34
ENDBRANCH   9  30
TORSDOF 8
ENDMDL
MODEL 6
REMARK VINA RESULT:      -8.7      2.070      2.600
REMARK  8 active torsions:
REMARK  status: ('A' for Active; 'I' for Inactive)
REMARK    1  A    between atoms: C_4  and  S_5 
REMARK    2  A    between atoms: S_5  and  C_6 
REMARK    3  A    between atoms: C_6  and  C_7 
REMARK       I    between atoms: C_7  and  N_8 
REMARK    4  A    between atoms: N_8  and  C_9 
REMARK    5  A    between atoms: C_20  and  C_21 
REMARK    6  A    between atoms: C_27  and  C_28 
REMARK       I    between atoms: C_28  and  N_29 
REMARK    7  A    between atoms: N_29  and  C_30 
REMARK    8  A    between atoms: C_31  and  O_32 
ROOT
HETATM    1  C   UNL     1      45.031 -11.580   5.105  1.00  0.00     0.069 C 
HETATM    2  C   UNL     1      43.551 -11.480   5.371  1.00  0.00     0.019 C 
HETATM    3  N   UNL     1      43.165 -10.598   6.355  1.00  0.00    -0.353 N 
HETATM    4  C   UNL     1      41.865 -10.377   6.771  1.00  0.00     0.088 C 
HETATM    5  C   UNL     1      40.836 -10.965   6.109  1.00  0.00     0.069 C 
HETATM    6  C   UNL     1      39.468 -10.713   6.443  1.00  0.00     0.099 C 
HETATM    7  N   UNL     1      38.364 -10.504   6.735  1.00  0.00    -0.192 NA
HETATM    8  C   UNL     1      41.122 -12.033   5.039  1.00  0.00     0.106 C 
HETATM    9  C   UNL     1      42.602 -12.207   4.744  1.00  0.00     0.046 C 
HETATM   10  H   UNL     1      43.877 -10.048   6.825  1.00  0.00     0.166 HD
ENDROOT
BRANCH   4  11
HETATM   11  S   UNL     1      41.646  -9.358   8.182  1.00  0.00    -0.102 SA
BRANCH  11  12
HETATM   12  C   UNL     1      43.330  -9.176   8.852  1.00  0.00     0.184 C 
BRANCH  12  13
HETATM   13  C   UNL     1      43.427  -9.169  10.373  1.00  0.00     0.231 C 
HETATM   14  N   UNL     1      42.535  -8.320  11.001  1.00  0.00    -0.325 N 
HETATM   15  H   UNL     1      41.998  -7.679  10.424  1.00  0.00     0.169 HD
HETATM   16  O   UNL     1      44.237  -9.886  10.957  1.00  0.00    -0.272 OA
BRANCH  14  17
HETATM   17  C   UNL     1      42.280  -8.229  12.396  1.00  0.00     0.056 A 
HETATM   18  C   UNL     1      41.222  -8.980  12.940  1.00  0.00     0.060 A 
HETATM   19 CL   UNL     1      40.222  -9.969  11.930  1.00  0.00    -0.082 Cl
HETATM   20  C   UNL     1      40.949  -8.955  14.313  1.00  0.00     0.026 A 
HETATM   21  C   UNL     1      41.732  -8.178  15.164  1.00  0.00     0.002 A 
HETATM   22  C   UNL     1      42.781  -7.429  14.642  1.00  0.00     0.002 A 
HETATM   23  C   UNL     1      43.054  -7.455  13.269  1.00  0.00     0.031 A 
ENDBRANCH  14  17
ENDBRANCH  12  13
ENDBRANCH  11  12
ENDBRANCH   4  11
BRANCH   8  24
HETATM   24  C   UNL     1      40.275 -11.841   3.784  1.00  0.00    -0.044 A 
HETATM   25  C   UNL     1      40.330 -10.665   3.022  1.00  0.00     0.008 A 
HETATM   26  C   UNL     1      39.525 -10.518   1.890  1.00  0.00     0.001 A 
HETATM   27  C   UNL     1      38.650 -11.535   1.512  1.00  0.00     0.000 A 
HETATM   28  C   UNL     1      38.577 -12.705   2.264  1.00  0.00     0.001 A 
HETATM   29  C   UNL     1      39.383 -12.857   3.392  1.00  0.00     0.008 A 
ENDBRANCH   8  24
BRANCH   9  30
HETATM   30  C   UNL     1      43.018 -13.327   3.863  1.00  0.00     0.255 C 
HETATM   31  N   UNL     1      42.831 -14.529   4.519  1.00  0.00    -0.321 N 
HETATM   32  H   UNL     1      42.536 -14.452   5.485  1.00  0.00     0.169 HD
HETATM   33  O   UNL     1      43.574 -13.090   2.803  1.00  0.00    -0.268 OA
BRANCH  31  34
HETATM   34  C   UNL     1      43.184 -15.834   4.107  1.00  0.00     0.068 A 
HETATM   35  C   UNL     1      43.887 -16.785   4.858  1.00  0.00     0.095 A 
HETATM   36  C   UNL     1      44.160 -18.050   4.312  1.00  0.00     0.039 A 
HETATM   37  C   UNL     1      43.724 -18.381   3.031  1.00  0.00     0.003 A 
HETATM   38  C   UNL     1      43.039 -17.440   2.271  1.00  0.00     0.002 A 
HETATM   39  C   UNL     1      42.783 -16.174   2.802  1.00  0.00     0.032 A 
BRANCH  35  40
HETATM   40  O   UNL     1      44.465 -16.453   6.053  1.00  0.00    -0.354 OA
HETATM   41  C   UNL     1      43.779 -17.036   7.161  1.00  0.00     0.210 C 
ENDBRANCH  35  40
ENDBRANCH  31  34
ENDBRANCH   9  30
TORSDOF 8
ENDMDL
MODEL 7
REMARK VINA RESULT:      -8.7      2.675      5.166
REMARK  8 active torsions:
REMARK  status: ('A' for Active; 'I' for Inactive)
REMARK    1  A    between atoms: C_4  and  S_5 
REMARK    2  A    between atoms: S_5  and  C_6 
REMARK    3  A    between atoms: C_6  and  C_7 
REMARK       I    between atoms: C_7  and  N_8 
REMARK    4  A    between atoms: N_8  and  C_9 
REMARK    5  A    between atoms: C_20  and  C_21 
REMARK    6  A    between atoms: C_27  and  C_28 
REMARK       I    between atoms: C_28  and  N_29 
REMARK    7  A    between atoms: N_29  and  C_30 
REMARK    8  A    between atoms: C_31  and  O_32 
ROOT
HETATM    1  C   UNL     1      39.374  -9.560   3.072  1.00  0.00     0.069 C 
HETATM    2  C   UNL     1      40.493 -10.378   3.666  1.00  0.00     0.019 C 
HETATM    3  N   UNL     1      40.859 -10.067   4.956  1.00  0.00    -0.353 N 
HETATM    4  C   UNL     1      41.874 -10.675   5.671  1.00  0.00     0.088 C 
HETATM    5  C   UNL     1      42.517 -11.751   5.148  1.00  0.00     0.069 C 
HETATM    6  C   UNL     1      43.520 -12.468   5.873  1.00  0.00     0.099 C 
HETATM    7  N   UNL     1      44.339 -13.033   6.472  1.00  0.00    -0.192 NA
HETATM    8  C   UNL     1      42.265 -12.160   3.687  1.00  0.00     0.106 C 
HETATM    9  C   UNL     1      41.166 -11.351   3.017  1.00  0.00     0.046 C 
HETATM   10  H   UNL     1      40.350  -9.338   5.447  1.00  0.00     0.166 HD
ENDROOT
BRANCH   4  11
HETATM   11  S   UNL     1      42.285  -9.967   7.223  1.00  0.00    -0.102 SA
BRANCH  11  12
HETATM   12  C   UNL     1      40.668  -9.616   7.983  1.00  0.00     0.184 C 
BRANCH  12  13
HETATM   13  C   UNL     1      40.723  -8.918   9.336  1.00  0.00     0.231 C 
HETATM   14  N   UNL     1      41.364  -9.638  10.327  1.00  0.00    -0.325 N 
HETATM   15  H   UNL     1      41.614 -10.603  10.130  1.00  0.00     0.169 HD
HETATM   16  O   UNL     1      40.237  -7.799   9.489  1.00  0.00    -0.272 OA
BRANCH  14  17
HETATM   17  C   UNL     1      41.713  -9.180  11.626  1.00  0.00     0.056 A 
HETATM   18  C   UNL     1      40.910  -9.563  12.716  1.00  0.00     0.060 A 
HETATM   19 CL   UNL     1      39.502 -10.543  12.482  1.00  0.00    -0.082 Cl
HETATM   20  C   UNL     1      41.227  -9.170  14.021  1.00  0.00     0.026 A 
HETATM   21  C   UNL     1      42.355  -8.386  14.257  1.00  0.00     0.002 A 
HETATM   22  C   UNL     1      43.159  -7.998  13.190  1.00  0.00     0.002 A 
HETATM   23  C   UNL     1      42.841  -8.393  11.885  1.00  0.00     0.031 A 
ENDBRANCH  14  17
ENDBRANCH  12  13
ENDBRANCH  11  12
ENDBRANCH   4  11
BRANCH   8  24
HETATM   24  C   UNL     1      42.087 -13.667   3.527  1.00  0.00    -0.044 A 
HETATM   25  C   UNL     1      42.972 -14.444   2.764  1.00  0.00     0.008 A 
HETATM   26  C   UNL     1      42.765 -15.818   2.624  1.00  0.00     0.001 A 
HETATM   27  C   UNL     1      41.671 -16.430   3.233  1.00  0.00     0.000 A 
HETATM   28  C   UNL     1      40.779 -15.670   3.985  1.00  0.00     0.001 A 
HETATM   29  C   UNL     1      40.985 -14.299   4.131  1.00  0.00     0.008 A 
ENDBRANCH   8  24
BRANCH   9  30
HETATM   30  C   UNL     1      40.951 -11.528   1.559  1.00  0.00     0.255 C 
HETATM   31  N   UNL     1      39.929 -12.434   1.347  1.00  0.00    -0.321 N 
HETATM   32  H   UNL     1      39.566 -12.879   2.182  1.00  0.00     0.169 HD
HETATM   33  O   UNL     1      41.725 -11.019   0.766  1.00  0.00    -0.268 OA
BRANCH  31  34
HETATM   34  C   UNL     1      39.459 -12.979   0.131  1.00  0.00     0.068 A 
HETATM   35  C   UNL     1      38.634 -12.343  -0.806  1.00  0.00     0.095 A 
HETATM   36  C   UNL     1      38.253 -13.016  -1.978  1.00  0.00     0.039 A 
HETATM   37  C   UNL     1      38.701 -14.311  -2.233  1.00  0.00     0.003 A 
HETATM   38  C   UNL     1      39.506 -14.957  -1.304  1.00  0.00     0.002 A 
HETATM   39  C   UNL     1      39.872 -14.300  -0.127  1.00  0.00     0.032 A 
BRANCH  35  40
HETATM   40  O   UNL     1      38.049 -11.138  -0.528  1.00  0.00    -0.354 OA
HETATM   41  C   UNL     1      38.713 -10.056  -1.180  1.00  0.00     0.210 C 
ENDBRANCH  35  40
ENDBRANCH  31  34
ENDBRANCH   9  30
TORSDOF 8
ENDMDL
MODEL 8
REMARK VINA RESULT:      -8.4      4.727      9.228
REMARK  8 active torsions:
REMARK  status: ('A' for Active; 'I' for Inactive)
REMARK    1  A    between atoms: C_4  and  S_5 
REMARK    2  A    between atoms: S_5  and  C_6 
REMARK    3  A    between atoms: C_6  and  C_7 
REMARK       I    between atoms: C_7  and  N_8 
REMARK    4  A    between atoms: N_8  and  C_9 
REMARK    5  A    between atoms: C_20  and  C_21 
REMARK    6  A    between atoms: C_27  and  C_28 
REMARK       I    between atoms: C_28  and  N_29 
REMARK    7  A    between atoms: N_29  and  C_30 
REMARK    8  A    between atoms: C_31  and  O_32 
ROOT
HETATM    1  C   UNL     1      40.449  -8.623   2.145  1.00  0.00     0.069 C 
HETATM    2  C   UNL     1      40.404 -10.106   1.876  1.00  0.00     0.019 C 
HETATM    3  N   UNL     1      40.096 -10.913   2.948  1.00  0.00    -0.353 N 
HETATM    4  C   UNL     1      40.029 -12.293   2.921  1.00  0.00     0.088 C 
HETATM    5  C   UNL     1      40.154 -12.952   1.740  1.00  0.00     0.069 C 
HETATM    6  C   UNL     1      40.016 -14.372   1.638  1.00  0.00     0.099 C 
HETATM    7  N   UNL     1      39.910 -15.526   1.576  1.00  0.00    -0.192 NA
HETATM    8  C   UNL     1      40.576 -12.185   0.475  1.00  0.00     0.106 C 
HETATM    9  C   UNL     1      40.671 -10.683   0.686  1.00  0.00     0.046 C 
HETATM   10  H   UNL     1      39.890 -10.479   3.843  1.00  0.00     0.166 HD
ENDROOT
BRANCH   4  11
HETATM   11  S   UNL     1      39.820 -13.107   4.461  1.00  0.00    -0.102 SA
BRANCH  11  12
HETATM   12  C   UNL     1      41.509 -13.197   5.137  1.00  0.00     0.184 C 
BRANCH  12  13
HETATM   13  C   UNL     1      42.447 -14.158   4.419  1.00  0.00     0.231 C 
HETATM   14  N   UNL     1      42.356 -15.471   4.841  1.00  0.00    -0.325 N 
HETATM   15  H   UNL     1      41.798 -15.670   5.666  1.00  0.00     0.169 HD
HETATM   16  O   UNL     1      43.200 -13.761   3.531  1.00  0.00    -0.272 OA
BRANCH  14  17
HETATM   17  C   UNL     1      42.976 -16.604   4.247  1.00  0.00     0.056 A 
HETATM   18  C   UNL     1      44.073 -17.195   4.902  1.00  0.00     0.060 A 
HETATM   19 CL   UNL     1      44.685 -16.536   6.382  1.00  0.00    -0.082 Cl
HETATM   20  C   UNL     1      44.698 -18.333   4.380  1.00  0.00     0.026 A 
HETATM   21  C   UNL     1      44.235 -18.900   3.195  1.00  0.00     0.002 A 
HETATM   22  C   UNL     1      43.152 -18.329   2.535  1.00  0.00     0.002 A 
HETATM   23  C   UNL     1      42.527 -17.190   3.058  1.00  0.00     0.031 A 
ENDBRANCH  14  17
ENDBRANCH  12  13
ENDBRANCH  11  12
ENDBRANCH   4  11
BRANCH   8  24
HETATM   24  C   UNL     1      39.742 -12.571  -0.745  1.00  0.00    -0.044 A 
HETATM   25  C   UNL     1      40.312 -13.182  -1.872  1.00  0.00     0.008 A 
HETATM   26  C   UNL     1      39.521 -13.503  -2.977  1.00  0.00     0.001 A 
HETATM   27  C   UNL     1      38.158 -13.210  -2.975  1.00  0.00     0.000 A 
HETATM   28  C   UNL     1      37.580 -12.594  -1.867  1.00  0.00     0.001 A 
HETATM   29  C   UNL     1      38.366 -12.278  -0.760  1.00  0.00     0.008 A 
ENDBRANCH   8  24
BRANCH   9  30
HETATM   30  C   UNL     1      41.238  -9.853  -0.407  1.00  0.00     0.255 C 
HETATM   31  N   UNL     1      40.227  -9.450  -1.257  1.00  0.00    -0.321 N 
HETATM   32  H   UNL     1      39.313  -9.840  -1.058  1.00  0.00     0.169 HD
HETATM   33  O   UNL     1      42.449  -9.747  -0.521  1.00  0.00    -0.268 OA
BRANCH  31  34
HETATM   34  C   UNL     1      40.317  -8.741  -2.477  1.00  0.00     0.068 A 
HETATM   35  C   UNL     1      40.580  -7.373  -2.631  1.00  0.00     0.095 A 
HETATM   36  C   UNL     1      40.645  -6.810  -3.916  1.00  0.00     0.039 A 
HETATM   37  C   UNL     1      40.467  -7.601  -5.049  1.00  0.00     0.003 A 
HETATM   38  C   UNL     1      40.191  -8.956  -4.908  1.00  0.00     0.002 A 
HETATM   39  C   UNL     1      40.105  -9.517  -3.632  1.00  0.00     0.032 A 
BRANCH  35  40
HETATM   40  O   UNL     1      40.607  -6.534  -1.550  1.00  0.00    -0.354 OA
HETATM   41  C   UNL     1      41.940  -6.224  -1.146  1.00  0.00     0.210 C 
ENDBRANCH  35  40
ENDBRANCH  31  34
ENDBRANCH   9  30
TORSDOF 8
ENDMDL
MODEL 9
REMARK VINA RESULT:      -8.4      2.413      4.807
REMARK  8 active torsions:
REMARK  status: ('A' for Active; 'I' for Inactive)
REMARK    1  A    between atoms: C_4  and  S_5 
REMARK    2  A    between atoms: S_5  and  C_6 
REMARK    3  A    between atoms: C_6  and  C_7 
REMARK       I    between atoms: C_7  and  N_8 
REMARK    4  A    between atoms: N_8  and  C_9 
REMARK    5  A    between atoms: C_20  and  C_21 
REMARK    6  A    between atoms: C_27  and  C_28 
REMARK       I    between atoms: C_28  and  N_29 
REMARK    7  A    between atoms: N_29  and  C_30 
REMARK    8  A    between atoms: C_31  and  O_32 
ROOT
HETATM    1  C   UNL     1      38.707 -10.265   4.799  1.00  0.00     0.069 C 
HETATM    2  C   UNL     1      40.093 -10.764   5.119  1.00  0.00     0.019 C 
HETATM    3  N   UNL     1      40.798 -10.050   6.061  1.00  0.00    -0.353 N 
HETATM    4  C   UNL     1      42.088 -10.322   6.475  1.00  0.00     0.088 C 
HETATM    5  C   UNL     1      42.715 -11.444   6.036  1.00  0.00     0.069 C 
HETATM    6  C   UNL     1      44.019 -11.819   6.491  1.00  0.00     0.099 C 
HETATM    7  N   UNL     1      45.081 -12.102   6.864  1.00  0.00    -0.192 NA
HETATM    8  C   UNL     1      42.078 -12.294   4.924  1.00  0.00     0.106 C 
HETATM    9  C   UNL     1      40.687 -11.824   4.531  1.00  0.00     0.046 C 
HETATM   10  H   UNL     1      40.351  -9.254   6.507  1.00  0.00     0.166 HD
ENDROOT
BRANCH   4  11
HETATM   11  S   UNL     1      42.846  -9.147   7.535  1.00  0.00    -0.102 SA
BRANCH  11  12
HETATM   12  C   UNL     1      42.828  -9.957   9.166  1.00  0.00     0.184 C 
BRANCH  12  13
HETATM   13  C   UNL     1      42.250  -9.121  10.301  1.00  0.00     0.231 C 
HETATM   14  N   UNL     1      42.704  -9.470  11.559  1.00  0.00    -0.325 N 
HETATM   15  H   UNL     1      43.256 -10.318  11.650  1.00  0.00     0.169 HD
HETATM   16  O   UNL     1      41.457  -8.209  10.073  1.00  0.00    -0.272 OA
BRANCH  14  17
HETATM   17  C   UNL     1      42.475  -8.770  12.774  1.00  0.00     0.056 A 
HETATM   18  C   UNL     1      41.370  -9.134  13.566  1.00  0.00     0.060 A 
HETATM   19 CL   UNL     1      40.285 -10.384  13.057  1.00  0.00    -0.082 Cl
HETATM   20  C   UNL     1      41.117  -8.502  14.789  1.00  0.00     0.026 A 
HETATM   21  C   UNL     1      41.968  -7.495  15.240  1.00  0.00     0.002 A 
HETATM   22  C   UNL     1      43.065  -7.123  14.470  1.00  0.00     0.002 A 
HETATM   23  C   UNL     1      43.317  -7.756  13.247  1.00  0.00     0.031 A 
ENDBRANCH  14  17
ENDBRANCH  12  13
ENDBRANCH  11  12
ENDBRANCH   4  11
BRANCH   8  24
HETATM   24  C   UNL     1      42.148 -13.789   5.222  1.00  0.00    -0.044 A 
HETATM   25  C   UNL     1      41.510 -14.357   6.334  1.00  0.00     0.008 A 
HETATM   26  C   UNL     1      41.613 -15.727   6.585  1.00  0.00     0.001 A 
HETATM   27  C   UNL     1      42.360 -16.543   5.737  1.00  0.00     0.000 A 
HETATM   28  C   UNL     1      43.008 -15.992   4.634  1.00  0.00     0.001 A 
HETATM   29  C   UNL     1      42.902 -14.625   4.378  1.00  0.00     0.008 A 
ENDBRANCH   8  24
BRANCH   9  30
HETATM   30  C   UNL     1      40.040 -12.450   3.350  1.00  0.00     0.255 C 
HETATM   31  N   UNL     1      40.743 -12.121   2.207  1.00  0.00    -0.321 N 
HETATM   32  H   UNL     1      41.502 -11.464   2.340  1.00  0.00     0.169 HD
HETATM   33  O   UNL     1      38.966 -13.014   3.476  1.00  0.00    -0.268 OA
BRANCH  31  34
HETATM   34  C   UNL     1      40.433 -12.406   0.857  1.00  0.00     0.068 A 
HETATM   35  C   UNL     1      40.494 -13.659   0.232  1.00  0.00     0.095 A 
HETATM   36  C   UNL     1      40.148 -13.787  -1.122  1.00  0.00     0.039 A 
HETATM   37  C   UNL     1      39.724 -12.680  -1.856  1.00  0.00     0.003 A 
HETATM   38  C   UNL     1      39.673 -11.431  -1.250  1.00  0.00     0.002 A 
HETATM   39  C   UNL     1      40.036 -11.294   0.091  1.00  0.00     0.032 A 
BRANCH  35  40
HETATM   40  O   UNL     1      41.050 -14.737   0.867  1.00  0.00    -0.354 OA
HETATM   41  C   UNL     1      40.059 -15.655   1.330  1.00  0.00     0.210 C 
ENDBRANCH  35  40
ENDBRANCH  31  34
ENDBRANCH   9  30
TORSDOF 8
ENDMDL
MODEL 10
REMARK VINA RESULT:      -8.2      3.348      6.039
REMARK  8 active torsions:
REMARK  status: ('A' for Active; 'I' for Inactive)
REMARK    1  A    between atoms: C_4  and  S_5 
REMARK    2  A    between atoms: S_5  and  C_6 
REMARK    3  A    between atoms: C_6  and  C_7 
REMARK       I    between atoms: C_7  and  N_8 
REMARK    4  A    between atoms: N_8  and  C_9 
REMARK    5  A    between atoms: C_20  and  C_21 
REMARK    6  A    between atoms: C_27  and  C_28 
REMARK       I    between atoms: C_28  and  N_29 
REMARK    7  A    between atoms: N_29  and  C_30 
REMARK    8  A    between atoms: C_31  and  O_32 
ROOT
HETATM    1  C   UNL     1      38.885 -10.230   6.333  1.00  0.00     0.069 C 
HETATM    2  C   UNL     1      39.811  -9.212   6.948  1.00  0.00     0.019 C 
HETATM    3  N   UNL     1      39.217  -8.106   7.512  1.00  0.00    -0.353 N 
HETATM    4  C   UNL     1      39.884  -7.048   8.101  1.00  0.00     0.088 C 
HETATM    5  C   UNL     1      41.230  -7.110   8.269  1.00  0.00     0.069 C 
HETATM    6  C   UNL     1      41.964  -6.082   8.942  1.00  0.00     0.099 C 
HETATM    7  N   UNL     1      42.544  -5.234   9.481  1.00  0.00    -0.192 NA
HETATM    8  C   UNL     1      42.033  -8.249   7.621  1.00  0.00     0.106 C 
HETATM    9  C   UNL     1      41.158  -9.298   6.953  1.00  0.00     0.046 C 
HETATM   10  H   UNL     1      38.203  -8.043   7.513  1.00  0.00     0.166 HD
ENDROOT
BRANCH   4  11
HETATM   11  S   UNL     1      38.917  -5.660   8.564  1.00  0.00    -0.102 SA
BRANCH  11  12
HETATM   12  C   UNL     1      38.242  -6.123  10.191  1.00  0.00     0.184 C 
BRANCH  12  13
HETATM   13  C   UNL     1      39.200  -6.882  11.101  1.00  0.00     0.231 C 
HETATM   14  N   UNL     1      40.181  -6.099  11.681  1.00  0.00    -0.325 N 
HETATM   15  H   UNL     1      40.280  -5.141  11.360  1.00  0.00     0.169 HD
HETATM   16  O   UNL     1      39.068  -8.090  11.289  1.00  0.00    -0.272 OA
BRANCH  14  17
HETATM   17  C   UNL     1      41.099  -6.491  12.692  1.00  0.00     0.056 A 
HETATM   18  C   UNL     1      40.779  -6.223  14.036  1.00  0.00     0.060 A 
HETATM   19 CL   UNL     1      39.315  -5.397  14.453  1.00  0.00    -0.082 Cl
HETATM   20  C   UNL     1      41.630  -6.618  15.075  1.00  0.00     0.026 A 
HETATM   21  C   UNL     1      42.816  -7.290  14.785  1.00  0.00     0.002 A 
HETATM   22  C   UNL     1      43.147  -7.564  13.462  1.00  0.00     0.002 A 
HETATM   23  C   UNL     1      42.295  -7.168  12.424  1.00  0.00     0.031 A 
ENDBRANCH  14  17
ENDBRANCH  12  13
ENDBRANCH  11  12
ENDBRANCH   4  11
BRANCH   8  24
HETATM   24  C   UNL     1      43.070  -8.845   8.571  1.00  0.00    -0.044 A 
HETATM   25  C   UNL     1      44.448  -8.715   8.344  1.00  0.00     0.008 A 
HETATM   26  C   UNL     1      45.365  -9.291   9.225  1.00  0.00     0.001 A 
HETATM   27  C   UNL     1      44.921 -10.010  10.334  1.00  0.00     0.000 A 
HETATM   28  C   UNL     1      43.556 -10.156  10.566  1.00  0.00     0.001 A 
HETATM   29  C   UNL     1      42.637  -9.577   9.691  1.00  0.00     0.008 A 
ENDBRANCH   8  24
BRANCH   9  30
HETATM   30  C   UNL     1      41.816 -10.352   6.142  1.00  0.00     0.255 C 
HETATM   31  N   UNL     1      41.736 -11.564   6.800  1.00  0.00    -0.321 N 
HETATM   32  H   UNL     1      41.336 -11.524   7.730  1.00  0.00     0.169 HD
HETATM   33  O   UNL     1      42.439 -10.044   5.139  1.00  0.00    -0.268 OA
BRANCH  31  34
HETATM   34  C   UNL     1      42.311 -12.807   6.453  1.00  0.00     0.068 A 
HETATM   35  C   UNL     1      43.594 -13.258   6.792  1.00  0.00     0.095 A 
HETATM   36  C   UNL     1      44.025 -14.528   6.377  1.00  0.00     0.039 A 
HETATM   37  C   UNL     1      43.183 -15.361   5.643  1.00  0.00     0.003 A 
HETATM   38  C   UNL     1      41.915 -14.919   5.289  1.00  0.00     0.002 A 
HETATM   39  C   UNL     1      41.488 -13.648   5.681  1.00  0.00     0.032 A 
BRANCH  35  40
HETATM   40  O   UNL     1      44.505 -12.419   7.375  1.00  0.00    -0.354 OA
HETATM   41  C   UNL     1      45.307 -11.743   6.407  1.00  0.00     0.210 C 
ENDBRANCH  35  40
ENDBRANCH  31  34
ENDBRANCH   9  30
TORSDOF 8
ENDMDL
