MODEL 1
REMARK VINA RESULT:      -8.7      0.000      0.000
REMARK  4 active torsions:
REMARK  status: ('A' for Active; 'I' for Inactive)
REMARK    1  A    between atoms: C_6  and  C_7 
REMARK    2  A    between atoms: C_7  and  N_8 
REMARK       I    between atoms: N_8  and  C_9 
REMARK    3  A    between atoms: C_9  and  C_10 
REMARK    4  A    between atoms: C_14  and  C_15 
ROOT
HETATM    1  N   UNL     1      43.729 -11.501   7.987  1.00  0.00    -0.349 N 
HETATM    2  C   UNL     1      44.452 -10.848   8.945  1.00  0.00     0.270 C 
HETATM    3  O   UNL     1      45.679 -10.795   8.914  1.00  0.00    -0.266 OA
HETATM    4  H   UNL     1      42.720 -11.573   8.032  1.00  0.00     0.163 HD
ENDROOT
BRANCH   2   5
HETATM    5  C   UNL     1      43.686 -10.234   9.994  1.00  0.00     0.120 A 
HETATM    6  N   UNL     1      42.332 -10.090   9.897  1.00  0.00    -0.272 N 
HETATM    7  H   UNL     1      41.745 -10.383   9.121  1.00  0.00     0.189 HD
HETATM    8  N   UNL     1      41.763  -9.487  10.950  1.00  0.00    -0.174 NA
HETATM    9  C   UNL     1      42.780  -9.241  11.791  1.00  0.00     0.089 A 
HETATM   10  C   UNL     1      44.007  -9.691  11.223  1.00  0.00     0.071 A 
BRANCH   9  11
HETATM   11  C   UNL     1      42.558  -8.591  13.088  1.00  0.00    -0.006 A 
HETATM   12  C   UNL     1      41.566  -9.046  13.970  1.00  0.00     0.015 A 
HETATM   13  C   UNL     1      41.363  -8.414  15.202  1.00  0.00     0.024 A 
HETATM   14  C   UNL     1      42.152  -7.324  15.562  1.00  0.00     0.034 A 
HETATM   15 CL   UNL     1      41.900  -6.549  17.078  1.00  0.00    -0.084 Cl
HETATM   16  C   UNL     1      43.141  -6.858  14.702  1.00  0.00     0.024 A 
HETATM   17  C   UNL     1      43.340  -7.488  13.470  1.00  0.00     0.015 A 
ENDBRANCH   9  11
ENDBRANCH   2   5
BRANCH   1  18
HETATM   18  C   UNL     1      44.377 -12.175   6.891  1.00  0.00     0.201 C 
BRANCH  18  19
HETATM   19  C   UNL     1      43.438 -13.181   6.324  1.00  0.00     0.123 A 
HETATM   20  N   UNL     1      43.188 -13.411   5.047  1.00  0.00    -0.232 NA
HETATM   21  C   UNL     1      42.251 -14.415   5.031  1.00  0.00     0.085 A 
HETATM   22  C   UNL     1      41.923 -14.810   6.322  1.00  0.00     0.062 A 
HETATM   23  C   UNL     1      41.627 -15.046   3.944  1.00  0.00     0.034 A 
HETATM   24  C   UNL     1      40.995 -15.815   6.607  1.00  0.00     0.032 A 
HETATM   25  N   UNL     1      42.693 -14.010   7.127  1.00  0.00    -0.341 N 
HETATM   26  C   UNL     1      40.383 -16.432   5.510  1.00  0.00     0.002 A 
HETATM   27  C   UNL     1      40.691 -16.056   4.200  1.00  0.00     0.002 A 
HETATM   28  H   UNL     1      42.705 -14.028   8.137  1.00  0.00     0.167 HD
ENDBRANCH  18  19
ENDBRANCH   1  18
TORSDOF 4
ENDMDL
MODEL 2
REMARK VINA RESULT:      -8.7      2.715      4.033
REMARK  4 active torsions:
REMARK  status: ('A' for Active; 'I' for Inactive)
REMARK    1  A    between atoms: C_6  and  C_7 
REMARK    2  A    between atoms: C_7  and  N_8 
REMARK       I    between atoms: N_8  and  C_9 
REMARK    3  A    between atoms: C_9  and  C_10 
REMARK    4  A    between atoms: C_14  and  C_15 
ROOT
HETATM    1  N   UNL     1      42.774 -12.772   4.828  1.00  0.00    -0.349 N 
HETATM    2  C   UNL     1      43.737 -11.813   4.978  1.00  0.00     0.270 C 
HETATM    3  O   UNL     1      44.359 -11.359   4.021  1.00  0.00    -0.266 OA
HETATM    4  H   UNL     1      42.286 -13.171   5.621  1.00  0.00     0.163 HD
ENDROOT
BRANCH   2   5
HETATM    5  C   UNL     1      43.979 -11.377   6.325  1.00  0.00     0.120 A 
HETATM    6  N   UNL     1      45.152 -11.658   6.965  1.00  0.00    -0.272 N 
HETATM    7  H   UNL     1      45.941 -12.175   6.586  1.00  0.00     0.189 HD
HETATM    8  N   UNL     1      45.222 -11.195   8.220  1.00  0.00    -0.174 NA
HETATM    9  C   UNL     1      44.054 -10.561   8.414  1.00  0.00     0.089 A 
HETATM   10  C   UNL     1      43.243 -10.659   7.247  1.00  0.00     0.071 A 
BRANCH   9  11
HETATM   11  C   UNL     1      43.748  -9.895   9.686  1.00  0.00    -0.006 A 
HETATM   12  C   UNL     1      43.561  -8.506   9.754  1.00  0.00     0.015 A 
HETATM   13  C   UNL     1      43.272  -7.885  10.975  1.00  0.00     0.024 A 
HETATM   14  C   UNL     1      43.169  -8.648  12.136  1.00  0.00     0.034 A 
HETATM   15 CL   UNL     1      42.815  -7.881  13.634  1.00  0.00    -0.084 Cl
HETATM   16  C   UNL     1      43.352 -10.026  12.089  1.00  0.00     0.024 A 
HETATM   17  C   UNL     1      43.643 -10.645  10.869  1.00  0.00     0.015 A 
ENDBRANCH   9  11
ENDBRANCH   2   5
BRANCH   1  18
HETATM   18  C   UNL     1      42.449 -13.309   3.532  1.00  0.00     0.201 C 
BRANCH  18  19
HETATM   19  C   UNL     1      42.818 -14.751   3.504  1.00  0.00     0.123 A 
HETATM   20  N   UNL     1      42.702 -15.585   2.486  1.00  0.00    -0.232 NA
HETATM   21  C   UNL     1      43.159 -16.795   2.949  1.00  0.00     0.085 A 
HETATM   22  C   UNL     1      43.565 -16.699   4.275  1.00  0.00     0.062 A 
HETATM   23  C   UNL     1      43.257 -18.031   2.292  1.00  0.00     0.034 A 
HETATM   24  C   UNL     1      44.074 -17.776   5.003  1.00  0.00     0.032 A 
HETATM   25  N   UNL     1      43.339 -15.387   4.604  1.00  0.00    -0.341 N 
HETATM   26  C   UNL     1      44.164 -19.001   4.332  1.00  0.00     0.002 A 
HETATM   27  C   UNL     1      43.763 -19.129   3.000  1.00  0.00     0.002 A 
HETATM   28  H   UNL     1      43.522 -14.965   5.503  1.00  0.00     0.167 HD
ENDBRANCH  18  19
ENDBRANCH   1  18
TORSDOF 4
ENDMDL
MODEL 3
REMARK VINA RESULT:      -8.7      4.542     10.111
REMARK  4 active torsions:
REMARK  status: ('A' for Active; 'I' for Inactive)
REMARK    1  A    between atoms: C_6  and  C_7 
REMARK    2  A    between atoms: C_7  and  N_8 
REMARK       I    between atoms: N_8  and  C_9 
REMARK    3  A    between atoms: C_9  and  C_10 
REMARK    4  A    between atoms: C_14  and  C_15 
ROOT
HETATM    1  N   UNL     1      42.807 -10.851   7.537  1.00  0.00    -0.349 N 
HETATM    2  C   UNL     1      42.698 -11.309   6.254  1.00  0.00     0.270 C 
HETATM    3  O   UNL     1      42.426 -10.563   5.316  1.00  0.00    -0.266 OA
HETATM    4  H   UNL     1      42.997 -11.472   8.314  1.00  0.00     0.163 HD
ENDROOT
BRANCH   2   5
HETATM    5  C   UNL     1      42.914 -12.717   6.073  1.00  0.00     0.120 A 
HETATM    6  N   UNL     1      43.104 -13.551   7.138  1.00  0.00    -0.272 N 
HETATM    7  H   UNL     1      43.112 -13.290   8.119  1.00  0.00     0.189 HD
HETATM    8  N   UNL     1      43.304 -14.834   6.806  1.00  0.00    -0.174 NA
HETATM    9  C   UNL     1      43.222 -14.856   5.466  1.00  0.00     0.089 A 
HETATM   10  C   UNL     1      42.984 -13.542   4.968  1.00  0.00     0.071 A 
BRANCH   9  11
HETATM   11  C   UNL     1      43.377 -16.105   4.711  1.00  0.00    -0.006 A 
HETATM   12  C   UNL     1      44.146 -17.167   5.211  1.00  0.00     0.015 A 
HETATM   13  C   UNL     1      44.287 -18.351   4.479  1.00  0.00     0.024 A 
HETATM   14  C   UNL     1      43.660 -18.483   3.242  1.00  0.00     0.034 A 
HETATM   15 CL   UNL     1      43.836 -19.940   2.344  1.00  0.00    -0.084 Cl
HETATM   16  C   UNL     1      42.893 -17.441   2.729  1.00  0.00     0.024 A 
HETATM   17  C   UNL     1      42.756 -16.257   3.460  1.00  0.00     0.015 A 
ENDBRANCH   9  11
ENDBRANCH   2   5
BRANCH   1  18
HETATM   18  C   UNL     1      42.595  -9.463   7.856  1.00  0.00     0.201 C 
BRANCH  18  19
HETATM   19  C   UNL     1      42.432  -9.329   9.330  1.00  0.00     0.123 A 
HETATM   20  N   UNL     1      43.274  -8.769  10.180  1.00  0.00    -0.232 NA
HETATM   21  C   UNL     1      42.690  -8.900  11.417  1.00  0.00     0.085 A 
HETATM   22  C   UNL     1      41.466  -9.551  11.322  1.00  0.00     0.062 A 
HETATM   23  C   UNL     1      43.150  -8.488  12.676  1.00  0.00     0.034 A 
HETATM   24  C   UNL     1      40.652  -9.822  12.424  1.00  0.00     0.032 A 
HETATM   25  N   UNL     1      41.324  -9.812   9.983  1.00  0.00    -0.341 N 
HETATM   26  C   UNL     1      41.126  -9.403  13.672  1.00  0.00     0.002 A 
HETATM   27  C   UNL     1      42.354  -8.748  13.799  1.00  0.00     0.002 A 
HETATM   28  H   UNL     1      40.539 -10.283   9.555  1.00  0.00     0.167 HD
ENDBRANCH  18  19
ENDBRANCH   1  18
TORSDOF 4
ENDMDL
MODEL 4
REMARK VINA RESULT:      -8.6      4.781     10.263
REMARK  4 active torsions:
REMARK  status: ('A' for Active; 'I' for Inactive)
REMARK    1  A    between atoms: C_6  and  C_7 
REMARK    2  A    between atoms: C_7  and  N_8 
REMARK       I    between atoms: N_8  and  C_9 
REMARK    3  A    between atoms: C_9  and  C_10 
REMARK    4  A    between atoms: C_14  and  C_15 
ROOT
HETATM    1  N   UNL     1      41.427 -11.429   6.655  1.00  0.00    -0.349 N 
HETATM    2  C   UNL     1      42.462 -11.784   5.836  1.00  0.00     0.270 C 
HETATM    3  O   UNL     1      43.174 -10.948   5.285  1.00  0.00    -0.266 OA
HETATM    4  H   UNL     1      40.820 -12.118   7.082  1.00  0.00     0.163 HD
ENDROOT
BRANCH   2   5
HETATM    5  C   UNL     1      42.658 -13.196   5.654  1.00  0.00     0.120 A 
HETATM    6  N   UNL     1      42.647 -14.058   6.713  1.00  0.00    -0.272 N 
HETATM    7  H   UNL     1      42.506 -13.818   7.690  1.00  0.00     0.189 HD
HETATM    8  N   UNL     1      42.857 -15.340   6.384  1.00  0.00    -0.174 NA
HETATM    9  C   UNL     1      42.991 -15.330   5.048  1.00  0.00     0.089 A 
HETATM   10  C   UNL     1      42.879 -13.999   4.553  1.00  0.00     0.071 A 
BRANCH   9  11
HETATM   11  C   UNL     1      43.224 -16.568   4.294  1.00  0.00    -0.006 A 
HETATM   12  C   UNL     1      42.638 -16.775   3.036  1.00  0.00     0.015 A 
HETATM   13  C   UNL     1      42.867 -17.962   2.330  1.00  0.00     0.024 A 
HETATM   14  C   UNL     1      43.683 -18.950   2.877  1.00  0.00     0.034 A 
HETATM   15 CL   UNL     1      43.961 -20.408   2.007  1.00  0.00    -0.084 Cl
HETATM   16  C   UNL     1      44.272 -18.764   4.123  1.00  0.00     0.024 A 
HETATM   17  C   UNL     1      44.040 -17.579   4.829  1.00  0.00     0.015 A 
ENDBRANCH   9  11
ENDBRANCH   2   5
BRANCH   1  18
HETATM   18  C   UNL     1      41.112 -10.046   6.905  1.00  0.00     0.201 C 
BRANCH  18  19
HETATM   19  C   UNL     1      41.622  -9.674   8.253  1.00  0.00     0.123 A 
HETATM   20  N   UNL     1      42.876  -9.441   8.598  1.00  0.00    -0.232 NA
HETATM   21  C   UNL     1      42.840  -9.149   9.940  1.00  0.00     0.085 A 
HETATM   22  C   UNL     1      41.539  -9.202  10.426  1.00  0.00     0.062 A 
HETATM   23  C   UNL     1      43.886  -8.829  10.819  1.00  0.00     0.034 A 
HETATM   24  C   UNL     1      41.205  -8.950  11.758  1.00  0.00     0.032 A 
HETATM   25  N   UNL     1      40.783  -9.537   9.333  1.00  0.00    -0.341 N 
HETATM   26  C   UNL     1      42.261  -8.632  12.620  1.00  0.00     0.002 A 
HETATM   27  C   UNL     1      43.580  -8.573  12.161  1.00  0.00     0.002 A 
HETATM   28  H   UNL     1      39.780  -9.663   9.326  1.00  0.00     0.167 HD
ENDBRANCH  18  19
ENDBRANCH   1  18
TORSDOF 4
ENDMDL
MODEL 5
REMARK VINA RESULT:      -8.6      5.041     10.481
REMARK  4 active torsions:
REMARK  status: ('A' for Active; 'I' for Inactive)
REMARK    1  A    between atoms: C_6  and  C_7 
REMARK    2  A    between atoms: C_7  and  N_8 
REMARK       I    between atoms: N_8  and  C_9 
REMARK    3  A    between atoms: C_9  and  C_10 
REMARK    4  A    between atoms: C_14  and  C_15 
ROOT
HETATM    1  N   UNL     1      42.247 -11.707   5.103  1.00  0.00    -0.349 N 
HETATM    2  C   UNL     1      42.526 -11.892   3.778  1.00  0.00     0.270 C 
HETATM    3  O   UNL     1      42.548 -10.959   2.980  1.00  0.00    -0.266 OA
HETATM    4  H   UNL     1      42.195 -12.482   5.754  1.00  0.00     0.163 HD
ENDROOT
BRANCH   2   5
HETATM    5  C   UNL     1      42.782 -13.248   3.377  1.00  0.00     0.120 A 
HETATM    6  N   UNL     1      42.957 -13.581   2.065  1.00  0.00    -0.272 N 
HETATM    7  H   UNL     1      42.930 -12.950   1.270  1.00  0.00     0.189 HD
HETATM    8  N   UNL     1      43.176 -14.886   1.850  1.00  0.00    -0.174 NA
HETATM    9  C   UNL     1      43.166 -15.438   3.075  1.00  0.00     0.089 A 
HETATM   10  C   UNL     1      42.915 -14.440   4.061  1.00  0.00     0.071 A 
BRANCH   9  11
HETATM   11  C   UNL     1      43.388 -16.876   3.266  1.00  0.00    -0.006 A 
HETATM   12  C   UNL     1      43.911 -17.378   4.467  1.00  0.00     0.015 A 
HETATM   13  C   UNL     1      44.120 -18.752   4.634  1.00  0.00     0.024 A 
HETATM   14  C   UNL     1      43.806 -19.634   3.602  1.00  0.00     0.034 A 
HETATM   15 CL   UNL     1      44.064 -21.322   3.810  1.00  0.00    -0.084 Cl
HETATM   16  C   UNL     1      43.287 -19.155   2.404  1.00  0.00     0.024 A 
HETATM   17  C   UNL     1      43.082 -17.782   2.237  1.00  0.00     0.015 A 
ENDBRANCH   9  11
ENDBRANCH   2   5
BRANCH   1  18
HETATM   18  C   UNL     1      41.954 -10.400   5.631  1.00  0.00     0.201 C 
BRANCH  18  19
HETATM   19  C   UNL     1      42.694 -10.221   6.909  1.00  0.00     0.123 A 
HETATM   20  N   UNL     1      43.988 -10.390   7.114  1.00  0.00    -0.232 NA
HETATM   21  C   UNL     1      44.189 -10.119   8.446  1.00  0.00     0.085 A 
HETATM   22  C   UNL     1      42.995  -9.775   9.068  1.00  0.00     0.062 A 
HETATM   23  C   UNL     1      45.370 -10.149   9.201  1.00  0.00     0.034 A 
HETATM   24  C   UNL     1      42.900  -9.449  10.423  1.00  0.00     0.032 A 
HETATM   25  N   UNL     1      42.059  -9.845   8.068  1.00  0.00    -0.341 N 
HETATM   26  C   UNL     1      44.089  -9.484  11.161  1.00  0.00     0.002 A 
HETATM   27  C   UNL     1      45.304  -9.828  10.564  1.00  0.00     0.002 A 
HETATM   28  H   UNL     1      41.072  -9.657   8.170  1.00  0.00     0.167 HD
ENDBRANCH  18  19
ENDBRANCH   1  18
TORSDOF 4
ENDMDL
MODEL 6
REMARK VINA RESULT:      -8.3      9.640     12.066
REMARK  4 active torsions:
REMARK  status: ('A' for Active; 'I' for Inactive)
REMARK    1  A    between atoms: C_6  and  C_7 
REMARK    2  A    between atoms: C_7  and  N_8 
REMARK       I    between atoms: N_8  and  C_9 
REMARK    3  A    between atoms: C_9  and  C_10 
REMARK    4  A    between atoms: C_14  and  C_15 
ROOT
HETATM    1  N   UNL     1      40.985 -12.902  -0.730  1.00  0.00    -0.349 N 
HETATM    2  C   UNL     1      40.531 -13.480   0.423  1.00  0.00     0.270 C 
HETATM    3  O   UNL     1      39.391 -13.294   0.841  1.00  0.00    -0.266 OA
HETATM    4  H   UNL     1      41.936 -13.029  -1.055  1.00  0.00     0.163 HD
ENDROOT
BRANCH   2   5
HETATM    5  C   UNL     1      41.474 -14.312   1.117  1.00  0.00     0.120 A 
HETATM    6  N   UNL     1      42.747 -13.887   1.372  1.00  0.00    -0.272 N 
HETATM    7  H   UNL     1      43.149 -12.990   1.118  1.00  0.00     0.189 HD
HETATM    8  N   UNL     1      43.509 -14.781   2.017  1.00  0.00    -0.174 NA
HETATM    9  C   UNL     1      42.701 -15.835   2.218  1.00  0.00     0.089 A 
HETATM   10  C   UNL     1      41.415 -15.581   1.660  1.00  0.00     0.071 A 
BRANCH   9  11
HETATM   11  C   UNL     1      43.172 -17.035   2.918  1.00  0.00    -0.006 A 
HETATM   12  C   UNL     1      43.212 -18.283   2.277  1.00  0.00     0.015 A 
HETATM   13  C   UNL     1      43.661 -19.421   2.958  1.00  0.00     0.024 A 
HETATM   14  C   UNL     1      44.073 -19.319   4.285  1.00  0.00     0.034 A 
HETATM   15 CL   UNL     1      44.623 -20.719   5.119  1.00  0.00    -0.084 Cl
HETATM   16  C   UNL     1      44.041 -18.091   4.938  1.00  0.00     0.024 A 
HETATM   17  C   UNL     1      43.589 -16.956   4.257  1.00  0.00     0.015 A 
ENDBRANCH   9  11
ENDBRANCH   2   5
BRANCH   1  18
HETATM   18  C   UNL     1      40.146 -12.031  -1.510  1.00  0.00     0.201 C 
BRANCH  18  19
HETATM   19  C   UNL     1      40.880 -10.762  -1.768  1.00  0.00     0.123 A 
HETATM   20  N   UNL     1      41.702 -10.134  -0.946  1.00  0.00    -0.232 NA
HETATM   21  C   UNL     1      42.116  -9.014  -1.626  1.00  0.00     0.085 A 
HETATM   22  C   UNL     1      41.539  -8.957  -2.888  1.00  0.00     0.062 A 
HETATM   23  C   UNL     1      42.989  -7.991  -1.226  1.00  0.00     0.034 A 
HETATM   24  C   UNL     1      41.781  -7.926  -3.799  1.00  0.00     0.032 A 
HETATM   25  N   UNL     1      40.758 -10.081  -2.955  1.00  0.00    -0.341 N 
HETATM   26  C   UNL     1      42.654  -6.914  -3.383  1.00  0.00     0.002 A 
HETATM   27  C   UNL     1      43.249  -6.943  -2.119  1.00  0.00     0.002 A 
HETATM   28  H   UNL     1      40.188 -10.358  -3.742  1.00  0.00     0.167 HD
ENDBRANCH  18  19
ENDBRANCH   1  18
TORSDOF 4
ENDMDL
MODEL 7
REMARK VINA RESULT:      -8.0      4.723     10.185
REMARK  4 active torsions:
REMARK  status: ('A' for Active; 'I' for Inactive)
REMARK    1  A    between atoms: C_6  and  C_7 
REMARK    2  A    between atoms: C_7  and  N_8 
REMARK       I    between atoms: N_8  and  C_9 
REMARK    3  A    between atoms: C_9  and  C_10 
REMARK    4  A    between atoms: C_14  and  C_15 
ROOT
HETATM    1  N   UNL     1      40.666 -10.623   7.047  1.00  0.00    -0.349 N 
HETATM    2  C   UNL     1      40.045 -11.663   6.414  1.00  0.00     0.270 C 
HETATM    3  O   UNL     1      38.831 -11.840   6.487  1.00  0.00    -0.266 OA
HETATM    4  H   UNL     1      41.671 -10.498   7.015  1.00  0.00     0.163 HD
ENDROOT
BRANCH   2   5
HETATM    5  C   UNL     1      40.902 -12.540   5.666  1.00  0.00     0.120 A 
HETATM    6  N   UNL     1      41.962 -12.061   4.950  1.00  0.00    -0.272 N 
HETATM    7  H   UNL     1      42.250 -11.090   4.870  1.00  0.00     0.189 HD
HETATM    8  N   UNL     1      42.658 -13.001   4.296  1.00  0.00    -0.174 NA
HETATM    9  C   UNL     1      42.047 -14.155   4.609  1.00  0.00     0.089 A 
HETATM   10  C   UNL     1      40.934 -13.906   5.463  1.00  0.00     0.071 A 
BRANCH   9  11
HETATM   11  C   UNL     1      42.530 -15.440   4.089  1.00  0.00    -0.006 A 
HETATM   12  C   UNL     1      42.524 -15.717   2.713  1.00  0.00     0.015 A 
HETATM   13  C   UNL     1      42.985 -16.948   2.232  1.00  0.00     0.024 A 
HETATM   14  C   UNL     1      43.454 -17.911   3.122  1.00  0.00     0.034 A 
HETATM   15 CL   UNL     1      44.019 -19.423   2.527  1.00  0.00    -0.084 Cl
HETATM   16  C   UNL     1      43.467 -17.656   4.490  1.00  0.00     0.024 A 
HETATM   17  C   UNL     1      43.003 -16.427   4.970  1.00  0.00     0.015 A 
ENDBRANCH   9  11
ENDBRANCH   2   5
BRANCH   1  18
HETATM   18  C   UNL     1      39.923  -9.683   7.845  1.00  0.00     0.201 C 
BRANCH  18  19
HETATM   19  C   UNL     1      40.693  -9.394   9.086  1.00  0.00     0.123 A 
HETATM   20  N   UNL     1      41.796  -8.675   9.193  1.00  0.00    -0.232 NA
HETATM   21  C   UNL     1      42.130  -8.708  10.525  1.00  0.00     0.085 A 
HETATM   22  C   UNL     1      41.212  -9.460  11.248  1.00  0.00     0.062 A 
HETATM   23  C   UNL     1      43.211  -8.119  11.196  1.00  0.00     0.034 A 
HETATM   24  C   UNL     1      41.302  -9.666  12.627  1.00  0.00     0.032 A 
HETATM   25  N   UNL     1      40.307  -9.884  10.310  1.00  0.00    -0.341 N 
HETATM   26  C   UNL     1      42.387  -9.070  13.280  1.00  0.00     0.002 A 
HETATM   27  C   UNL     1      43.327  -8.310  12.579  1.00  0.00     0.002 A 
HETATM   28  H   UNL     1      39.497 -10.461  10.490  1.00  0.00     0.167 HD
ENDBRANCH  18  19
ENDBRANCH   1  18
TORSDOF 4
ENDMDL
MODEL 8
REMARK VINA RESULT:      -8.0      8.768     11.260
REMARK  4 active torsions:
REMARK  status: ('A' for Active; 'I' for Inactive)
REMARK    1  A    between atoms: C_6  and  C_7 
REMARK    2  A    between atoms: C_7  and  N_8 
REMARK       I    between atoms: N_8  and  C_9 
REMARK    3  A    between atoms: C_9  and  C_10 
REMARK    4  A    between atoms: C_14  and  C_15 
ROOT
HETATM    1  N   UNL     1      41.578 -11.558   1.845  1.00  0.00    -0.349 N 
HETATM    2  C   UNL     1      42.615 -12.025   2.603  1.00  0.00     0.270 C 
HETATM    3  O   UNL     1      43.342 -11.273   3.247  1.00  0.00    -0.266 OA
HETATM    4  H   UNL     1      41.000 -12.176   1.287  1.00  0.00     0.163 HD
ENDROOT
BRANCH   2   5
HETATM    5  C   UNL     1      42.805 -13.449   2.592  1.00  0.00     0.120 A 
HETATM    6  N   UNL     1      42.686 -14.175   1.441  1.00  0.00    -0.272 N 
HETATM    7  H   UNL     1      42.465 -13.815   0.517  1.00  0.00     0.189 HD
HETATM    8  N   UNL     1      42.880 -15.492   1.596  1.00  0.00    -0.174 NA
HETATM    9  C   UNL     1      43.161 -15.643   2.900  1.00  0.00     0.089 A 
HETATM   10  C   UNL     1      43.117 -14.382   3.561  1.00  0.00     0.071 A 
BRANCH   9  11
HETATM   11  C   UNL     1      43.452 -16.963   3.470  1.00  0.00    -0.006 A 
HETATM   12  C   UNL     1      43.530 -18.105   2.658  1.00  0.00     0.015 A 
HETATM   13  C   UNL     1      43.806 -19.359   3.216  1.00  0.00     0.024 A 
HETATM   14  C   UNL     1      44.006 -19.480   4.589  1.00  0.00     0.034 A 
HETATM   15 CL   UNL     1      44.344 -21.023   5.272  1.00  0.00    -0.084 Cl
HETATM   16  C   UNL     1      43.933 -18.360   5.411  1.00  0.00     0.024 A 
HETATM   17  C   UNL     1      43.654 -17.109   4.853  1.00  0.00     0.015 A 
ENDBRANCH   9  11
ENDBRANCH   2   5
BRANCH   1  18
HETATM   18  C   UNL     1      41.292 -10.150   1.755  1.00  0.00     0.201 C 
BRANCH  18  19
HETATM   19  C   UNL     1      41.309  -9.748   0.322  1.00  0.00     0.123 A 
HETATM   20  N   UNL     1      40.682 -10.337  -0.681  1.00  0.00    -0.232 NA
HETATM   21  C   UNL     1      41.013  -9.610  -1.799  1.00  0.00     0.085 A 
HETATM   22  C   UNL     1      41.855  -8.554  -1.474  1.00  0.00     0.062 A 
HETATM   23  C   UNL     1      40.631  -9.794  -3.137  1.00  0.00     0.034 A 
HETATM   24  C   UNL     1      42.351  -7.648  -2.415  1.00  0.00     0.032 A 
HETATM   25  N   UNL     1      42.027  -8.663  -0.118  1.00  0.00    -0.341 N 
HETATM   26  C   UNL     1      41.960  -7.847  -3.744  1.00  0.00     0.002 A 
HETATM   27  C   UNL     1      41.115  -8.901  -4.101  1.00  0.00     0.002 A 
HETATM   28  H   UNL     1      42.589  -8.050   0.456  1.00  0.00     0.167 HD
ENDBRANCH  18  19
ENDBRANCH   1  18
TORSDOF 4
ENDMDL
MODEL 9
REMARK VINA RESULT:      -7.9      4.890     10.223
REMARK  4 active torsions:
REMARK  status: ('A' for Active; 'I' for Inactive)
REMARK    1  A    between atoms: C_6  and  C_7 
REMARK    2  A    between atoms: C_7  and  N_8 
REMARK       I    between atoms: N_8  and  C_9 
REMARK    3  A    between atoms: C_9  and  C_10 
REMARK    4  A    between atoms: C_14  and  C_15 
ROOT
HETATM    1  N   UNL     1      41.196 -11.261   5.939  1.00  0.00    -0.349 N 
HETATM    2  C   UNL     1      40.237 -12.207   6.172  1.00  0.00     0.270 C 
HETATM    3  O   UNL     1      39.152 -11.926   6.676  1.00  0.00    -0.266 OA
HETATM    4  H   UNL     1      42.102 -11.499   5.555  1.00  0.00     0.163 HD
ENDROOT
BRANCH   2   5
HETATM    5  C   UNL     1      40.581 -13.550   5.796  1.00  0.00     0.120 A 
HETATM    6  N   UNL     1      39.931 -14.627   6.328  1.00  0.00    -0.272 N 
HETATM    7  H   UNL     1      39.176 -14.605   7.008  1.00  0.00     0.189 HD
HETATM    8  N   UNL     1      40.374 -15.813   5.888  1.00  0.00    -0.174 NA
HETATM    9  C   UNL     1      41.344 -15.509   5.010  1.00  0.00     0.089 A 
HETATM   10  C   UNL     1      41.508 -14.095   4.929  1.00  0.00     0.071 A 
BRANCH   9  11
HETATM   11  C   UNL     1      42.077 -16.555   4.289  1.00  0.00    -0.006 A 
HETATM   12  C   UNL     1      43.061 -17.326   4.928  1.00  0.00     0.015 A 
HETATM   13  C   UNL     1      43.755 -18.320   4.228  1.00  0.00     0.024 A 
HETATM   14  C   UNL     1      43.471 -18.550   2.883  1.00  0.00     0.034 A 
HETATM   15 CL   UNL     1      44.326 -19.771   2.025  1.00  0.00    -0.084 Cl
HETATM   16  C   UNL     1      42.500 -17.796   2.232  1.00  0.00     0.024 A 
HETATM   17  C   UNL     1      41.810 -16.801   2.932  1.00  0.00     0.015 A 
ENDBRANCH   9  11
ENDBRANCH   2   5
BRANCH   1  18
HETATM   18  C   UNL     1      40.984  -9.880   6.288  1.00  0.00     0.201 C 
BRANCH  18  19
HETATM   19  C   UNL     1      41.671  -9.601   7.579  1.00  0.00     0.123 A 
HETATM   20  N   UNL     1      41.342  -8.692   8.479  1.00  0.00    -0.232 NA
HETATM   21  C   UNL     1      42.274  -8.811   9.481  1.00  0.00     0.085 A 
HETATM   22  C   UNL     1      43.190  -9.815   9.189  1.00  0.00     0.062 A 
HETATM   23  C   UNL     1      42.406  -8.091  10.677  1.00  0.00     0.034 A 
HETATM   24  C   UNL     1      44.251 -10.156  10.032  1.00  0.00     0.032 A 
HETATM   25  N   UNL     1      42.783 -10.303   7.975  1.00  0.00    -0.341 N 
HETATM   26  C   UNL     1      44.366  -9.427  11.221  1.00  0.00     0.002 A 
HETATM   27  C   UNL     1      43.462  -8.412  11.541  1.00  0.00     0.002 A 
HETATM   28  H   UNL     1      43.230 -11.049   7.460  1.00  0.00     0.167 HD
ENDBRANCH  18  19
ENDBRANCH   1  18
TORSDOF 4
ENDMDL
MODEL 10
REMARK VINA RESULT:      -7.9      9.269     11.792
REMARK  4 active torsions:
REMARK  status: ('A' for Active; 'I' for Inactive)
REMARK    1  A    between atoms: C_6  and  C_7 
REMARK    2  A    between atoms: C_7  and  N_8 
REMARK       I    between atoms: N_8  and  C_9 
REMARK    3  A    between atoms: C_9  and  C_10 
REMARK    4  A    between atoms: C_14  and  C_15 
ROOT
HETATM    1  N   UNL     1      42.429 -14.711   2.582  1.00  0.00    -0.349 N 
HETATM    2  C   UNL     1      41.543 -13.670   2.574  1.00  0.00     0.270 C 
HETATM    3  O   UNL     1      41.407 -12.923   3.540  1.00  0.00    -0.266 OA
HETATM    4  H   UNL     1      42.515 -15.347   1.798  1.00  0.00     0.163 HD
ENDROOT
BRANCH   2   5
HETATM    5  C   UNL     1      40.778 -13.510   1.369  1.00  0.00     0.120 A 
HETATM    6  N   UNL     1      41.011 -14.284   0.269  1.00  0.00    -0.272 N 
HETATM    7  H   UNL     1      41.707 -15.018   0.181  1.00  0.00     0.189 HD
HETATM    8  N   UNL     1      40.224 -14.006  -0.779  1.00  0.00    -0.174 NA
HETATM    9  C   UNL     1      39.420 -13.020  -0.349  1.00  0.00     0.089 A 
HETATM   10  C   UNL     1      39.742 -12.676   0.996  1.00  0.00     0.071 A 
BRANCH   9  11
HETATM   11  C   UNL     1      38.390 -12.441  -1.218  1.00  0.00    -0.006 A 
HETATM   12  C   UNL     1      37.994 -11.101  -1.084  1.00  0.00     0.015 A 
HETATM   13  C   UNL     1      37.007 -10.562  -1.918  1.00  0.00     0.024 A 
HETATM   14  C   UNL     1      36.410 -11.359  -2.892  1.00  0.00     0.034 A 
HETATM   15 CL   UNL     1      35.197 -10.694  -3.916  1.00  0.00    -0.084 Cl
HETATM   16  C   UNL     1      36.788 -12.689  -3.040  1.00  0.00     0.024 A 
HETATM   17  C   UNL     1      37.771 -13.227  -2.204  1.00  0.00     0.015 A 
ENDBRANCH   9  11
ENDBRANCH   2   5
BRANCH   1  18
HETATM   18  C   UNL     1      43.243 -14.993   3.735  1.00  0.00     0.201 C 
BRANCH  18  19
HETATM   19  C   UNL     1      43.428 -16.466   3.844  1.00  0.00     0.123 A 
HETATM   20  N   UNL     1      43.700 -17.159   4.935  1.00  0.00    -0.232 NA
HETATM   21  C   UNL     1      43.786 -18.468   4.528  1.00  0.00     0.085 A 
HETATM   22  C   UNL     1      43.559 -18.579   3.161  1.00  0.00     0.062 A 
HETATM   23  C   UNL     1      44.058 -19.626   5.272  1.00  0.00     0.034 A 
HETATM   24  C   UNL     1      43.586 -19.795   2.474  1.00  0.00     0.032 A 
HETATM   25  N   UNL     1      43.332 -17.291   2.750  1.00  0.00    -0.341 N 
HETATM   26  C   UNL     1      43.859 -20.938   3.232  1.00  0.00     0.002 A 
HETATM   27  C   UNL     1      44.092 -20.858   4.608  1.00  0.00     0.002 A 
HETATM   28  H   UNL     1      43.133 -17.001   1.803  1.00  0.00     0.167 HD
ENDBRANCH  18  19
ENDBRANCH   1  18
TORSDOF 4
ENDMDL
