MODEL 1
REMARK VINA RESULT:      -8.2      0.000      0.000
REMARK  6 active torsions:
REMARK  status: ('A' for Active; 'I' for Inactive)
REMARK    1  A    between atoms: C_3  and  C_4 
REMARK       I    between atoms: C_4  and  N_5 
REMARK    2  A    between atoms: N_5  and  C_6 
REMARK    3  A    between atoms: C_6  and  C_7 
REMARK    4  A    between atoms: C_7  and  N_8 
REMARK    5  A    between atoms: C_7  and  C_14 
REMARK    6  A    between atoms: C_21  and  C_22 
ROOT
HETATM    1  C   UNL     1      42.193 -12.064   5.807  1.00  0.00     0.272 C 
HETATM    2  N   UNL     1      43.279 -11.344   6.263  1.00  0.00    -0.354 N 
HETATM    3  O   UNL     1      41.045 -11.721   6.093  1.00  0.00    -0.266 OA
HETATM    4  H   UNL     1      44.179 -11.770   6.032  1.00  0.00     0.162 HD
ENDROOT
BRANCH   1   5
HETATM    5  C   UNL     1      42.553 -13.193   4.939  1.00  0.00     0.152 A 
HETATM    6  C   UNL     1      42.627 -14.581   5.268  1.00  0.00     0.003 A 
HETATM    7  C   UNL     1      42.349 -15.206   6.587  1.00  0.00     0.053 C 
HETATM    8  C   UNL     1      43.016 -15.204   4.091  1.00  0.00     0.069 A 
HETATM    9  N   UNL     1      43.152 -14.199   3.171  1.00  0.00    -0.276 N 
HETATM   10  N   UNL     1      42.864 -12.975   3.646  1.00  0.00    -0.168 NA
HETATM   11  H   UNL     1      43.450 -14.291   2.205  1.00  0.00     0.189 HD
BRANCH   8  12
HETATM   12  C   UNL     1      43.295 -16.598   3.762  1.00  0.00    -0.007 A 
HETATM   13  C   UNL     1      44.116 -17.374   4.588  1.00  0.00     0.014 A 
HETATM   14  C   UNL     1      44.392 -18.704   4.266  1.00  0.00     0.001 A 
HETATM   15  C   UNL     1      43.849 -19.271   3.115  1.00  0.00     0.000 A 
HETATM   16  C   UNL     1      43.028 -18.509   2.285  1.00  0.00     0.001 A 
HETATM   17  C   UNL     1      42.752 -17.178   2.606  1.00  0.00     0.014 A 
ENDBRANCH   8  12
ENDBRANCH   1   5
BRANCH   2  18
HETATM   18  C   UNL     1      43.161 -10.407   7.357  1.00  0.00     0.156 C 
BRANCH  18  19
HETATM   19  C   UNL     1      43.991 -10.762   8.627  1.00  0.00     0.209 C 
BRANCH  19  20
HETATM   20  N   UNL     1      43.129 -10.535   9.886  1.00  0.00    -0.065 N 
HETATM   21  H   UNL     1      42.453 -11.328   9.878  1.00  0.00     0.280 HD
HETATM   22  C   UNL     1      42.203  -9.334   9.989  1.00  0.00     0.235 C 
HETATM   23  C   UNL     1      42.606  -8.642  11.277  1.00  0.00     0.029 C 
HETATM   24  C   UNL     1      43.075  -9.783  12.157  1.00  0.00     0.029 C 
HETATM   25  C   UNL     1      43.856 -10.666  11.205  1.00  0.00     0.235 C 
ENDBRANCH  19  20
BRANCH  19  26
HETATM   26  C   UNL     1      45.405 -10.108   8.696  1.00  0.00     0.010 C 
HETATM   27  C   UNL     1      46.354 -10.665   7.628  1.00  0.00     0.011 C 
HETATM   28  C   UNL     1      45.357  -8.581   8.519  1.00  0.00     0.011 C 
ENDBRANCH  19  26
ENDBRANCH  18  19
ENDBRANCH   2  18
TORSDOF 6
ENDMDL
MODEL 2
REMARK VINA RESULT:      -8.2      5.828      8.139
REMARK  6 active torsions:
REMARK  status: ('A' for Active; 'I' for Inactive)
REMARK    1  A    between atoms: C_3  and  C_4 
REMARK       I    between atoms: C_4  and  N_5 
REMARK    2  A    between atoms: N_5  and  C_6 
REMARK    3  A    between atoms: C_6  and  C_7 
REMARK    4  A    between atoms: C_7  and  N_8 
REMARK    5  A    between atoms: C_7  and  C_14 
REMARK    6  A    between atoms: C_21  and  C_22 
ROOT
HETATM    1  C   UNL     1      41.205 -13.519   2.559  1.00  0.00     0.272 C 
HETATM    2  N   UNL     1      40.095 -13.549   1.737  1.00  0.00    -0.354 N 
HETATM    3  O   UNL     1      41.415 -12.556   3.298  1.00  0.00    -0.266 OA
HETATM    4  H   UNL     1      40.071 -14.357   1.111  1.00  0.00     0.162 HD
ENDROOT
BRANCH   1   5
HETATM    5  C   UNL     1      42.026 -14.735   2.490  1.00  0.00     0.152 A 
HETATM    6  C   UNL     1      41.851 -15.968   3.189  1.00  0.00     0.003 A 
HETATM    7  C   UNL     1      40.778 -16.303   4.161  1.00  0.00     0.053 C 
HETATM    8  C   UNL     1      42.899 -16.769   2.763  1.00  0.00     0.069 A 
HETATM    9  N   UNL     1      43.611 -16.003   1.879  1.00  0.00    -0.276 N 
HETATM   10  N   UNL     1      43.101 -14.775   1.679  1.00  0.00    -0.168 NA
HETATM   11  H   UNL     1      44.462 -16.265   1.390  1.00  0.00     0.189 HD
BRANCH   8  12
HETATM   12  C   UNL     1      43.306 -18.126   3.113  1.00  0.00    -0.007 A 
HETATM   13  C   UNL     1      43.184 -19.168   2.186  1.00  0.00     0.014 A 
HETATM   14  C   UNL     1      43.563 -20.468   2.525  1.00  0.00     0.001 A 
HETATM   15  C   UNL     1      44.066 -20.739   3.796  1.00  0.00     0.000 A 
HETATM   16  C   UNL     1      44.194 -19.710   4.728  1.00  0.00     0.001 A 
HETATM   17  C   UNL     1      43.815 -18.409   4.389  1.00  0.00     0.014 A 
ENDBRANCH   8  12
ENDBRANCH   1   5
BRANCH   2  18
HETATM   18  C   UNL     1      39.346 -12.351   1.431  1.00  0.00     0.156 C 
BRANCH  18  19
HETATM   19  C   UNL     1      39.287 -11.973  -0.079  1.00  0.00     0.209 C 
BRANCH  19  20
HETATM   20  N   UNL     1      38.681 -13.144  -0.880  1.00  0.00    -0.065 N 
HETATM   21  H   UNL     1      38.172 -13.705  -0.165  1.00  0.00     0.280 HD
HETATM   22  C   UNL     1      39.574 -14.190  -1.526  1.00  0.00     0.235 C 
HETATM   23  C   UNL     1      39.166 -14.202  -2.987  1.00  0.00     0.029 C 
HETATM   24  C   UNL     1      37.694 -13.848  -2.943  1.00  0.00     0.029 C 
HETATM   25  C   UNL     1      37.621 -12.761  -1.889  1.00  0.00     0.235 C 
ENDBRANCH  19  20
BRANCH  19  26
HETATM   26  C   UNL     1      40.617 -11.415  -0.673  1.00  0.00     0.010 C 
HETATM   27  C   UNL     1      40.387 -10.620  -1.965  1.00  0.00     0.011 C 
HETATM   28  C   UNL     1      41.358 -10.493   0.309  1.00  0.00     0.011 C 
ENDBRANCH  19  26
ENDBRANCH  18  19
ENDBRANCH   2  18
TORSDOF 6
ENDMDL
MODEL 3
REMARK VINA RESULT:      -7.9      5.096      7.754
REMARK  6 active torsions:
REMARK  status: ('A' for Active; 'I' for Inactive)
REMARK    1  A    between atoms: C_3  and  C_4 
REMARK       I    between atoms: C_4  and  N_5 
REMARK    2  A    between atoms: N_5  and  C_6 
REMARK    3  A    between atoms: C_6  and  C_7 
REMARK    4  A    between atoms: C_7  and  N_8 
REMARK    5  A    between atoms: C_7  and  C_14 
REMARK    6  A    between atoms: C_21  and  C_22 
ROOT
HETATM    1  C   UNL     1      42.770 -13.280   3.045  1.00  0.00     0.272 C 
HETATM    2  N   UNL     1      41.502 -13.105   2.527  1.00  0.00    -0.354 N 
HETATM    3  O   UNL     1      43.570 -12.343   3.083  1.00  0.00    -0.266 OA
HETATM    4  H   UNL     1      40.960 -13.970   2.470  1.00  0.00     0.162 HD
ENDROOT
BRANCH   1   5
HETATM    5  C   UNL     1      43.014 -14.630   3.570  1.00  0.00     0.152 A 
HETATM    6  C   UNL     1      43.189 -15.848   2.846  1.00  0.00     0.003 A 
HETATM    7  C   UNL     1      43.165 -16.027   1.371  1.00  0.00     0.053 C 
HETATM    8  C   UNL     1      43.381 -16.816   3.821  1.00  0.00     0.069 A 
HETATM    9  N   UNL     1      43.307 -16.153   5.017  1.00  0.00    -0.276 N 
HETATM   10  N   UNL     1      43.102 -14.829   4.900  1.00  0.00    -0.168 NA
HETATM   11  H   UNL     1      43.377 -16.556   5.946  1.00  0.00     0.189 HD
BRANCH   8  12
HETATM   12  C   UNL     1      43.588 -18.259   3.748  1.00  0.00    -0.007 A 
HETATM   13  C   UNL     1      43.382 -18.948   2.547  1.00  0.00     0.014 A 
HETATM   14  C   UNL     1      43.570 -20.330   2.481  1.00  0.00     0.001 A 
HETATM   15  C   UNL     1      43.964 -21.036   3.615  1.00  0.00     0.000 A 
HETATM   16  C   UNL     1      44.174 -20.361   4.817  1.00  0.00     0.001 A 
HETATM   17  C   UNL     1      43.986 -18.979   4.884  1.00  0.00     0.014 A 
ENDBRANCH   8  12
ENDBRANCH   1   5
BRANCH   2  18
HETATM   18  C   UNL     1      41.174 -11.969   1.696  1.00  0.00     0.156 C 
BRANCH  18  19
HETATM   19  C   UNL     1      40.071 -12.226   0.625  1.00  0.00     0.209 C 
BRANCH  19  20
HETATM   20  N   UNL     1      40.715 -12.820  -0.646  1.00  0.00    -0.065 N 
HETATM   21  H   UNL     1      41.605 -13.241  -0.307  1.00  0.00     0.280 HD
HETATM   22  C   UNL     1      41.200 -11.916  -1.767  1.00  0.00     0.235 C 
HETATM   23  C   UNL     1      40.498 -12.427  -3.010  1.00  0.00     0.029 C 
HETATM   24  C   UNL     1      40.347 -13.911  -2.743  1.00  0.00     0.029 C 
HETATM   25  C   UNL     1      39.964 -13.970  -1.278  1.00  0.00     0.235 C 
ENDBRANCH  19  20
BRANCH  19  26
HETATM   26  C   UNL     1      39.120 -11.021   0.354  1.00  0.00     0.010 C 
HETATM   27  C   UNL     1      37.693 -11.286   0.851  1.00  0.00     0.011 C 
HETATM   28  C   UNL     1      39.607  -9.725   1.024  1.00  0.00     0.011 C 
ENDBRANCH  19  26
ENDBRANCH  18  19
ENDBRANCH   2  18
TORSDOF 6
ENDMDL
MODEL 4
REMARK VINA RESULT:      -7.8      4.992      7.228
REMARK  6 active torsions:
REMARK  status: ('A' for Active; 'I' for Inactive)
REMARK    1  A    between atoms: C_3  and  C_4 
REMARK       I    between atoms: C_4  and  N_5 
REMARK    2  A    between atoms: N_5  and  C_6 
REMARK    3  A    between atoms: C_6  and  C_7 
REMARK    4  A    between atoms: C_7  and  N_8 
REMARK    5  A    between atoms: C_7  and  C_14 
REMARK    6  A    between atoms: C_21  and  C_22 
ROOT
HETATM    1  C   UNL     1      42.900 -13.090   3.126  1.00  0.00     0.272 C 
HETATM    2  N   UNL     1      41.671 -12.832   2.551  1.00  0.00    -0.354 N 
HETATM    3  O   UNL     1      43.739 -12.196   3.248  1.00  0.00    -0.266 OA
HETATM    4  H   UNL     1      41.092 -13.666   2.428  1.00  0.00     0.162 HD
ENDROOT
BRANCH   1   5
HETATM    5  C   UNL     1      43.051 -14.472   3.603  1.00  0.00     0.152 A 
HETATM    6  C   UNL     1      43.273 -15.657   2.839  1.00  0.00     0.003 A 
HETATM    7  C   UNL     1      43.406 -15.761   1.363  1.00  0.00     0.053 C 
HETATM    8  C   UNL     1      43.333 -16.678   3.777  1.00  0.00     0.069 A 
HETATM    9  N   UNL     1      43.145 -16.072   4.991  1.00  0.00    -0.276 N 
HETATM   10  N   UNL     1      42.988 -14.739   4.922  1.00  0.00    -0.168 NA
HETATM   11  H   UNL     1      43.103 -16.523   5.899  1.00  0.00     0.189 HD
BRANCH   8  12
HETATM   12  C   UNL     1      43.511 -18.121   3.651  1.00  0.00    -0.007 A 
HETATM   13  C   UNL     1      43.976 -18.877   4.733  1.00  0.00     0.014 A 
HETATM   14  C   UNL     1      44.157 -20.256   4.610  1.00  0.00     0.001 A 
HETATM   15  C   UNL     1      43.876 -20.891   3.402  1.00  0.00     0.000 A 
HETATM   16  C   UNL     1      43.411 -20.149   2.318  1.00  0.00     0.001 A 
HETATM   17  C   UNL     1      43.230 -18.769   2.440  1.00  0.00     0.014 A 
ENDBRANCH   8  12
ENDBRANCH   1   5
BRANCH   2  18
HETATM   18  C   UNL     1      41.443 -11.647   1.755  1.00  0.00     0.156 C 
BRANCH  18  19
HETATM   19  C   UNL     1      40.919 -11.908   0.310  1.00  0.00     0.209 C 
BRANCH  19  20
HETATM   20  N   UNL     1      40.733 -10.563  -0.422  1.00  0.00    -0.065 N 
HETATM   21  H   UNL     1      39.795 -10.643  -0.867  1.00  0.00     0.280 HD
HETATM   22  C   UNL     1      41.613 -10.193  -1.604  1.00  0.00     0.235 C 
HETATM   23  C   UNL     1      42.211  -8.847  -1.238  1.00  0.00     0.029 C 
HETATM   24  C   UNL     1      41.134  -8.204  -0.389  1.00  0.00     0.029 C 
HETATM   25  C   UNL     1      40.630  -9.347   0.471  1.00  0.00     0.235 C 
ENDBRANCH  19  20
BRANCH  19  26
HETATM   26  C   UNL     1      39.689 -12.861   0.217  1.00  0.00     0.010 C 
HETATM   27  C   UNL     1      38.591 -12.303  -0.699  1.00  0.00     0.011 C 
HETATM   28  C   UNL     1      40.063 -14.256  -0.311  1.00  0.00     0.011 C 
ENDBRANCH  19  26
ENDBRANCH  18  19
ENDBRANCH   2  18
TORSDOF 6
ENDMDL
MODEL 5
REMARK VINA RESULT:      -7.7      2.143      2.939
REMARK  6 active torsions:
REMARK  status: ('A' for Active; 'I' for Inactive)
REMARK    1  A    between atoms: C_3  and  C_4 
REMARK       I    between atoms: C_4  and  N_5 
REMARK    2  A    between atoms: N_5  and  C_6 
REMARK    3  A    between atoms: C_6  and  C_7 
REMARK    4  A    between atoms: C_7  and  N_8 
REMARK    5  A    between atoms: C_7  and  C_14 
REMARK    6  A    between atoms: C_21  and  C_22 
ROOT
HETATM    1  C   UNL     1      42.339 -13.176   3.351  1.00  0.00     0.272 C 
HETATM    2  N   UNL     1      43.383 -12.337   3.686  1.00  0.00    -0.354 N 
HETATM    3  O   UNL     1      41.178 -12.763   3.337  1.00  0.00    -0.266 OA
HETATM    4  H   UNL     1      44.287 -12.811   3.745  1.00  0.00     0.162 HD
ENDROOT
BRANCH   1   5
HETATM    5  C   UNL     1      42.765 -14.531   2.977  1.00  0.00     0.152 A 
HETATM    6  C   UNL     1      42.661 -15.738   3.734  1.00  0.00     0.003 A 
HETATM    7  C   UNL     1      42.085 -15.896   5.094  1.00  0.00     0.053 C 
HETATM    8  C   UNL     1      43.216 -16.715   2.921  1.00  0.00     0.069 A 
HETATM    9  N   UNL     1      43.608 -16.066   1.781  1.00  0.00    -0.276 N 
HETATM   10  N   UNL     1      43.335 -14.749   1.776  1.00  0.00    -0.168 NA
HETATM   11  H   UNL     1      44.077 -16.471   0.977  1.00  0.00     0.189 HD
BRANCH   8  12
HETATM   12  C   UNL     1      43.438 -18.145   3.112  1.00  0.00    -0.007 A 
HETATM   13  C   UNL     1      43.972 -18.627   4.313  1.00  0.00     0.014 A 
HETATM   14  C   UNL     1      44.195 -19.994   4.492  1.00  0.00     0.001 A 
HETATM   15  C   UNL     1      43.886 -20.891   3.471  1.00  0.00     0.000 A 
HETATM   16  C   UNL     1      43.352 -20.422   2.271  1.00  0.00     0.001 A 
HETATM   17  C   UNL     1      43.130 -19.055   2.092  1.00  0.00     0.014 A 
ENDBRANCH   8  12
ENDBRANCH   1   5
BRANCH   2  18
HETATM   18  C   UNL     1      43.157 -11.083   4.370  1.00  0.00     0.156 C 
BRANCH  18  19
HETATM   19  C   UNL     1      42.751 -11.209   5.870  1.00  0.00     0.209 C 
BRANCH  19  20
HETATM   20  N   UNL     1      42.076  -9.901   6.332  1.00  0.00    -0.065 N 
HETATM   21  H   UNL     1      42.252  -9.234   5.552  1.00  0.00     0.280 HD
HETATM   22  C   UNL     1      42.607  -9.133   7.531  1.00  0.00     0.235 C 
HETATM   23  C   UNL     1      41.415  -8.981   8.456  1.00  0.00     0.029 C 
HETATM   24  C   UNL     1      40.239  -8.912   7.504  1.00  0.00     0.029 C 
HETATM   25  C   UNL     1      40.570  -9.955   6.455  1.00  0.00     0.235 C 
ENDBRANCH  19  20
BRANCH  19  26
HETATM   26  C   UNL     1      43.880 -11.714   6.819  1.00  0.00     0.010 C 
HETATM   27  C   UNL     1      43.842 -13.237   7.006  1.00  0.00     0.011 C 
HETATM   28  C   UNL     1      45.284 -11.348   6.311  1.00  0.00     0.011 C 
ENDBRANCH  19  26
ENDBRANCH  18  19
ENDBRANCH   2  18
TORSDOF 6
ENDMDL
MODEL 6
REMARK VINA RESULT:      -7.5      6.105      8.667
REMARK  6 active torsions:
REMARK  status: ('A' for Active; 'I' for Inactive)
REMARK    1  A    between atoms: C_3  and  C_4 
REMARK       I    between atoms: C_4  and  N_5 
REMARK    2  A    between atoms: N_5  and  C_6 
REMARK    3  A    between atoms: C_6  and  C_7 
REMARK    4  A    between atoms: C_7  and  N_8 
REMARK    5  A    between atoms: C_7  and  C_14 
REMARK    6  A    between atoms: C_21  and  C_22 
ROOT
HETATM    1  C   UNL     1      40.342 -13.002   1.538  1.00  0.00     0.272 C 
HETATM    2  N   UNL     1      39.196 -13.046   0.768  1.00  0.00    -0.354 N 
HETATM    3  O   UNL     1      40.938 -11.939   1.721  1.00  0.00    -0.266 OA
HETATM    4  H   UNL     1      38.839 -13.992   0.619  1.00  0.00     0.162 HD
ENDROOT
BRANCH   1   5
HETATM    5  C   UNL     1      40.708 -14.297   2.129  1.00  0.00     0.152 A 
HETATM    6  C   UNL     1      42.009 -14.857   2.307  1.00  0.00     0.003 A 
HETATM    7  C   UNL     1      43.309 -14.245   1.929  1.00  0.00     0.053 C 
HETATM    8  C   UNL     1      41.785 -16.090   2.902  1.00  0.00     0.069 A 
HETATM    9  N   UNL     1      40.426 -16.193   3.034  1.00  0.00    -0.276 N 
HETATM   10  N   UNL     1      39.747 -15.120   2.591  1.00  0.00    -0.168 NA
HETATM   11  H   UNL     1      39.906 -16.981   3.409  1.00  0.00     0.189 HD
BRANCH   8  12
HETATM   12  C   UNL     1      42.687 -17.160   3.317  1.00  0.00    -0.007 A 
HETATM   13  C   UNL     1      43.225 -17.175   4.609  1.00  0.00     0.014 A 
HETATM   14  C   UNL     1      44.097 -18.193   5.003  1.00  0.00     0.001 A 
HETATM   15  C   UNL     1      44.438 -19.205   4.108  1.00  0.00     0.000 A 
HETATM   16  C   UNL     1      43.906 -19.202   2.819  1.00  0.00     0.001 A 
HETATM   17  C   UNL     1      43.035 -18.183   2.424  1.00  0.00     0.014 A 
ENDBRANCH   8  12
ENDBRANCH   1   5
BRANCH   2  18
HETATM   18  C   UNL     1      38.850 -11.971  -0.134  1.00  0.00     0.156 C 
BRANCH  18  19
HETATM   19  C   UNL     1      39.623 -11.965  -1.488  1.00  0.00     0.209 C 
BRANCH  19  20
HETATM   20  N   UNL     1      39.864 -10.510  -1.937  1.00  0.00    -0.065 N 
HETATM   21  H   UNL     1      39.193  -9.952  -1.368  1.00  0.00     0.280 HD
HETATM   22  C   UNL     1      39.522 -10.065  -3.350  1.00  0.00     0.235 C 
HETATM   23  C   UNL     1      40.805  -9.461  -3.889  1.00  0.00     0.029 C 
HETATM   24  C   UNL     1      41.466  -8.884  -2.654  1.00  0.00     0.029 C 
HETATM   25  C   UNL     1      41.222  -9.939  -1.594  1.00  0.00     0.235 C 
ENDBRANCH  19  20
BRANCH  19  26
HETATM   26  C   UNL     1      39.023 -12.884  -2.595  1.00  0.00     0.010 C 
HETATM   27  C   UNL     1      39.724 -14.247  -2.660  1.00  0.00     0.011 C 
HETATM   28  C   UNL     1      37.522 -13.148  -2.391  1.00  0.00     0.011 C 
ENDBRANCH  19  26
ENDBRANCH  18  19
ENDBRANCH   2  18
TORSDOF 6
ENDMDL
MODEL 7
REMARK VINA RESULT:      -7.5      2.110      3.414
REMARK  6 active torsions:
REMARK  status: ('A' for Active; 'I' for Inactive)
REMARK    1  A    between atoms: C_3  and  C_4 
REMARK       I    between atoms: C_4  and  N_5 
REMARK    2  A    between atoms: N_5  and  C_6 
REMARK    3  A    between atoms: C_6  and  C_7 
REMARK    4  A    between atoms: C_7  and  N_8 
REMARK    5  A    between atoms: C_7  and  C_14 
REMARK    6  A    between atoms: C_21  and  C_22 
ROOT
HETATM    1  C   UNL     1      41.630 -13.395   3.296  1.00  0.00     0.272 C 
HETATM    2  N   UNL     1      42.198 -12.711   4.352  1.00  0.00    -0.354 N 
HETATM    3  O   UNL     1      40.685 -12.913   2.669  1.00  0.00    -0.266 OA
HETATM    4  H   UNL     1      42.916 -13.244   4.847  1.00  0.00     0.162 HD
ENDROOT
BRANCH   1   5
HETATM    5  C   UNL     1      42.293 -14.670   2.991  1.00  0.00     0.152 A 
HETATM    6  C   UNL     1      42.150 -15.927   3.651  1.00  0.00     0.003 A 
HETATM    7  C   UNL     1      41.279 -16.235   4.816  1.00  0.00     0.053 C 
HETATM    8  C   UNL     1      43.000 -16.785   2.969  1.00  0.00     0.069 A 
HETATM    9  N   UNL     1      43.580 -16.025   1.989  1.00  0.00    -0.276 N 
HETATM   10  N   UNL     1      43.163 -14.747   1.965  1.00  0.00    -0.168 NA
HETATM   11  H   UNL     1      44.278 -16.324   1.315  1.00  0.00     0.189 HD
BRANCH   8  12
HETATM   12  C   UNL     1      43.335 -18.193   3.156  1.00  0.00    -0.007 A 
HETATM   13  C   UNL     1      43.870 -18.641   4.370  1.00  0.00     0.014 A 
HETATM   14  C   UNL     1      44.202 -19.986   4.545  1.00  0.00     0.001 A 
HETATM   15  C   UNL     1      44.003 -20.895   3.508  1.00  0.00     0.000 A 
HETATM   16  C   UNL     1      43.469 -20.461   2.296  1.00  0.00     0.001 A 
HETATM   17  C   UNL     1      43.138 -19.116   2.119  1.00  0.00     0.014 A 
ENDBRANCH   8  12
ENDBRANCH   1   5
BRANCH   2  18
HETATM   18  C   UNL     1      41.515 -11.611   4.997  1.00  0.00     0.156 C 
BRANCH  18  19
HETATM   19  C   UNL     1      42.443 -10.492   5.559  1.00  0.00     0.209 C 
BRANCH  19  20
HETATM   20  N   UNL     1      43.529 -11.124   6.454  1.00  0.00    -0.065 N 
HETATM   21  H   UNL     1      43.218 -12.111   6.573  1.00  0.00     0.280 HD
HETATM   22  C   UNL     1      43.708 -10.674   7.895  1.00  0.00     0.235 C 
HETATM   23  C   UNL     1      45.168 -10.279   8.001  1.00  0.00     0.029 C 
HETATM   24  C   UNL     1      45.854 -11.202   7.014  1.00  0.00     0.029 C 
HETATM   25  C   UNL     1      44.903 -11.229   5.833  1.00  0.00     0.235 C 
ENDBRANCH  19  20
BRANCH  19  26
HETATM   26  C   UNL     1      41.701  -9.285   6.210  1.00  0.00     0.010 C 
HETATM   27  C   UNL     1      41.419  -8.165   5.201  1.00  0.00     0.011 C 
HETATM   28  C   UNL     1      40.357  -9.689   6.837  1.00  0.00     0.011 C 
ENDBRANCH  19  26
ENDBRANCH  18  19
ENDBRANCH   2  18
TORSDOF 6
ENDMDL
MODEL 8
REMARK VINA RESULT:      -7.5      5.907      7.848
REMARK  6 active torsions:
REMARK  status: ('A' for Active; 'I' for Inactive)
REMARK    1  A    between atoms: C_3  and  C_4 
REMARK       I    between atoms: C_4  and  N_5 
REMARK    2  A    between atoms: N_5  and  C_6 
REMARK    3  A    between atoms: C_6  and  C_7 
REMARK    4  A    between atoms: C_7  and  N_8 
REMARK    5  A    between atoms: C_7  and  C_14 
REMARK    6  A    between atoms: C_21  and  C_22 
ROOT
HETATM    1  C   UNL     1      41.352 -13.515   2.374  1.00  0.00     0.272 C 
HETATM    2  N   UNL     1      40.612 -13.312   1.226  1.00  0.00    -0.354 N 
HETATM    3  O   UNL     1      41.282 -12.725   3.317  1.00  0.00    -0.266 OA
HETATM    4  H   UNL     1      40.815 -13.984   0.483  1.00  0.00     0.162 HD
ENDROOT
BRANCH   1   5
HETATM    5  C   UNL     1      42.143 -14.753   2.357  1.00  0.00     0.152 A 
HETATM    6  C   UNL     1      41.921 -15.961   3.085  1.00  0.00     0.003 A 
HETATM    7  C   UNL     1      40.819 -16.243   4.040  1.00  0.00     0.053 C 
HETATM    8  C   UNL     1      42.958 -16.800   2.705  1.00  0.00     0.069 A 
HETATM    9  N   UNL     1      43.709 -16.076   1.817  1.00  0.00    -0.276 N 
HETATM   10  N   UNL     1      43.235 -14.842   1.573  1.00  0.00    -0.168 NA
HETATM   11  H   UNL     1      44.564 -16.372   1.355  1.00  0.00     0.189 HD
BRANCH   8  12
HETATM   12  C   UNL     1      43.322 -18.157   3.101  1.00  0.00    -0.007 A 
HETATM   13  C   UNL     1      43.819 -18.414   4.384  1.00  0.00     0.014 A 
HETATM   14  C   UNL     1      44.178 -19.710   4.759  1.00  0.00     0.001 A 
HETATM   15  C   UNL     1      44.044 -20.761   3.854  1.00  0.00     0.000 A 
HETATM   16  C   UNL     1      43.550 -20.517   2.573  1.00  0.00     0.001 A 
HETATM   17  C   UNL     1      43.191 -19.221   2.197  1.00  0.00     0.014 A 
ENDBRANCH   8  12
ENDBRANCH   1   5
BRANCH   2  18
HETATM   18  C   UNL     1      40.024 -12.026   0.923  1.00  0.00     0.156 C 
BRANCH  18  19
HETATM   19  C   UNL     1      39.541 -11.848  -0.548  1.00  0.00     0.209 C 
BRANCH  19  20
HETATM   20  N   UNL     1      38.055 -11.432  -0.556  1.00  0.00    -0.065 N 
HETATM   21  H   UNL     1      37.566 -12.242  -0.993  1.00  0.00     0.280 HD
HETATM   22  C   UNL     1      37.575 -10.274  -1.415  1.00  0.00     0.235 C 
HETATM   23  C   UNL     1      36.868  -9.341  -0.450  1.00  0.00     0.029 C 
HETATM   24  C   UNL     1      36.302 -10.280   0.594  1.00  0.00     0.029 C 
HETATM   25  C   UNL     1      37.413 -11.289   0.806  1.00  0.00     0.235 C 
ENDBRANCH  19  20
BRANCH  19  26
HETATM   26  C   UNL     1      39.876 -13.035  -1.502  1.00  0.00     0.010 C 
HETATM   27  C   UNL     1      38.636 -13.870  -1.847  1.00  0.00     0.011 C 
HETATM   28  C   UNL     1      40.500 -12.567  -2.827  1.00  0.00     0.011 C 
ENDBRANCH  19  26
ENDBRANCH  18  19
ENDBRANCH   2  18
TORSDOF 6
ENDMDL
MODEL 9
REMARK VINA RESULT:      -7.4     17.190     19.024
REMARK  6 active torsions:
REMARK  status: ('A' for Active; 'I' for Inactive)
REMARK    1  A    between atoms: C_3  and  C_4 
REMARK       I    between atoms: C_4  and  N_5 
REMARK    2  A    between atoms: N_5  and  C_6 
REMARK    3  A    between atoms: C_6  and  C_7 
REMARK    4  A    between atoms: C_7  and  N_8 
REMARK    5  A    between atoms: C_7  and  C_14 
REMARK    6  A    between atoms: C_21  and  C_22 
ROOT
HETATM    1  C   UNL     1      47.200 -28.226  -0.042  1.00  0.00     0.272 C 
HETATM    2  N   UNL     1      45.839 -28.009   0.036  1.00  0.00    -0.354 N 
HETATM    3  O   UNL     1      47.800 -28.087  -1.110  1.00  0.00    -0.266 OA
HETATM    4  H   UNL     1      45.439 -28.235   0.949  1.00  0.00     0.162 HD
ENDROOT
BRANCH   1   5
HETATM    5  C   UNL     1      47.820 -28.564   1.246  1.00  0.00     0.152 A 
HETATM    6  C   UNL     1      48.388 -29.807   1.661  1.00  0.00     0.003 A 
HETATM    7  C   UNL     1      48.483 -31.059   0.867  1.00  0.00     0.053 C 
HETATM    8  C   UNL     1      48.824 -29.582   2.959  1.00  0.00     0.069 A 
HETATM    9  N   UNL     1      48.500 -28.280   3.234  1.00  0.00    -0.276 N 
HETATM   10  N   UNL     1      47.908 -27.633   2.216  1.00  0.00    -0.168 NA
HETATM   11  H   UNL     1      48.650 -27.785   4.108  1.00  0.00     0.189 HD
BRANCH   8  12
HETATM   12  C   UNL     1      49.463 -30.447   3.946  1.00  0.00    -0.007 A 
HETATM   13  C   UNL     1      50.840 -30.360   4.181  1.00  0.00     0.014 A 
HETATM   14  C   UNL     1      51.453 -31.194   5.118  1.00  0.00     0.001 A 
HETATM   15  C   UNL     1      50.696 -32.125   5.826  1.00  0.00     0.000 A 
HETATM   16  C   UNL     1      49.323 -32.220   5.600  1.00  0.00     0.001 A 
HETATM   17  C   UNL     1      48.709 -31.385   4.664  1.00  0.00     0.014 A 
ENDBRANCH   8  12
ENDBRANCH   1   5
BRANCH   2  18
HETATM   18  C   UNL     1      45.009 -27.973  -1.147  1.00  0.00     0.156 C 
BRANCH  18  19
HETATM   19  C   UNL     1      43.956 -29.118  -1.255  1.00  0.00     0.209 C 
BRANCH  19  20
HETATM   20  N   UNL     1      43.767 -29.775   0.127  1.00  0.00    -0.065 N 
HETATM   21  H   UNL     1      44.633 -29.526   0.649  1.00  0.00     0.280 HD
HETATM   22  C   UNL     1      43.737 -31.288   0.272  1.00  0.00     0.235 C 
HETATM   23  C   UNL     1      42.432 -31.585   0.987  1.00  0.00     0.029 C 
HETATM   24  C   UNL     1      42.226 -30.364   1.860  1.00  0.00     0.029 C 
HETATM   25  C   UNL     1      42.641 -29.213   0.966  1.00  0.00     0.235 C 
ENDBRANCH  19  20
BRANCH  19  26
HETATM   26  C   UNL     1      44.198 -30.130  -2.416  1.00  0.00     0.010 C 
HETATM   27  C   UNL     1      43.747 -29.575  -3.773  1.00  0.00     0.011 C 
HETATM   28  C   UNL     1      45.677 -30.529  -2.550  1.00  0.00     0.011 C 
ENDBRANCH  19  26
ENDBRANCH  18  19
ENDBRANCH   2  18
TORSDOF 6
ENDMDL
MODEL 10
REMARK VINA RESULT:      -7.4      5.644      8.273
REMARK  6 active torsions:
REMARK  status: ('A' for Active; 'I' for Inactive)
REMARK    1  A    between atoms: C_3  and  C_4 
REMARK       I    between atoms: C_4  and  N_5 
REMARK    2  A    between atoms: N_5  and  C_6 
REMARK    3  A    between atoms: C_6  and  C_7 
REMARK    4  A    between atoms: C_7  and  N_8 
REMARK    5  A    between atoms: C_7  and  C_14 
REMARK    6  A    between atoms: C_21  and  C_22 
ROOT
HETATM    1  C   UNL     1      40.473 -12.834   1.823  1.00  0.00     0.272 C 
HETATM    2  N   UNL     1      41.064 -11.905   0.989  1.00  0.00    -0.354 N 
HETATM    3  O   UNL     1      39.249 -12.876   1.952  1.00  0.00    -0.266 OA
HETATM    4  H   UNL     1      42.085 -11.911   1.027  1.00  0.00     0.162 HD
ENDROOT
BRANCH   1   5
HETATM    5  C   UNL     1      41.429 -13.753   2.456  1.00  0.00     0.152 A 
HETATM    6  C   UNL     1      41.438 -15.181   2.433  1.00  0.00     0.003 A 
HETATM    7  C   UNL     1      40.467 -16.073   1.750  1.00  0.00     0.053 C 
HETATM    8  C   UNL     1      42.546 -15.540   3.187  1.00  0.00     0.069 A 
HETATM    9  N   UNL     1      43.105 -14.361   3.603  1.00  0.00    -0.276 N 
HETATM   10  N   UNL     1      42.464 -13.263   3.166  1.00  0.00    -0.168 NA
HETATM   11  H   UNL     1      43.919 -14.247   4.199  1.00  0.00     0.189 HD
BRANCH   8  12
HETATM   12  C   UNL     1      43.097 -16.836   3.571  1.00  0.00    -0.007 A 
HETATM   13  C   UNL     1      43.303 -17.150   4.919  1.00  0.00     0.014 A 
HETATM   14  C   UNL     1      43.841 -18.385   5.286  1.00  0.00     0.001 A 
HETATM   15  C   UNL     1      44.178 -19.318   4.307  1.00  0.00     0.000 A 
HETATM   16  C   UNL     1      43.975 -19.017   2.961  1.00  0.00     0.001 A 
HETATM   17  C   UNL     1      43.438 -17.781   2.594  1.00  0.00     0.014 A 
ENDBRANCH   8  12
ENDBRANCH   1   5
BRANCH   2  18
HETATM   18  C   UNL     1      40.346 -10.739   0.526  1.00  0.00     0.156 C 
BRANCH  18  19
HETATM   19  C   UNL     1      39.861 -10.802  -0.954  1.00  0.00     0.209 C 
BRANCH  19  20
HETATM   20  N   UNL     1      39.148 -12.147  -1.206  1.00  0.00    -0.065 N 
HETATM   21  H   UNL     1      39.062 -12.571  -0.258  1.00  0.00     0.280 HD
HETATM   22  C   UNL     1      39.833 -13.256  -1.986  1.00  0.00     0.235 C 
HETATM   23  C   UNL     1      38.868 -13.599  -3.104  1.00  0.00     0.029 C 
HETATM   24  C   UNL     1      37.510 -13.325  -2.492  1.00  0.00     0.029 C 
HETATM   25  C   UNL     1      37.726 -12.045  -1.709  1.00  0.00     0.235 C 
ENDBRANCH  19  20
BRANCH  19  26
HETATM   26  C   UNL     1      40.941 -10.443  -2.019  1.00  0.00     0.010 C 
HETATM   27  C   UNL     1      40.324  -9.879  -3.305  1.00  0.00     0.011 C 
HETATM   28  C   UNL     1      41.955  -9.409  -1.503  1.00  0.00     0.011 C 
ENDBRANCH  19  26
ENDBRANCH  18  19
ENDBRANCH   2  18
TORSDOF 6
ENDMDL
