MODEL 1
REMARK VINA RESULT:      -9.8      0.000      0.000
REMARK  8 active torsions:
REMARK  status: ('A' for Active; 'I' for Inactive)
REMARK    1  A    between atoms: O_2  and  C_3 
REMARK    2  A    between atoms: C_3  and  C_4 
REMARK    3  A    between atoms: C_4  and  N_5 
REMARK       I    between atoms: N_5  and  C_6 
REMARK    4  A    between atoms: C_6  and  C_7 
REMARK    5  A    between atoms: C_7  and  N_8 
REMARK       I    between atoms: N_14  and  C_15 
REMARK    6  A    between atoms: C_15  and  C_16 
REMARK    7  A    between atoms: C_19  and  C_20 
REMARK    8  A    between atoms: N_31  and  C_32 
ROOT
HETATM    1  N   UNL     1      40.158  -9.326   8.166  1.00  0.00    -0.325 N 
HETATM    2  C   UNL     1      39.999  -9.969   6.964  1.00  0.00     0.250 A 
HETATM    3  O   UNL     1      38.925 -10.204   6.432  1.00  0.00    -0.270 OA
HETATM    4  C   UNL     1      41.398 -10.382   6.458  1.00  0.00     0.118 A 
HETATM    5  C   UNL     1      41.606  -9.768   5.062  1.00  0.00     0.061 C 
HETATM    6  C   UNL     1      40.876 -10.544   3.966  1.00  0.00     0.129 C 
HETATM    7  N   UNL     1      41.119 -11.977   4.089  1.00  0.00    -0.348 N 
HETATM    8  C   UNL     1      41.993 -12.595   3.191  1.00  0.00     0.253 C 
HETATM    9  O   UNL     1      42.613 -11.992   2.318  1.00  0.00    -0.267 OA
HETATM   10  C   UNL     1      40.677 -12.553   5.358  1.00  0.00     0.129 C 
HETATM   11  C   UNL     1      41.441 -11.920   6.516  1.00  0.00     0.061 C 
HETATM   12  N   UNL     1      42.294  -9.773   7.487  1.00  0.00    -0.346 N 
HETATM   13  C   UNL     1      41.522  -9.134   8.543  1.00  0.00     0.254 A 
ENDROOT
BRANCH  12  14
HETATM   14  C   UNL     1      43.670  -9.872   7.597  1.00  0.00     0.032 A 
HETATM   15  C   UNL     1      44.421 -10.892   6.994  1.00  0.00     0.029 A 
HETATM   16  C   UNL     1      45.815 -10.986   7.126  1.00  0.00     0.002 A 
HETATM   17  C   UNL     1      46.513 -10.048   7.871  1.00  0.00     0.000 A 
HETATM   18  C   UNL     1      45.814  -9.014   8.474  1.00  0.00     0.002 A 
HETATM   19  C   UNL     1      44.422  -8.931   8.332  1.00  0.00     0.029 A 
ENDBRANCH  12  14
BRANCH   1  20
HETATM   20  C   UNL     1      39.068  -8.814   8.984  1.00  0.00     0.230 C 
BRANCH  20  21
HETATM   21  C   UNL     1      39.448  -8.588  10.451  1.00  0.00     0.235 C 
HETATM   22  N   UNL     1      39.453  -9.716  11.243  1.00  0.00    -0.358 N 
HETATM   23  H   UNL     1      38.948 -10.527  10.900  1.00  0.00     0.162 HD
HETATM   24  O   UNL     1      39.649  -7.460  10.897  1.00  0.00    -0.272 OA
BRANCH  22  25
HETATM   25  C   UNL     1      39.627  -9.621  12.682  1.00  0.00     0.148 C 
BRANCH  25  26
HETATM   26  C   UNL     1      40.987 -10.149  13.129  1.00  0.00     0.186 C 
BRANCH  26  27
HETATM   27  O   UNL     1      42.019  -9.419  12.457  1.00  0.00    -0.394 OA
HETATM   28  C   UNL     1      43.022 -10.290  11.946  1.00  0.00     0.201 C 
ENDBRANCH  26  27
ENDBRANCH  25  26
ENDBRANCH  22  25
ENDBRANCH  20  21
ENDBRANCH   1  20
BRANCH   8  29
HETATM   29  C   UNL     1      42.213 -14.054   3.313  1.00  0.00     0.032 A 
HETATM   30  C   UNL     1      43.000 -14.578   4.341  1.00  0.00     0.018 A 
HETATM   31  C   UNL     1      43.318 -15.939   4.342  1.00  0.00     0.013 A 
HETATM   32  C   UNL     1      42.827 -16.807   3.347  1.00  0.00    -0.026 A 
HETATM   33  C   UNL     1      41.950 -16.265   2.386  1.00  0.00     0.013 A 
HETATM   34  C   UNL     1      41.645 -14.902   2.364  1.00  0.00     0.018 A 
BRANCH  32  35
HETATM   35  C   UNL     1      43.261 -18.221   3.284  1.00  0.00    -0.026 A 
HETATM   36  C   UNL     1      43.082 -18.999   2.128  1.00  0.00     0.012 A 
HETATM   37  C   UNL     1      43.445 -20.350   2.096  1.00  0.00     0.001 A 
HETATM   38  C   UNL     1      44.007 -20.948   3.220  1.00  0.00     0.000 A 
HETATM   39  C   UNL     1      44.205 -20.199   4.374  1.00  0.00     0.001 A 
HETATM   40  C   UNL     1      43.833 -18.851   4.406  1.00  0.00     0.012 A 
ENDBRANCH  32  35
ENDBRANCH   8  29
TORSDOF 8
ENDMDL
MODEL 2
REMARK VINA RESULT:      -9.5      1.292      2.166
REMARK  8 active torsions:
REMARK  status: ('A' for Active; 'I' for Inactive)
REMARK    1  A    between atoms: O_2  and  C_3 
REMARK    2  A    between atoms: C_3  and  C_4 
REMARK    3  A    between atoms: C_4  and  N_5 
REMARK       I    between atoms: N_5  and  C_6 
REMARK    4  A    between atoms: C_6  and  C_7 
REMARK    5  A    between atoms: C_7  and  N_8 
REMARK       I    between atoms: N_14  and  C_15 
REMARK    6  A    between atoms: C_15  and  C_16 
REMARK    7  A    between atoms: C_19  and  C_20 
REMARK    8  A    between atoms: N_31  and  C_32 
ROOT
HETATM    1  N   UNL     1      40.032  -9.714   8.266  1.00  0.00    -0.325 N 
HETATM    2  C   UNL     1      39.978 -10.268   7.012  1.00  0.00     0.250 A 
HETATM    3  O   UNL     1      38.953 -10.595   6.434  1.00  0.00    -0.270 OA
HETATM    4  C   UNL     1      41.427 -10.451   6.511  1.00  0.00     0.118 A 
HETATM    5  C   UNL     1      41.573  -9.698   5.176  1.00  0.00     0.061 C 
HETATM    6  C   UNL     1      40.970 -10.468   4.001  1.00  0.00     0.129 C 
HETATM    7  N   UNL     1      41.399 -11.862   4.013  1.00  0.00    -0.348 N 
HETATM    8  C   UNL     1      42.361 -12.282   3.091  1.00  0.00     0.253 C 
HETATM    9  O   UNL     1      42.909 -11.532   2.287  1.00  0.00    -0.267 OA
HETATM   10  C   UNL     1      41.018 -12.597   5.218  1.00  0.00     0.129 C 
HETATM   11  C   UNL     1      41.672 -11.969   6.444  1.00  0.00     0.061 C 
HETATM   12  N   UNL     1      42.218  -9.819   7.610  1.00  0.00    -0.346 N 
HETATM   13  C   UNL     1      41.352  -9.378   8.693  1.00  0.00     0.254 A 
ENDROOT
BRANCH  12  14
HETATM   14  C   UNL     1      43.594  -9.746   7.748  1.00  0.00     0.032 A 
HETATM   15  C   UNL     1      44.250  -8.681   8.385  1.00  0.00     0.029 A 
HETATM   16  C   UNL     1      45.646  -8.615   8.504  1.00  0.00     0.002 A 
HETATM   17  C   UNL     1      46.443  -9.625   7.988  1.00  0.00     0.000 A 
HETATM   18  C   UNL     1      45.837 -10.704   7.361  1.00  0.00     0.002 A 
HETATM   19  C   UNL     1      44.441 -10.758   7.251  1.00  0.00     0.029 A 
ENDBRANCH  12  14
BRANCH   1  20
HETATM   20  C   UNL     1      38.871  -9.420   9.094  1.00  0.00     0.230 C 
BRANCH  20  21
HETATM   21  C   UNL     1      39.062  -8.216  10.023  1.00  0.00     0.235 C 
HETATM   22  N   UNL     1      39.046  -8.500  11.371  1.00  0.00    -0.358 N 
HETATM   23  H   UNL     1      38.636  -9.384  11.655  1.00  0.00     0.162 HD
HETATM   24  O   UNL     1      39.137  -7.071   9.583  1.00  0.00    -0.272 OA
BRANCH  22  25
HETATM   25  C   UNL     1      39.043  -7.436  12.361  1.00  0.00     0.148 C 
BRANCH  25  26
HETATM   26  C   UNL     1      37.628  -6.973  12.697  1.00  0.00     0.186 C 
BRANCH  26  27
HETATM   27  O   UNL     1      37.614  -6.430  14.022  1.00  0.00    -0.394 OA
HETATM   28  C   UNL     1      38.627  -5.444  14.188  1.00  0.00     0.201 C 
ENDBRANCH  26  27
ENDBRANCH  25  26
ENDBRANCH  22  25
ENDBRANCH  20  21
ENDBRANCH   1  20
BRANCH   8  29
HETATM   29  C   UNL     1      42.770 -13.705   3.098  1.00  0.00     0.032 A 
HETATM   30  C   UNL     1      42.852 -14.435   1.911  1.00  0.00     0.018 A 
HETATM   31  C   UNL     1      43.088 -15.811   1.960  1.00  0.00     0.013 A 
HETATM   32  C   UNL     1      43.287 -16.476   3.186  1.00  0.00    -0.026 A 
HETATM   33  C   UNL     1      43.305 -15.692   4.357  1.00  0.00     0.013 A 
HETATM   34  C   UNL     1      43.047 -14.319   4.319  1.00  0.00     0.018 A 
BRANCH  32  35
HETATM   35  C   UNL     1      43.419 -17.950   3.244  1.00  0.00    -0.026 A 
HETATM   36  C   UNL     1      43.956 -18.601   4.367  1.00  0.00     0.012 A 
HETATM   37  C   UNL     1      44.127 -19.990   4.390  1.00  0.00     0.001 A 
HETATM   38  C   UNL     1      43.754 -20.758   3.291  1.00  0.00     0.000 A 
HETATM   39  C   UNL     1      43.211 -20.140   2.170  1.00  0.00     0.001 A 
HETATM   40  C   UNL     1      43.049 -18.751   2.147  1.00  0.00     0.012 A 
ENDBRANCH  32  35
ENDBRANCH   8  29
TORSDOF 8
ENDMDL
MODEL 3
REMARK VINA RESULT:      -8.8      2.897     10.040
REMARK  8 active torsions:
REMARK  status: ('A' for Active; 'I' for Inactive)
REMARK    1  A    between atoms: O_2  and  C_3 
REMARK    2  A    between atoms: C_3  and  C_4 
REMARK    3  A    between atoms: C_4  and  N_5 
REMARK       I    between atoms: N_5  and  C_6 
REMARK    4  A    between atoms: C_6  and  C_7 
REMARK    5  A    between atoms: C_7  and  N_8 
REMARK       I    between atoms: N_14  and  C_15 
REMARK    6  A    between atoms: C_15  and  C_16 
REMARK    7  A    between atoms: C_19  and  C_20 
REMARK    8  A    between atoms: N_31  and  C_32 
ROOT
HETATM    1  N   UNL     1      42.043 -13.810   4.630  1.00  0.00    -0.325 N 
HETATM    2  C   UNL     1      43.013 -13.417   5.518  1.00  0.00     0.250 A 
HETATM    3  O   UNL     1      43.676 -14.172   6.212  1.00  0.00    -0.270 OA
HETATM    4  C   UNL     1      43.061 -11.873   5.516  1.00  0.00     0.118 A 
HETATM    5  C   UNL     1      44.494 -11.436   5.164  1.00  0.00     0.061 C 
HETATM    6  C   UNL     1      45.451 -11.558   6.350  1.00  0.00     0.129 C 
HETATM    7  N   UNL     1      44.869 -10.974   7.554  1.00  0.00    -0.348 N 
HETATM    8  C   UNL     1      45.338  -9.736   8.000  1.00  0.00     0.253 C 
HETATM    9  O   UNL     1      46.191  -9.077   7.410  1.00  0.00    -0.267 OA
HETATM   10  C   UNL     1      43.617 -11.598   7.977  1.00  0.00     0.129 C 
HETATM   11  C   UNL     1      42.553 -11.424   6.898  1.00  0.00     0.061 C 
HETATM   12  N   UNL     1      42.081 -11.533   4.439  1.00  0.00    -0.346 N 
HETATM   13  C   UNL     1      41.450 -12.731   3.907  1.00  0.00     0.254 A 
ENDROOT
BRANCH  12  14
HETATM   14  C   UNL     1      41.651 -10.282   4.032  1.00  0.00     0.032 A 
HETATM   15  C   UNL     1      41.712  -9.141   4.847  1.00  0.00     0.029 A 
HETATM   16  C   UNL     1      41.259  -7.883   4.423  1.00  0.00     0.002 A 
HETATM   17  C   UNL     1      40.726  -7.720   3.154  1.00  0.00     0.000 A 
HETATM   18  C   UNL     1      40.657  -8.817   2.308  1.00  0.00     0.002 A 
HETATM   19  C   UNL     1      41.116 -10.068   2.744  1.00  0.00     0.029 A 
ENDBRANCH  12  14
BRANCH   1  20
HETATM   20  C   UNL     1      41.667 -15.192   4.372  1.00  0.00     0.230 C 
BRANCH  20  21
HETATM   21  C   UNL     1      42.842 -16.090   3.970  1.00  0.00     0.235 C 
HETATM   22  N   UNL     1      43.215 -17.031   4.904  1.00  0.00    -0.358 N 
HETATM   23  H   UNL     1      42.906 -16.886   5.860  1.00  0.00     0.162 HD
HETATM   24  O   UNL     1      43.455 -15.914   2.919  1.00  0.00    -0.272 OA
BRANCH  22  25
HETATM   25  C   UNL     1      44.416 -17.829   4.726  1.00  0.00     0.148 C 
BRANCH  25  26
HETATM   26  C   UNL     1      44.102 -19.218   4.175  1.00  0.00     0.186 C 
BRANCH  26  27
HETATM   27  O   UNL     1      44.184 -19.186   2.746  1.00  0.00    -0.394 OA
HETATM   28  C   UNL     1      43.444 -20.252   2.162  1.00  0.00     0.201 C 
ENDBRANCH  26  27
ENDBRANCH  25  26
ENDBRANCH  22  25
ENDBRANCH  20  21
ENDBRANCH   1  20
BRANCH   8  29
HETATM   29  C   UNL     1      44.756  -9.166   9.236  1.00  0.00     0.032 A 
HETATM   30  C   UNL     1      45.027  -9.731  10.484  1.00  0.00     0.018 A 
HETATM   31  C   UNL     1      44.344  -9.272  11.613  1.00  0.00     0.013 A 
HETATM   32  C   UNL     1      43.412  -8.220  11.528  1.00  0.00    -0.026 A 
HETATM   33  C   UNL     1      43.241  -7.602  10.273  1.00  0.00     0.013 A 
HETATM   34  C   UNL     1      43.903  -8.069   9.134  1.00  0.00     0.018 A 
BRANCH  32  35
HETATM   35  C   UNL     1      42.605  -7.816  12.702  1.00  0.00    -0.026 A 
HETATM   36  C   UNL     1      43.202  -7.380  13.896  1.00  0.00     0.012 A 
HETATM   37  C   UNL     1      42.432  -7.053  15.018  1.00  0.00     0.001 A 
HETATM   38  C   UNL     1      41.044  -7.146  14.963  1.00  0.00     0.000 A 
HETATM   39  C   UNL     1      40.427  -7.565  13.790  1.00  0.00     0.001 A 
HETATM   40  C   UNL     1      41.199  -7.900  12.674  1.00  0.00     0.012 A 
ENDBRANCH  32  35
ENDBRANCH   8  29
TORSDOF 8
ENDMDL
MODEL 4
REMARK VINA RESULT:      -8.7      5.957     10.278
REMARK  8 active torsions:
REMARK  status: ('A' for Active; 'I' for Inactive)
REMARK    1  A    between atoms: O_2  and  C_3 
REMARK    2  A    between atoms: C_3  and  C_4 
REMARK    3  A    between atoms: C_4  and  N_5 
REMARK       I    between atoms: N_5  and  C_6 
REMARK    4  A    between atoms: C_6  and  C_7 
REMARK    5  A    between atoms: C_7  and  N_8 
REMARK       I    between atoms: N_14  and  C_15 
REMARK    6  A    between atoms: C_15  and  C_16 
REMARK    7  A    between atoms: C_19  and  C_20 
REMARK    8  A    between atoms: N_31  and  C_32 
ROOT
HETATM    1  N   UNL     1      41.444  -9.325  -2.143  1.00  0.00    -0.325 N 
HETATM    2  C   UNL     1      41.441  -9.648  -0.810  1.00  0.00     0.250 A 
HETATM    3  O   UNL     1      42.157  -9.136   0.037  1.00  0.00    -0.270 OA
HETATM    4  C   UNL     1      40.429 -10.796  -0.601  1.00  0.00     0.118 A 
HETATM    5  C   UNL     1      39.394 -10.341   0.444  1.00  0.00     0.061 C 
HETATM    6  C   UNL     1      39.929 -10.427   1.873  1.00  0.00     0.129 C 
HETATM    7  N   UNL     1      40.576 -11.712   2.114  1.00  0.00    -0.348 N 
HETATM    8  C   UNL     1      39.911 -12.670   2.884  1.00  0.00     0.253 C 
HETATM    9  O   UNL     1      38.782 -12.514   3.341  1.00  0.00    -0.267 OA
HETATM   10  C   UNL     1      41.714 -11.983   1.238  1.00  0.00     0.129 C 
HETATM   11  C   UNL     1      41.256 -12.036  -0.216  1.00  0.00     0.061 C 
HETATM   12  N   UNL     1      39.836 -10.939  -1.965  1.00  0.00    -0.346 N 
HETATM   13  C   UNL     1      40.475 -10.038  -2.912  1.00  0.00     0.254 A 
ENDROOT
BRANCH  12  14
HETATM   14  C   UNL     1      38.911 -11.869  -2.408  1.00  0.00     0.032 A 
HETATM   15  C   UNL     1      39.258 -13.158  -2.838  1.00  0.00     0.029 A 
HETATM   16  C   UNL     1      38.309 -14.085  -3.297  1.00  0.00     0.002 A 
HETATM   17  C   UNL     1      36.964 -13.749  -3.337  1.00  0.00     0.000 A 
HETATM   18  C   UNL     1      36.573 -12.490  -2.909  1.00  0.00     0.002 A 
HETATM   19  C   UNL     1      37.531 -11.576  -2.451  1.00  0.00     0.029 A 
ENDBRANCH  12  14
BRANCH   1  20
HETATM   20  C   UNL     1      42.295  -8.312  -2.749  1.00  0.00     0.230 C 
BRANCH  20  21
HETATM   21  C   UNL     1      41.576  -7.436  -3.782  1.00  0.00     0.235 C 
HETATM   22  N   UNL     1      42.074  -7.504  -5.065  1.00  0.00    -0.358 N 
HETATM   23  H   UNL     1      43.012  -7.873  -5.181  1.00  0.00     0.162 HD
HETATM   24  O   UNL     1      40.674  -6.668  -3.457  1.00  0.00    -0.272 OA
BRANCH  22  25
HETATM   25  C   UNL     1      41.600  -6.602  -6.101  1.00  0.00     0.148 C 
BRANCH  25  26
HETATM   26  C   UNL     1      42.648  -5.555  -6.469  1.00  0.00     0.186 C 
BRANCH  26  27
HETATM   27  O   UNL     1      43.879  -6.213  -6.785  1.00  0.00    -0.394 OA
HETATM   28  C   UNL     1      44.039  -6.365  -8.191  1.00  0.00     0.201 C 
ENDBRANCH  26  27
ENDBRANCH  25  26
ENDBRANCH  22  25
ENDBRANCH  20  21
ENDBRANCH   1  20
BRANCH   8  29
HETATM   29  C   UNL     1      40.589 -13.961   3.140  1.00  0.00     0.032 A 
HETATM   30  C   UNL     1      41.642 -14.050   4.053  1.00  0.00     0.018 A 
HETATM   31  C   UNL     1      42.364 -15.242   4.162  1.00  0.00     0.013 A 
HETATM   32  C   UNL     1      42.027 -16.374   3.395  1.00  0.00    -0.026 A 
HETATM   33  C   UNL     1      40.894 -16.283   2.561  1.00  0.00     0.013 A 
HETATM   34  C   UNL     1      40.180 -15.089   2.430  1.00  0.00     0.018 A 
BRANCH  32  35
HETATM   35  C   UNL     1      42.865 -17.594   3.424  1.00  0.00    -0.026 A 
HETATM   36  C   UNL     1      42.900 -18.494   2.345  1.00  0.00     0.012 A 
HETATM   37  C   UNL     1      43.652 -19.673   2.404  1.00  0.00     0.001 A 
HETATM   38  C   UNL     1      44.395 -19.970   3.543  1.00  0.00     0.000 A 
HETATM   39  C   UNL     1      44.387 -19.092   4.621  1.00  0.00     0.001 A 
HETATM   40  C   UNL     1      43.627 -17.920   4.562  1.00  0.00     0.012 A 
ENDBRANCH  32  35
ENDBRANCH   8  29
TORSDOF 8
ENDMDL
MODEL 5
REMARK VINA RESULT:      -8.5      5.510      9.019
REMARK  8 active torsions:
REMARK  status: ('A' for Active; 'I' for Inactive)
REMARK    1  A    between atoms: O_2  and  C_3 
REMARK    2  A    between atoms: C_3  and  C_4 
REMARK    3  A    between atoms: C_4  and  N_5 
REMARK       I    between atoms: N_5  and  C_6 
REMARK    4  A    between atoms: C_6  and  C_7 
REMARK    5  A    between atoms: C_7  and  N_8 
REMARK       I    between atoms: N_14  and  C_15 
REMARK    6  A    between atoms: C_15  and  C_16 
REMARK    7  A    between atoms: C_19  and  C_20 
REMARK    8  A    between atoms: N_31  and  C_32 
ROOT
HETATM    1  N   UNL     1      41.384  -9.266  -2.178  1.00  0.00    -0.325 N 
HETATM    2  C   UNL     1      41.418  -9.595  -0.846  1.00  0.00     0.250 A 
HETATM    3  O   UNL     1      42.174  -9.104  -0.022  1.00  0.00    -0.270 OA
HETATM    4  C   UNL     1      40.385 -10.719  -0.607  1.00  0.00     0.118 A 
HETATM    5  C   UNL     1      39.397 -10.244   0.473  1.00  0.00     0.061 C 
HETATM    6  C   UNL     1      39.978 -10.349   1.884  1.00  0.00     0.129 C 
HETATM    7  N   UNL     1      40.601 -11.651   2.097  1.00  0.00    -0.348 N 
HETATM    8  C   UNL     1      39.940 -12.596   2.885  1.00  0.00     0.253 C 
HETATM    9  O   UNL     1      38.830 -12.415   3.381  1.00  0.00    -0.267 OA
HETATM   10  C   UNL     1      41.703 -11.946   1.182  1.00  0.00     0.129 C 
HETATM   11  C   UNL     1      41.195 -11.980  -0.255  1.00  0.00     0.061 C 
HETATM   12  N   UNL     1      39.744 -10.842  -1.952  1.00  0.00    -0.346 N 
HETATM   13  C   UNL     1      40.372  -9.952  -2.916  1.00  0.00     0.254 A 
ENDROOT
BRANCH  12  14
HETATM   14  C   UNL     1      38.782 -11.747  -2.366  1.00  0.00     0.032 A 
HETATM   15  C   UNL     1      39.076 -13.064  -2.750  1.00  0.00     0.029 A 
HETATM   16  C   UNL     1      38.091 -13.966  -3.181  1.00  0.00     0.002 A 
HETATM   17  C   UNL     1      36.762 -13.576  -3.240  1.00  0.00     0.000 A 
HETATM   18  C   UNL     1      36.422 -12.287  -2.858  1.00  0.00     0.002 A 
HETATM   19  C   UNL     1      37.416 -11.398  -2.427  1.00  0.00     0.029 A 
ENDBRANCH  12  14
BRANCH   1  20
HETATM   20  C   UNL     1      42.238  -8.271  -2.808  1.00  0.00     0.230 C 
BRANCH  20  21
HETATM   21  C   UNL     1      41.848  -6.824  -2.483  1.00  0.00     0.235 C 
HETATM   22  N   UNL     1      42.580  -6.224  -1.482  1.00  0.00    -0.358 N 
HETATM   23  H   UNL     1      43.099  -6.832  -0.856  1.00  0.00     0.162 HD
HETATM   24  O   UNL     1      40.890  -6.279  -3.027  1.00  0.00    -0.272 OA
BRANCH  22  25
HETATM   25  C   UNL     1      42.206  -4.922  -0.958  1.00  0.00     0.148 C 
BRANCH  25  26
HETATM   26  C   UNL     1      43.423  -4.115  -0.511  1.00  0.00     0.186 C 
BRANCH  26  27
HETATM   27  O   UNL     1      44.312  -4.971   0.215  1.00  0.00    -0.394 OA
HETATM   28  C   UNL     1      44.656  -4.410   1.476  1.00  0.00     0.201 C 
ENDBRANCH  26  27
ENDBRANCH  25  26
ENDBRANCH  22  25
ENDBRANCH  20  21
ENDBRANCH   1  20
BRANCH   8  29
HETATM   29  C   UNL     1      40.594 -13.904   3.114  1.00  0.00     0.032 A 
HETATM   30  C   UNL     1      41.643 -14.032   4.027  1.00  0.00     0.018 A 
HETATM   31  C   UNL     1      42.344 -15.239   4.110  1.00  0.00     0.013 A 
HETATM   32  C   UNL     1      41.989 -16.348   3.317  1.00  0.00    -0.026 A 
HETATM   33  C   UNL     1      40.860 -16.218   2.484  1.00  0.00     0.013 A 
HETATM   34  C   UNL     1      40.167 -15.008   2.378  1.00  0.00     0.018 A 
BRANCH  32  35
HETATM   35  C   UNL     1      42.805 -17.582   3.320  1.00  0.00    -0.026 A 
HETATM   36  C   UNL     1      42.778 -18.491   2.249  1.00  0.00     0.012 A 
HETATM   37  C   UNL     1      43.511 -19.682   2.285  1.00  0.00     0.001 A 
HETATM   38  C   UNL     1      44.297 -19.985   3.393  1.00  0.00     0.000 A 
HETATM   39  C   UNL     1      44.350 -19.099   4.463  1.00  0.00     0.001 A 
HETATM   40  C   UNL     1      43.610 -17.913   4.428  1.00  0.00     0.012 A 
ENDBRANCH  32  35
ENDBRANCH   8  29
TORSDOF 8
ENDMDL
MODEL 6
REMARK VINA RESULT:      -8.5      4.655      9.116
REMARK  8 active torsions:
REMARK  status: ('A' for Active; 'I' for Inactive)
REMARK    1  A    between atoms: O_2  and  C_3 
REMARK    2  A    between atoms: C_3  and  C_4 
REMARK    3  A    between atoms: C_4  and  N_5 
REMARK       I    between atoms: N_5  and  C_6 
REMARK    4  A    between atoms: C_6  and  C_7 
REMARK    5  A    between atoms: C_7  and  N_8 
REMARK       I    between atoms: N_14  and  C_15 
REMARK    6  A    between atoms: C_15  and  C_16 
REMARK    7  A    between atoms: C_19  and  C_20 
REMARK    8  A    between atoms: N_31  and  C_32 
ROOT
HETATM    1  N   UNL     1      43.444 -15.164   5.559  1.00  0.00    -0.325 N 
HETATM    2  C   UNL     1      42.945 -15.166   4.280  1.00  0.00     0.250 A 
HETATM    3  O   UNL     1      43.265 -15.955   3.404  1.00  0.00    -0.270 OA
HETATM    4  C   UNL     1      41.974 -13.972   4.147  1.00  0.00     0.118 A 
HETATM    5  C   UNL     1      40.603 -14.514   3.705  1.00  0.00     0.061 C 
HETATM    6  C   UNL     1      40.555 -14.841   2.213  1.00  0.00     0.129 C 
HETATM    7  N   UNL     1      41.110 -13.749   1.420  1.00  0.00    -0.348 N 
HETATM    8  C   UNL     1      40.239 -12.917   0.712  1.00  0.00     0.253 C 
HETATM    9  O   UNL     1      39.015 -13.020   0.750  1.00  0.00    -0.267 OA
HETATM   10  C   UNL     1      42.506 -13.437   1.723  1.00  0.00     0.129 C 
HETATM   11  C   UNL     1      42.639 -12.982   3.173  1.00  0.00     0.061 C 
HETATM   12  N   UNL     1      41.952 -13.433   5.540  1.00  0.00    -0.346 N 
HETATM   13  C   UNL     1      42.869 -14.165   6.401  1.00  0.00     0.254 A 
ENDROOT
BRANCH  12  14
HETATM   14  C   UNL     1      41.301 -12.308   6.017  1.00  0.00     0.032 A 
HETATM   15  C   UNL     1      41.965 -11.122   6.365  1.00  0.00     0.029 A 
HETATM   16  C   UNL     1      41.292  -9.994   6.860  1.00  0.00     0.002 A 
HETATM   17  C   UNL     1      39.916 -10.015   7.022  1.00  0.00     0.000 A 
HETATM   18  C   UNL     1      39.216 -11.161   6.679  1.00  0.00     0.002 A 
HETATM   19  C   UNL     1      39.901 -12.279   6.183  1.00  0.00     0.029 A 
ENDBRANCH  12  14
BRANCH   1  20
HETATM   20  C   UNL     1      44.423 -16.112   6.069  1.00  0.00     0.230 C 
BRANCH  20  21
HETATM   21  C   UNL     1      43.868 -17.528   6.267  1.00  0.00     0.235 C 
HETATM   22  N   UNL     1      44.221 -18.443   5.299  1.00  0.00    -0.358 N 
HETATM   23  H   UNL     1      44.555 -18.078   4.413  1.00  0.00     0.162 HD
HETATM   24  O   UNL     1      43.094 -17.792   7.184  1.00  0.00    -0.272 OA
BRANCH  22  25
HETATM   25  C   UNL     1      43.628 -19.769   5.270  1.00  0.00     0.148 C 
BRANCH  25  26
HETATM   26  C   UNL     1      44.446 -20.742   4.425  1.00  0.00     0.186 C 
BRANCH  26  27
HETATM   27  O   UNL     1      43.642 -21.210   3.337  1.00  0.00    -0.394 OA
HETATM   28  C   UNL     1      43.727 -20.336   2.217  1.00  0.00     0.201 C 
ENDBRANCH  26  27
ENDBRANCH  25  26
ENDBRANCH  22  25
ENDBRANCH  20  21
ENDBRANCH   1  20
BRANCH   8  29
HETATM   29  C   UNL     1      40.816 -11.827  -0.107  1.00  0.00     0.032 A 
HETATM   30  C   UNL     1      41.295 -10.658   0.489  1.00  0.00     0.018 A 
HETATM   31  C   UNL     1      41.690  -9.585  -0.315  1.00  0.00     0.013 A 
HETATM   32  C   UNL     1      41.654  -9.671  -1.720  1.00  0.00    -0.026 A 
HETATM   33  C   UNL     1      41.267 -10.901  -2.288  1.00  0.00     0.013 A 
HETATM   34  C   UNL     1      40.849 -11.971  -1.493  1.00  0.00     0.018 A 
BRANCH  32  35
HETATM   35  C   UNL     1      41.960  -8.495  -2.566  1.00  0.00    -0.026 A 
HETATM   36  C   UNL     1      41.489  -8.390  -3.886  1.00  0.00     0.012 A 
HETATM   37  C   UNL     1      41.828  -7.300  -4.695  1.00  0.00     0.001 A 
HETATM   38  C   UNL     1      42.639  -6.285  -4.196  1.00  0.00     0.000 A 
HETATM   39  C   UNL     1      43.111  -6.359  -2.890  1.00  0.00     0.001 A 
HETATM   40  C   UNL     1      42.778  -7.453  -2.087  1.00  0.00     0.012 A 
ENDBRANCH  32  35
ENDBRANCH   8  29
TORSDOF 8
ENDMDL
MODEL 7
REMARK VINA RESULT:      -8.4      4.158      8.548
REMARK  8 active torsions:
REMARK  status: ('A' for Active; 'I' for Inactive)
REMARK    1  A    between atoms: O_2  and  C_3 
REMARK    2  A    between atoms: C_3  and  C_4 
REMARK    3  A    between atoms: C_4  and  N_5 
REMARK       I    between atoms: N_5  and  C_6 
REMARK    4  A    between atoms: C_6  and  C_7 
REMARK    5  A    between atoms: C_7  and  N_8 
REMARK       I    between atoms: N_14  and  C_15 
REMARK    6  A    between atoms: C_15  and  C_16 
REMARK    7  A    between atoms: C_19  and  C_20 
REMARK    8  A    between atoms: N_31  and  C_32 
ROOT
HETATM    1  N   UNL     1      42.834 -16.120   6.504  1.00  0.00    -0.325 N 
HETATM    2  C   UNL     1      41.807 -15.559   5.787  1.00  0.00     0.250 A 
HETATM    3  O   UNL     1      40.890 -16.181   5.272  1.00  0.00    -0.270 OA
HETATM    4  C   UNL     1      42.060 -14.038   5.704  1.00  0.00     0.118 A 
HETATM    5  C   UNL     1      40.833 -13.313   6.285  1.00  0.00     0.061 C 
HETATM    6  C   UNL     1      39.662 -13.266   5.304  1.00  0.00     0.129 C 
HETATM    7  N   UNL     1      40.104 -12.839   3.981  1.00  0.00    -0.348 N 
HETATM    8  C   UNL     1      39.808 -11.542   3.555  1.00  0.00     0.253 C 
HETATM    9  O   UNL     1      39.228 -10.712   4.250  1.00  0.00    -0.267 OA
HETATM   10  C   UNL     1      41.108 -13.712   3.374  1.00  0.00     0.129 C 
HETATM   11  C   UNL     1      42.371 -13.732   4.228  1.00  0.00     0.061 C 
HETATM   12  N   UNL     1      43.275 -13.878   6.560  1.00  0.00    -0.346 N 
HETATM   13  C   UNL     1      43.752 -15.167   7.040  1.00  0.00     0.254 A 
ENDROOT
BRANCH  12  14
HETATM   14  C   UNL     1      44.010 -12.731   6.806  1.00  0.00     0.032 A 
HETATM   15  C   UNL     1      45.122 -12.348   6.041  1.00  0.00     0.029 A 
HETATM   16  C   UNL     1      45.865 -11.189   6.311  1.00  0.00     0.002 A 
HETATM   17  C   UNL     1      45.514 -10.362   7.367  1.00  0.00     0.000 A 
HETATM   18  C   UNL     1      44.414 -10.694   8.143  1.00  0.00     0.002 A 
HETATM   19  C   UNL     1      43.679 -11.853   7.860  1.00  0.00     0.029 A 
ENDBRANCH  12  14
BRANCH   1  20
HETATM   20  C   UNL     1      42.978 -17.543   6.771  1.00  0.00     0.230 C 
BRANCH  20  21
HETATM   21  C   UNL     1      43.573 -18.336   5.602  1.00  0.00     0.235 C 
HETATM   22  N   UNL     1      43.681 -17.647   4.413  1.00  0.00    -0.358 N 
HETATM   23  H   UNL     1      43.121 -16.807   4.310  1.00  0.00     0.162 HD
HETATM   24  O   UNL     1      43.850 -19.529   5.709  1.00  0.00    -0.272 OA
BRANCH  22  25
HETATM   25  C   UNL     1      44.066 -18.325   3.187  1.00  0.00     0.148 C 
BRANCH  25  26
HETATM   26  C   UNL     1      42.891 -18.474   2.224  1.00  0.00     0.186 C 
BRANCH  26  27
HETATM   27  O   UNL     1      42.733 -19.856   1.886  1.00  0.00    -0.394 OA
HETATM   28  C   UNL     1      43.835 -20.630   2.346  1.00  0.00     0.201 C 
ENDBRANCH  26  27
ENDBRANCH  25  26
ENDBRANCH  22  25
ENDBRANCH  20  21
ENDBRANCH   1  20
BRANCH   8  29
HETATM   29  C   UNL     1      40.242 -11.130   2.201  1.00  0.00     0.032 A 
HETATM   30  C   UNL     1      41.427 -10.415   2.014  1.00  0.00     0.018 A 
HETATM   31  C   UNL     1      41.734  -9.905   0.749  1.00  0.00     0.013 A 
HETATM   32  C   UNL     1      40.891 -10.131  -0.356  1.00  0.00    -0.026 A 
HETATM   33  C   UNL     1      39.759 -10.945  -0.155  1.00  0.00     0.013 A 
HETATM   34  C   UNL     1      39.432 -11.441   1.110  1.00  0.00     0.018 A 
BRANCH  32  35
HETATM   35  C   UNL     1      41.156  -9.491  -1.664  1.00  0.00    -0.026 A 
HETATM   36  C   UNL     1      42.057  -8.420  -1.795  1.00  0.00     0.012 A 
HETATM   37  C   UNL     1      42.260  -7.786  -3.026  1.00  0.00     0.001 A 
HETATM   38  C   UNL     1      41.572  -8.219  -4.156  1.00  0.00     0.000 A 
HETATM   39  C   UNL     1      40.682  -9.282  -4.057  1.00  0.00     0.001 A 
HETATM   40  C   UNL     1      40.475  -9.908  -2.824  1.00  0.00     0.012 A 
ENDBRANCH  32  35
ENDBRANCH   8  29
TORSDOF 8
ENDMDL
MODEL 8
REMARK VINA RESULT:      -8.2      3.535     10.273
REMARK  8 active torsions:
REMARK  status: ('A' for Active; 'I' for Inactive)
REMARK    1  A    between atoms: O_2  and  C_3 
REMARK    2  A    between atoms: C_3  and  C_4 
REMARK    3  A    between atoms: C_4  and  N_5 
REMARK       I    between atoms: N_5  and  C_6 
REMARK    4  A    between atoms: C_6  and  C_7 
REMARK    5  A    between atoms: C_7  and  N_8 
REMARK       I    between atoms: N_14  and  C_15 
REMARK    6  A    between atoms: C_15  and  C_16 
REMARK    7  A    between atoms: C_19  and  C_20 
REMARK    8  A    between atoms: N_31  and  C_32 
ROOT
HETATM    1  N   UNL     1      41.614 -13.444   3.715  1.00  0.00    -0.325 N 
HETATM    2  C   UNL     1      42.525 -13.249   4.722  1.00  0.00     0.250 A 
HETATM    3  O   UNL     1      43.098 -14.140   5.331  1.00  0.00    -0.270 OA
HETATM    4  C   UNL     1      42.638 -11.729   4.973  1.00  0.00     0.118 A 
HETATM    5  C   UNL     1      44.112 -11.321   4.801  1.00  0.00     0.061 C 
HETATM    6  C   UNL     1      44.965 -11.681   6.017  1.00  0.00     0.129 C 
HETATM    7  N   UNL     1      44.314 -11.264   7.254  1.00  0.00    -0.348 N 
HETATM    8  C   UNL     1      44.797 -10.139   7.928  1.00  0.00     0.253 C 
HETATM    9  O   UNL     1      45.721  -9.442   7.515  1.00  0.00    -0.267 OA
HETATM   10  C   UNL     1      43.006 -11.877   7.480  1.00  0.00     0.129 C 
HETATM   11  C   UNL     1      42.041 -11.478   6.369  1.00  0.00     0.061 C 
HETATM   12  N   UNL     1      41.763 -11.171   3.898  1.00  0.00    -0.346 N 
HETATM   13  C   UNL     1      41.126 -12.234   3.135  1.00  0.00     0.254 A 
ENDROOT
BRANCH  12  14
HETATM   14  C   UNL     1      41.419  -9.850   3.668  1.00  0.00     0.032 A 
HETATM   15  C   UNL     1      41.547  -8.840   4.633  1.00  0.00     0.029 A 
HETATM   16  C   UNL     1      41.181  -7.507   4.389  1.00  0.00     0.002 A 
HETATM   17  C   UNL     1      40.673  -7.135   3.154  1.00  0.00     0.000 A 
HETATM   18  C   UNL     1      40.541  -8.098   2.164  1.00  0.00     0.002 A 
HETATM   19  C   UNL     1      40.913  -9.424   2.422  1.00  0.00     0.029 A 
ENDBRANCH  12  14
BRANCH   1  20
HETATM   20  C   UNL     1      41.201 -14.745   3.210  1.00  0.00     0.230 C 
BRANCH  20  21
HETATM   21  C   UNL     1      41.160 -14.832   1.680  1.00  0.00     0.235 C 
HETATM   22  N   UNL     1      39.904 -14.767   1.116  1.00  0.00    -0.358 N 
HETATM   23  H   UNL     1      39.112 -14.956   1.722  1.00  0.00     0.162 HD
HETATM   24  O   UNL     1      42.178 -15.030   1.020  1.00  0.00    -0.272 OA
BRANCH  22  25
HETATM   25  C   UNL     1      39.707 -15.008  -0.302  1.00  0.00     0.148 C 
BRANCH  25  26
HETATM   26  C   UNL     1      39.715 -13.712  -1.108  1.00  0.00     0.186 C 
BRANCH  26  27
HETATM   27  O   UNL     1      39.873 -14.023  -2.497  1.00  0.00    -0.394 OA
HETATM   28  C   UNL     1      38.710 -14.654  -3.021  1.00  0.00     0.201 C 
ENDBRANCH  26  27
ENDBRANCH  25  26
ENDBRANCH  22  25
ENDBRANCH  20  21
ENDBRANCH   1  20
BRANCH   8  29
HETATM   29  C   UNL     1      44.142  -9.741   9.194  1.00  0.00     0.032 A 
HETATM   30  C   UNL     1      43.504  -8.505   9.315  1.00  0.00     0.018 A 
HETATM   31  C   UNL     1      43.031  -8.090  10.562  1.00  0.00     0.013 A 
HETATM   32  C   UNL     1      43.149  -8.912  11.700  1.00  0.00    -0.026 A 
HETATM   33  C   UNL     1      43.702 -10.195  11.522  1.00  0.00     0.013 A 
HETATM   34  C   UNL     1      44.197 -10.610  10.283  1.00  0.00     0.018 A 
BRANCH  32  35
HETATM   35  C   UNL     1      42.755  -8.423  13.041  1.00  0.00    -0.026 A 
HETATM   36  C   UNL     1      41.719  -9.025  13.774  1.00  0.00     0.012 A 
HETATM   37  C   UNL     1      41.318  -8.521  15.017  1.00  0.00     0.001 A 
HETATM   38  C   UNL     1      41.955  -7.408  15.557  1.00  0.00     0.000 A 
HETATM   39  C   UNL     1      42.990  -6.798  14.858  1.00  0.00     0.001 A 
HETATM   40  C   UNL     1      43.383  -7.298  13.612  1.00  0.00     0.012 A 
ENDBRANCH  32  35
ENDBRANCH   8  29
TORSDOF 8
ENDMDL
MODEL 9
REMARK VINA RESULT:      -8.1     18.509     22.179
REMARK  8 active torsions:
REMARK  status: ('A' for Active; 'I' for Inactive)
REMARK    1  A    between atoms: O_2  and  C_3 
REMARK    2  A    between atoms: C_3  and  C_4 
REMARK    3  A    between atoms: C_4  and  N_5 
REMARK       I    between atoms: N_5  and  C_6 
REMARK    4  A    between atoms: C_6  and  C_7 
REMARK    5  A    between atoms: C_7  and  N_8 
REMARK       I    between atoms: N_14  and  C_15 
REMARK    6  A    between atoms: C_15  and  C_16 
REMARK    7  A    between atoms: C_19  and  C_20 
REMARK    8  A    between atoms: N_31  and  C_32 
ROOT
HETATM    1  N   UNL     1      48.032 -28.885  -0.306  1.00  0.00    -0.325 N 
HETATM    2  C   UNL     1      47.742 -29.709   0.752  1.00  0.00     0.250 A 
HETATM    3  O   UNL     1      46.809 -29.555   1.525  1.00  0.00    -0.270 OA
HETATM    4  C   UNL     1      48.828 -30.806   0.812  1.00  0.00     0.118 A 
HETATM    5  C   UNL     1      48.133 -32.177   0.733  1.00  0.00     0.061 C 
HETATM    6  C   UNL     1      47.506 -32.592   2.064  1.00  0.00     0.129 C 
HETATM    7  N   UNL     1      48.442 -32.399   3.166  1.00  0.00    -0.348 N 
HETATM    8  C   UNL     1      49.063 -33.516   3.731  1.00  0.00     0.253 C 
HETATM    9  O   UNL     1      48.902 -34.664   3.323  1.00  0.00    -0.267 OA
HETATM   10  C   UNL     1      48.886 -31.017   3.340  1.00  0.00     0.129 C 
HETATM   11  C   UNL     1      49.633 -30.545   2.098  1.00  0.00     0.061 C 
HETATM   12  N   UNL     1      49.639 -30.507  -0.408  1.00  0.00    -0.346 N 
HETATM   13  C   UNL     1      49.149 -29.315  -1.084  1.00  0.00     0.254 A 
ENDROOT
BRANCH  12  14
HETATM   14  C   UNL     1      50.800 -31.124  -0.841  1.00  0.00     0.032 A 
HETATM   15  C   UNL     1      51.472 -32.110  -0.103  1.00  0.00     0.029 A 
HETATM   16  C   UNL     1      52.656 -32.716  -0.550  1.00  0.00     0.002 A 
HETATM   17  C   UNL     1      53.212 -32.354  -1.768  1.00  0.00     0.000 A 
HETATM   18  C   UNL     1      52.575 -31.393  -2.538  1.00  0.00     0.002 A 
HETATM   19  C   UNL     1      51.391 -30.798  -2.080  1.00  0.00     0.029 A 
ENDBRANCH  12  14
BRANCH   1  20
HETATM   20  C   UNL     1      47.263 -27.706  -0.674  1.00  0.00     0.230 C 
BRANCH  20  21
HETATM   21  C   UNL     1      46.011 -28.017  -1.502  1.00  0.00     0.235 C 
HETATM   22  N   UNL     1      46.201 -28.077  -2.865  1.00  0.00    -0.358 N 
HETATM   23  H   UNL     1      47.040 -27.644  -3.237  1.00  0.00     0.162 HD
HETATM   24  O   UNL     1      44.903 -28.119  -0.978  1.00  0.00    -0.272 OA
BRANCH  22  25
HETATM   25  C   UNL     1      45.074 -28.193  -3.775  1.00  0.00     0.148 C 
BRANCH  25  26
HETATM   26  C   UNL     1      44.891 -29.622  -4.278  1.00  0.00     0.186 C 
BRANCH  26  27
HETATM   27  O   UNL     1      44.045 -30.336  -3.369  1.00  0.00    -0.394 OA
HETATM   28  C   UNL     1      44.324 -31.731  -3.390  1.00  0.00     0.201 C 
ENDBRANCH  26  27
ENDBRANCH  25  26
ENDBRANCH  22  25
ENDBRANCH  20  21
ENDBRANCH   1  20
BRANCH   8  29
HETATM   29  C   UNL     1      49.993 -33.308   4.864  1.00  0.00     0.032 A 
HETATM   30  C   UNL     1      49.530 -33.314   6.182  1.00  0.00     0.018 A 
HETATM   31  C   UNL     1      50.397 -32.961   7.219  1.00  0.00     0.013 A 
HETATM   32  C   UNL     1      51.745 -32.637   6.970  1.00  0.00    -0.026 A 
HETATM   33  C   UNL     1      52.205 -32.745   5.642  1.00  0.00     0.013 A 
HETATM   34  C   UNL     1      51.340 -33.075   4.595  1.00  0.00     0.018 A 
BRANCH  32  35
HETATM   35  C   UNL     1      52.628 -32.151   8.053  1.00  0.00    -0.026 A 
HETATM   36  C   UNL     1      52.472 -32.577   9.383  1.00  0.00     0.012 A 
HETATM   37  C   UNL     1      53.277 -32.069  10.409  1.00  0.00     0.001 A 
HETATM   38  C   UNL     1      54.264 -31.130  10.124  1.00  0.00     0.000 A 
HETATM   39  C   UNL     1      54.446 -30.698   8.815  1.00  0.00     0.001 A 
HETATM   40  C   UNL     1      53.635 -31.201   7.793  1.00  0.00     0.012 A 
ENDBRANCH  32  35
ENDBRANCH   8  29
TORSDOF 8
ENDMDL
MODEL 10
REMARK VINA RESULT:      -8.0     18.334     22.107
REMARK  8 active torsions:
REMARK  status: ('A' for Active; 'I' for Inactive)
REMARK    1  A    between atoms: O_2  and  C_3 
REMARK    2  A    between atoms: C_3  and  C_4 
REMARK    3  A    between atoms: C_4  and  N_5 
REMARK       I    between atoms: N_5  and  C_6 
REMARK    4  A    between atoms: C_6  and  C_7 
REMARK    5  A    between atoms: C_7  and  N_8 
REMARK       I    between atoms: N_14  and  C_15 
REMARK    6  A    between atoms: C_15  and  C_16 
REMARK    7  A    between atoms: C_19  and  C_20 
REMARK    8  A    between atoms: N_31  and  C_32 
ROOT
HETATM    1  N   UNL     1      45.385 -30.694  -3.071  1.00  0.00    -0.325 N 
HETATM    2  C   UNL     1      46.413 -30.124  -2.362  1.00  0.00     0.250 A 
HETATM    3  O   UNL     1      47.518 -29.868  -2.814  1.00  0.00    -0.270 OA
HETATM    4  C   UNL     1      45.937 -29.932  -0.905  1.00  0.00     0.118 A 
HETATM    5  C   UNL     1      46.078 -28.442  -0.545  1.00  0.00     0.061 C 
HETATM    6  C   UNL     1      47.521 -28.052  -0.225  1.00  0.00     0.129 C 
HETATM    7  N   UNL     1      48.128 -29.006   0.697  1.00  0.00    -0.348 N 
HETATM    8  C   UNL     1      48.305 -28.637   2.033  1.00  0.00     0.253 C 
HETATM    9  O   UNL     1      47.935 -27.561   2.498  1.00  0.00    -0.267 OA
HETATM   10  C   UNL     1      48.181 -30.377   0.193  1.00  0.00     0.129 C 
HETATM   11  C   UNL     1      46.770 -30.902  -0.048  1.00  0.00     0.061 C 
HETATM   12  N   UNL     1      44.509 -30.366  -0.985  1.00  0.00    -0.346 N 
HETATM   13  C   UNL     1      44.180 -30.845  -2.320  1.00  0.00     0.254 A 
ENDROOT
BRANCH  12  14
HETATM   14  C   UNL     1      43.585 -30.477   0.039  1.00  0.00     0.032 A 
HETATM   15  C   UNL     1      43.145 -31.707   0.551  1.00  0.00     0.029 A 
HETATM   16  C   UNL     1      42.197 -31.803   1.582  1.00  0.00     0.002 A 
HETATM   17  C   UNL     1      41.654 -30.658   2.143  1.00  0.00     0.000 A 
HETATM   18  C   UNL     1      42.069 -29.420   1.678  1.00  0.00     0.002 A 
HETATM   19  C   UNL     1      43.018 -29.339   0.650  1.00  0.00     0.029 A 
ENDBRANCH  12  14
BRANCH   1  20
HETATM   20  C   UNL     1      45.453 -31.068  -4.475  1.00  0.00     0.230 C 
BRANCH  20  21
HETATM   21  C   UNL     1      46.089 -32.441  -4.721  1.00  0.00     0.235 C 
HETATM   22  N   UNL     1      47.466 -32.460  -4.747  1.00  0.00    -0.358 N 
HETATM   23  H   UNL     1      47.941 -31.575  -4.892  1.00  0.00     0.162 HD
HETATM   24  O   UNL     1      45.404 -33.433  -4.961  1.00  0.00    -0.272 OA
BRANCH  22  25
HETATM   25  C   UNL     1      48.192 -33.656  -5.138  1.00  0.00     0.148 C 
BRANCH  25  26
HETATM   26  C   UNL     1      49.025 -33.432  -6.398  1.00  0.00     0.186 C 
BRANCH  26  27
HETATM   27  O   UNL     1      48.150 -33.146  -7.494  1.00  0.00    -0.394 OA
HETATM   28  C   UNL     1      48.734 -32.208  -8.391  1.00  0.00     0.201 C 
ENDBRANCH  26  27
ENDBRANCH  25  26
ENDBRANCH  22  25
ENDBRANCH  20  21
ENDBRANCH   1  20
BRANCH   8  29
HETATM   29  C   UNL     1      48.944 -29.605   2.953  1.00  0.00     0.032 A 
HETATM   30  C   UNL     1      48.180 -30.357   3.848  1.00  0.00     0.018 A 
HETATM   31  C   UNL     1      48.818 -31.146   4.808  1.00  0.00     0.013 A 
HETATM   32  C   UNL     1      50.223 -31.232   4.869  1.00  0.00    -0.026 A 
HETATM   33  C   UNL     1      50.960 -30.545   3.885  1.00  0.00     0.013 A 
HETATM   34  C   UNL     1      50.331 -29.735   2.935  1.00  0.00     0.018 A 
BRANCH  32  35
HETATM   35  C   UNL     1      50.897 -31.972   5.960  1.00  0.00    -0.026 A 
HETATM   36  C   UNL     1      52.228 -31.707   6.321  1.00  0.00     0.012 A 
HETATM   37  C   UNL     1      52.874 -32.450   7.316  1.00  0.00     0.001 A 
HETATM   38  C   UNL     1      52.195 -33.469   7.978  1.00  0.00     0.000 A 
HETATM   39  C   UNL     1      50.874 -33.746   7.647  1.00  0.00     0.001 A 
HETATM   40  C   UNL     1      50.234 -33.008   6.646  1.00  0.00     0.012 A 
ENDBRANCH  32  35
ENDBRANCH   8  29
TORSDOF 8
ENDMDL
