MODEL 1
REMARK VINA RESULT:      -8.9      0.000      0.000
REMARK  10 active torsions:
REMARK  status: ('A' for Active; 'I' for Inactive)
REMARK    1  A    between atoms: C_9  and  S_10 
REMARK    2  A    between atoms: S_10  and  C_11 
REMARK    3  A    between atoms: C_11  and  C_12 
REMARK       I    between atoms: C_12  and  N_13 
REMARK    4  A    between atoms: N_13  and  C_14 
REMARK    5  A    between atoms: C_14  and  C_15 
REMARK    6  A    between atoms: C_15  and  C_16 
REMARK    7  A    between atoms: C_19  and  S_20 
REMARK    8  A    between atoms: S_20  and  N_21 
REMARK    9  A    between atoms: N_27  and  C_28 
REMARK   10  A    between atoms: C_35  and  N_36 
ROOT
HETATM    1  C   UNL     1      43.344 -19.034   2.290  1.00  0.00     0.073 C 
HETATM    2  C   UNL     1      43.592 -18.127   3.441  1.00  0.00     0.068 A 
HETATM    3  N   UNL     1      44.309 -18.574   4.479  1.00  0.00    -0.177 NA
HETATM    4  N   UNL     1      44.317 -17.549   5.343  1.00  0.00    -0.260 N 
HETATM    5  H   UNL     1      44.802 -17.655   6.228  1.00  0.00     0.191 HD
HETATM    6  C   UNL     1      43.621 -16.464   4.893  1.00  0.00     0.162 A 
HETATM    7  C   UNL     1      43.147 -16.784   3.637  1.00  0.00     0.081 A 
HETATM    8  N   UNL     1      43.425 -15.325   5.555  1.00  0.00    -0.204 NA
HETATM    9  C   UNL     1      42.671 -14.452   4.850  1.00  0.00     0.177 A 
HETATM   10  N   UNL     1      42.173 -14.677   3.601  1.00  0.00    -0.276 N 
HETATM   11  C   UNL     1      42.404 -15.834   2.918  1.00  0.00     0.124 A 
ENDROOT
BRANCH   9  12
HETATM   12  S   UNL     1      42.220 -12.991   5.805  1.00  0.00    -0.082 SA
BRANCH  12  13
HETATM   13  C   UNL     1      43.653 -11.930   5.422  1.00  0.00     0.185 C 
BRANCH  13  14
HETATM   14  C   UNL     1      44.535 -11.753   6.650  1.00  0.00     0.227 C 
HETATM   15  N   UNL     1      45.666 -10.997   6.425  1.00  0.00    -0.360 N 
HETATM   16  H   UNL     1      45.712 -10.441   5.578  1.00  0.00     0.162 HD
HETATM   17  O   UNL     1      44.256 -12.255   7.739  1.00  0.00    -0.273 OA
BRANCH  15  18
HETATM   18  C   UNL     1      46.569 -10.618   7.501  1.00  0.00     0.127 C 
BRANCH  18  19
HETATM   19  C   UNL     1      46.348  -9.167   7.934  1.00  0.00     0.058 C 
BRANCH  19  20
HETATM   20  C   UNL     1      45.287  -9.044   8.998  1.00  0.00    -0.057 A 
HETATM   21  C   UNL     1      45.312  -9.872  10.130  1.00  0.00     0.009 A 
HETATM   22  C   UNL     1      44.316  -9.769  11.104  1.00  0.00     0.025 A 
HETATM   23  C   UNL     1      43.294  -8.830  10.949  1.00  0.00     0.074 A 
HETATM   24  C   UNL     1      43.249  -8.007   9.821  1.00  0.00     0.025 A 
HETATM   25  C   UNL     1      44.247  -8.114   8.851  1.00  0.00     0.009 A 
BRANCH  23  26
HETATM   26  S   UNL     1      41.999  -8.734  12.152  1.00  0.00     0.239 S 
HETATM   27  O   UNL     1      42.584  -8.730  13.472  1.00  0.00    -0.206 OA
HETATM   28  O   UNL     1      41.036  -7.745  11.726  1.00  0.00    -0.206 OA
BRANCH  26  29
HETATM   29  N   UNL     1      41.248 -10.224  11.976  1.00  0.00    -0.225 NA
HETATM   30  H   UNL     1      40.709 -10.241  11.110  1.00  0.00     0.136 HD
HETATM   31  H   UNL     1      41.941 -10.972  12.036  1.00  0.00     0.136 HD
ENDBRANCH  26  29
ENDBRANCH  23  26
ENDBRANCH  19  20
ENDBRANCH  18  19
ENDBRANCH  15  18
ENDBRANCH  13  14
ENDBRANCH  12  13
ENDBRANCH   9  12
BRANCH  10  32
HETATM   32  C   UNL     1      41.335 -13.685   2.991  1.00  0.00     0.043 A 
HETATM   33  C   UNL     1      41.912 -12.721   2.163  1.00  0.00     0.031 A 
HETATM   34  C   UNL     1      41.083 -11.781   1.551  1.00  0.00     0.021 A 
HETATM   35  C   UNL     1      39.702 -11.828   1.763  1.00  0.00     0.011 A 
HETATM   36 BR   UNL     1      38.587 -10.551   0.929  1.00  0.00    -0.051 Br
HETATM   37  C   UNL     1      39.135 -12.812   2.578  1.00  0.00     0.021 A 
HETATM   38  C   UNL     1      39.954 -13.755   3.199  1.00  0.00     0.031 A 
ENDBRANCH  10  32
BRANCH  11  39
HETATM   39  N   UNL     1      41.915 -16.069   1.635  1.00  0.00    -0.384 N 
HETATM   40  H   UNL     1      41.463 -16.948   1.411  1.00  0.00     0.157 HD
HETATM   41  H   UNL     1      41.537 -15.277   1.124  1.00  0.00     0.157 HD
ENDBRANCH  11  39
TORSDOF 10
ENDMDL
MODEL 2
REMARK VINA RESULT:      -8.7      2.738      4.716
REMARK  10 active torsions:
REMARK  status: ('A' for Active; 'I' for Inactive)
REMARK    1  A    between atoms: C_9  and  S_10 
REMARK    2  A    between atoms: S_10  and  C_11 
REMARK    3  A    between atoms: C_11  and  C_12 
REMARK       I    between atoms: C_12  and  N_13 
REMARK    4  A    between atoms: N_13  and  C_14 
REMARK    5  A    between atoms: C_14  and  C_15 
REMARK    6  A    between atoms: C_15  and  C_16 
REMARK    7  A    between atoms: C_19  and  S_20 
REMARK    8  A    between atoms: S_20  and  N_21 
REMARK    9  A    between atoms: N_27  and  C_28 
REMARK   10  A    between atoms: C_35  and  N_36 
ROOT
HETATM    1  C   UNL     1      40.327 -10.694  -1.776  1.00  0.00     0.073 C 
HETATM    2  C   UNL     1      40.749 -10.440  -0.373  1.00  0.00     0.068 A 
HETATM    3  N   UNL     1      40.780  -9.181   0.079  1.00  0.00    -0.177 NA
HETATM    4  N   UNL     1      41.228  -9.291   1.337  1.00  0.00    -0.260 N 
HETATM    5  H   UNL     1      41.347  -8.450   1.893  1.00  0.00     0.191 HD
HETATM    6  C   UNL     1      41.492 -10.581   1.700  1.00  0.00     0.162 A 
HETATM    7  C   UNL     1      41.169 -11.376   0.621  1.00  0.00     0.081 A 
HETATM    8  N   UNL     1      41.985 -10.983   2.871  1.00  0.00    -0.204 NA
HETATM    9  C   UNL     1      42.159 -12.323   2.914  1.00  0.00     0.177 A 
HETATM   10  N   UNL     1      41.856 -13.185   1.903  1.00  0.00    -0.276 N 
HETATM   11  C   UNL     1      41.322 -12.769   0.720  1.00  0.00     0.124 A 
ENDROOT
BRANCH   9  12
HETATM   12  S   UNL     1      43.016 -12.866   4.404  1.00  0.00    -0.082 SA
BRANCH  12  13
HETATM   13  C   UNL     1      44.173 -11.472   4.608  1.00  0.00     0.185 C 
BRANCH  13  14
HETATM   14  C   UNL     1      44.583 -11.322   6.066  1.00  0.00     0.227 C 
HETATM   15  N   UNL     1      45.909 -10.991   6.247  1.00  0.00    -0.360 N 
HETATM   16  H   UNL     1      46.432 -10.651   5.447  1.00  0.00     0.162 HD
HETATM   17  O   UNL     1      43.791 -11.495   6.994  1.00  0.00    -0.273 OA
BRANCH  15  18
HETATM   18  C   UNL     1      46.459 -10.689   7.560  1.00  0.00     0.127 C 
BRANCH  18  19
HETATM   19  C   UNL     1      46.218  -9.227   7.946  1.00  0.00     0.058 C 
BRANCH  19  20
HETATM   20  C   UNL     1      45.207  -9.088   9.055  1.00  0.00    -0.057 A 
HETATM   21  C   UNL     1      45.213  -9.976  10.141  1.00  0.00     0.009 A 
HETATM   22  C   UNL     1      44.263  -9.856  11.158  1.00  0.00     0.025 A 
HETATM   23  C   UNL     1      43.305  -8.841  11.091  1.00  0.00     0.074 A 
HETATM   24  C   UNL     1      43.278  -7.958  10.010  1.00  0.00     0.025 A 
HETATM   25  C   UNL     1      44.231  -8.082   8.997  1.00  0.00     0.009 A 
BRANCH  23  26
HETATM   26  S   UNL     1      42.065  -8.722  12.348  1.00  0.00     0.239 S 
HETATM   27  O   UNL     1      42.705  -8.486  13.620  1.00  0.00    -0.206 OA
HETATM   28  O   UNL     1      40.982  -7.899  11.860  1.00  0.00    -0.206 OA
BRANCH  26  29
HETATM   29  N   UNL     1      41.472 -10.290  12.404  1.00  0.00    -0.225 NA
HETATM   30  H   UNL     1      41.951 -10.816  13.136  1.00  0.00     0.136 HD
HETATM   31  H   UNL     1      40.457 -10.274  12.515  1.00  0.00     0.136 HD
ENDBRANCH  26  29
ENDBRANCH  23  26
ENDBRANCH  19  20
ENDBRANCH  18  19
ENDBRANCH  15  18
ENDBRANCH  13  14
ENDBRANCH  12  13
ENDBRANCH   9  12
BRANCH  10  32
HETATM   32  C   UNL     1      42.147 -14.581   2.060  1.00  0.00     0.043 A 
HETATM   33  C   UNL     1      41.173 -15.424   2.598  1.00  0.00     0.031 A 
HETATM   34  C   UNL     1      41.458 -16.785   2.718  1.00  0.00     0.021 A 
HETATM   35  C   UNL     1      42.693 -17.278   2.289  1.00  0.00     0.011 A 
HETATM   36 BR   UNL     1      43.068 -19.122   2.454  1.00  0.00    -0.051 Br
HETATM   37  C   UNL     1      43.651 -16.425   1.733  1.00  0.00     0.021 A 
HETATM   38  C   UNL     1      43.381 -15.063   1.612  1.00  0.00     0.031 A 
ENDBRANCH  10  32
BRANCH  11  39
HETATM   39  N   UNL     1      40.993 -13.641  -0.314  1.00  0.00    -0.384 N 
HETATM   40  H   UNL     1      41.621 -14.394  -0.571  1.00  0.00     0.157 HD
HETATM   41  H   UNL     1      40.012 -13.872  -0.440  1.00  0.00     0.157 HD
ENDBRANCH  11  39
TORSDOF 10
ENDMDL
MODEL 3
REMARK VINA RESULT:      -8.7      2.527      4.540
REMARK  10 active torsions:
REMARK  status: ('A' for Active; 'I' for Inactive)
REMARK    1  A    between atoms: C_9  and  S_10 
REMARK    2  A    between atoms: S_10  and  C_11 
REMARK    3  A    between atoms: C_11  and  C_12 
REMARK       I    between atoms: C_12  and  N_13 
REMARK    4  A    between atoms: N_13  and  C_14 
REMARK    5  A    between atoms: C_14  and  C_15 
REMARK    6  A    between atoms: C_15  and  C_16 
REMARK    7  A    between atoms: C_19  and  S_20 
REMARK    8  A    between atoms: S_20  and  N_21 
REMARK    9  A    between atoms: N_27  and  C_28 
REMARK   10  A    between atoms: C_35  and  N_36 
ROOT
HETATM    1  C   UNL     1      37.555 -11.350   1.436  1.00  0.00     0.073 C 
HETATM    2  C   UNL     1      38.486 -11.167   2.580  1.00  0.00     0.068 A 
HETATM    3  N   UNL     1      38.461 -10.014   3.260  1.00  0.00    -0.177 NA
HETATM    4  N   UNL     1      39.424 -10.153   4.182  1.00  0.00    -0.260 N 
HETATM    5  H   UNL     1      39.604  -9.388   4.824  1.00  0.00     0.191 HD
HETATM    6  C   UNL     1      40.068 -11.354   4.107  1.00  0.00     0.162 A 
HETATM    7  C   UNL     1      39.472 -12.067   3.088  1.00  0.00     0.081 A 
HETATM    8  N   UNL     1      41.091 -11.747   4.867  1.00  0.00    -0.204 NA
HETATM    9  C   UNL     1      41.526 -12.982   4.530  1.00  0.00     0.177 A 
HETATM   10  N   UNL     1      40.990 -13.761   3.548  1.00  0.00    -0.276 N 
HETATM   11  C   UNL     1      39.924 -13.364   2.797  1.00  0.00     0.124 A 
ENDROOT
BRANCH   9  12
HETATM   12  S   UNL     1      43.034 -13.449   5.399  1.00  0.00    -0.082 SA
BRANCH  12  13
HETATM   13  C   UNL     1      43.916 -11.854   5.347  1.00  0.00     0.185 C 
BRANCH  13  14
HETATM   14  C   UNL     1      44.716 -11.639   6.624  1.00  0.00     0.227 C 
HETATM   15  N   UNL     1      45.859 -10.889   6.451  1.00  0.00    -0.360 N 
HETATM   16  H   UNL     1      45.960 -10.357   5.593  1.00  0.00     0.162 HD
HETATM   17  O   UNL     1      44.367 -12.110   7.707  1.00  0.00    -0.273 OA
BRANCH  15  18
HETATM   18  C   UNL     1      46.691 -10.477   7.573  1.00  0.00     0.127 C 
BRANCH  18  19
HETATM   19  C   UNL     1      46.320  -9.075   8.062  1.00  0.00     0.058 C 
BRANCH  19  20
HETATM   20  C   UNL     1      45.178  -9.097   9.046  1.00  0.00    -0.057 A 
HETATM   21  C   UNL     1      44.003  -8.374   8.791  1.00  0.00     0.009 A 
HETATM   22  C   UNL     1      42.955  -8.380   9.714  1.00  0.00     0.025 A 
HETATM   23  C   UNL     1      43.078  -9.118  10.893  1.00  0.00     0.074 A 
HETATM   24  C   UNL     1      44.247  -9.832  11.167  1.00  0.00     0.025 A 
HETATM   25  C   UNL     1      45.291  -9.823  10.241  1.00  0.00     0.009 A 
BRANCH  23  26
HETATM   26  S   UNL     1      41.776  -9.083  12.091  1.00  0.00     0.239 S 
HETATM   27  O   UNL     1      42.238  -9.710  13.307  1.00  0.00    -0.206 OA
HETATM   28  O   UNL     1      41.161  -7.776  12.077  1.00  0.00    -0.206 OA
BRANCH  26  29
HETATM   29  N   UNL     1      40.655 -10.135  11.418  1.00  0.00    -0.225 NA
HETATM   30  H   UNL     1      40.208  -9.697  10.612  1.00  0.00     0.136 HD
HETATM   31  H   UNL     1      41.102 -11.026  11.199  1.00  0.00     0.136 HD
ENDBRANCH  26  29
ENDBRANCH  23  26
ENDBRANCH  19  20
ENDBRANCH  18  19
ENDBRANCH  15  18
ENDBRANCH  13  14
ENDBRANCH  12  13
ENDBRANCH   9  12
BRANCH  10  32
HETATM   32  C   UNL     1      41.590 -15.031   3.255  1.00  0.00     0.043 A 
HETATM   33  C   UNL     1      42.516 -15.124   2.214  1.00  0.00     0.031 A 
HETATM   34  C   UNL     1      43.115 -16.358   1.959  1.00  0.00     0.021 A 
HETATM   35  C   UNL     1      42.793 -17.465   2.749  1.00  0.00     0.011 A 
HETATM   36 BR   UNL     1      43.611 -19.131   2.396  1.00  0.00    -0.051 Br
HETATM   37  C   UNL     1      41.879 -17.353   3.801  1.00  0.00     0.021 A 
HETATM   38  C   UNL     1      41.270 -16.126   4.064  1.00  0.00     0.031 A 
ENDBRANCH  10  32
BRANCH  11  39
HETATM   39  N   UNL     1      39.357 -14.158   1.803  1.00  0.00    -0.384 N 
HETATM   40  H   UNL     1      38.371 -14.078   1.583  1.00  0.00     0.157 HD
HETATM   41  H   UNL     1      39.935 -14.390   1.001  1.00  0.00     0.157 HD
ENDBRANCH  11  39
TORSDOF 10
ENDMDL
MODEL 4
REMARK VINA RESULT:      -8.6      1.801      2.381
REMARK  10 active torsions:
REMARK  status: ('A' for Active; 'I' for Inactive)
REMARK    1  A    between atoms: C_9  and  S_10 
REMARK    2  A    between atoms: S_10  and  C_11 
REMARK    3  A    between atoms: C_11  and  C_12 
REMARK       I    between atoms: C_12  and  N_13 
REMARK    4  A    between atoms: N_13  and  C_14 
REMARK    5  A    between atoms: C_14  and  C_15 
REMARK    6  A    between atoms: C_15  and  C_16 
REMARK    7  A    between atoms: C_19  and  S_20 
REMARK    8  A    between atoms: S_20  and  N_21 
REMARK    9  A    between atoms: N_27  and  C_28 
REMARK   10  A    between atoms: C_35  and  N_36 
ROOT
HETATM    1  C   UNL     1      43.929 -19.897   2.167  1.00  0.00     0.073 C 
HETATM    2  C   UNL     1      43.844 -19.247   3.501  1.00  0.00     0.068 A 
HETATM    3  N   UNL     1      44.106 -19.972   4.595  1.00  0.00    -0.177 NA
HETATM    4  N   UNL     1      43.909 -19.121   5.612  1.00  0.00    -0.260 N 
HETATM    5  H   UNL     1      44.041 -19.452   6.563  1.00  0.00     0.191 HD
HETATM    6  C   UNL     1      43.521 -17.878   5.202  1.00  0.00     0.162 A 
HETATM    7  C   UNL     1      43.488 -17.902   3.823  1.00  0.00     0.081 A 
HETATM    8  N   UNL     1      43.215 -16.850   5.992  1.00  0.00    -0.204 NA
HETATM    9  C   UNL     1      42.841 -15.760   5.284  1.00  0.00     0.177 A 
HETATM   10  N   UNL     1      42.793 -15.690   3.923  1.00  0.00    -0.276 N 
HETATM   11  C   UNL     1      43.137 -16.737   3.121  1.00  0.00     0.124 A 
ENDROOT
BRANCH   9  12
HETATM   12  S   UNL     1      42.226 -14.427   6.329  1.00  0.00    -0.082 SA
BRANCH  12  13
HETATM   13  C   UNL     1      43.807 -13.832   7.015  1.00  0.00     0.185 C 
BRANCH  13  14
HETATM   14  C   UNL     1      44.002 -12.353   6.712  1.00  0.00     0.227 C 
HETATM   15  N   UNL     1      43.008 -11.541   7.212  1.00  0.00    -0.360 N 
HETATM   16  H   UNL     1      42.380 -11.924   7.912  1.00  0.00     0.162 HD
HETATM   17  O   UNL     1      44.963 -11.934   6.066  1.00  0.00    -0.273 OA
BRANCH  15  18
HETATM   18  C   UNL     1      43.078 -10.089   7.127  1.00  0.00     0.127 C 
BRANCH  18  19
HETATM   19  C   UNL     1      43.721  -9.485   8.378  1.00  0.00     0.058 C 
BRANCH  19  20
HETATM   20  C   UNL     1      42.826  -9.588   9.587  1.00  0.00    -0.057 A 
HETATM   21  C   UNL     1      41.460  -9.283   9.490  1.00  0.00     0.009 A 
HETATM   22  C   UNL     1      40.637  -9.359  10.616  1.00  0.00     0.025 A 
HETATM   23  C   UNL     1      41.180  -9.749  11.842  1.00  0.00     0.074 A 
HETATM   24  C   UNL     1      42.541 -10.043  11.957  1.00  0.00     0.025 A 
HETATM   25  C   UNL     1      43.358  -9.965  10.829  1.00  0.00     0.009 A 
BRANCH  23  26
HETATM   26  S   UNL     1      40.153  -9.793  13.283  1.00  0.00     0.239 S 
HETATM   27  O   UNL     1      39.657 -11.137  13.466  1.00  0.00    -0.206 OA
HETATM   28  O   UNL     1      40.800  -9.054  14.342  1.00  0.00    -0.206 OA
BRANCH  26  29
HETATM   29  N   UNL     1      38.838  -8.868  12.803  1.00  0.00    -0.225 NA
HETATM   30  H   UNL     1      39.130  -7.902  12.652  1.00  0.00     0.136 HD
HETATM   31  H   UNL     1      38.396  -9.290  11.985  1.00  0.00     0.136 HD
ENDBRANCH  26  29
ENDBRANCH  23  26
ENDBRANCH  19  20
ENDBRANCH  18  19
ENDBRANCH  15  18
ENDBRANCH  13  14
ENDBRANCH  12  13
ENDBRANCH   9  12
BRANCH  10  32
HETATM   32  C   UNL     1      42.320 -14.487   3.299  1.00  0.00     0.043 A 
HETATM   33  C   UNL     1      40.969 -14.380   2.962  1.00  0.00     0.031 A 
HETATM   34  C   UNL     1      40.516 -13.194   2.385  1.00  0.00     0.021 A 
HETATM   35  C   UNL     1      41.407 -12.139   2.169  1.00  0.00     0.011 A 
HETATM   36 BR   UNL     1      40.783 -10.536   1.388  1.00  0.00    -0.051 Br
HETATM   37  C   UNL     1      42.753 -12.253   2.531  1.00  0.00     0.021 A 
HETATM   38  C   UNL     1      43.219 -13.435   3.105  1.00  0.00     0.031 A 
ENDBRANCH  10  32
BRANCH  11  39
HETATM   39  N   UNL     1      43.108 -16.672   1.731  1.00  0.00    -0.384 N 
HETATM   40  H   UNL     1      43.954 -16.821   1.192  1.00  0.00     0.157 HD
HETATM   41  H   UNL     1      42.267 -16.994   1.263  1.00  0.00     0.157 HD
ENDBRANCH  11  39
TORSDOF 10
ENDMDL
MODEL 5
REMARK VINA RESULT:      -8.3      3.027      4.937
REMARK  10 active torsions:
REMARK  status: ('A' for Active; 'I' for Inactive)
REMARK    1  A    between atoms: C_9  and  S_10 
REMARK    2  A    between atoms: S_10  and  C_11 
REMARK    3  A    between atoms: C_11  and  C_12 
REMARK       I    between atoms: C_12  and  N_13 
REMARK    4  A    between atoms: N_13  and  C_14 
REMARK    5  A    between atoms: C_14  and  C_15 
REMARK    6  A    between atoms: C_15  and  C_16 
REMARK    7  A    between atoms: C_19  and  S_20 
REMARK    8  A    between atoms: S_20  and  N_21 
REMARK    9  A    between atoms: N_27  and  C_28 
REMARK   10  A    between atoms: C_35  and  N_36 
ROOT
HETATM    1  C   UNL     1      37.981 -12.657  -1.474  1.00  0.00     0.073 C 
HETATM    2  C   UNL     1      38.850 -11.861  -0.569  1.00  0.00     0.068 A 
HETATM    3  N   UNL     1      38.793 -10.524  -0.622  1.00  0.00    -0.177 NA
HETATM    4  N   UNL     1      39.705 -10.118   0.273  1.00  0.00    -0.260 N 
HETATM    5  H   UNL     1      39.853  -9.123   0.407  1.00  0.00     0.191 HD
HETATM    6  C   UNL     1      40.349 -11.153   0.889  1.00  0.00     0.162 A 
HETATM    7  C   UNL     1      39.805 -12.318   0.390  1.00  0.00     0.081 A 
HETATM    8  N   UNL     1      41.328 -11.047   1.786  1.00  0.00    -0.204 NA
HETATM    9  C   UNL     1      41.777 -12.256   2.191  1.00  0.00     0.177 A 
HETATM   10  N   UNL     1      41.291 -13.456   1.763  1.00  0.00    -0.276 N 
HETATM   11  C   UNL     1      40.268 -13.555   0.867  1.00  0.00     0.124 A 
ENDROOT
BRANCH   9  12
HETATM   12  S   UNL     1      43.235 -12.141   3.244  1.00  0.00    -0.082 SA
BRANCH  12  13
HETATM   13  C   UNL     1      42.718 -10.763   4.320  1.00  0.00     0.185 C 
BRANCH  13  14
HETATM   14  C   UNL     1      42.696 -11.197   5.779  1.00  0.00     0.227 C 
HETATM   15  N   UNL     1      43.924 -11.135   6.402  1.00  0.00    -0.360 N 
HETATM   16  H   UNL     1      44.665 -10.608   5.953  1.00  0.00     0.162 HD
HETATM   17  O   UNL     1      41.667 -11.579   6.337  1.00  0.00    -0.273 OA
BRANCH  15  18
HETATM   18  C   UNL     1      44.083 -11.398   7.825  1.00  0.00     0.127 C 
BRANCH  18  19
HETATM   19  C   UNL     1      44.319 -10.105   8.610  1.00  0.00     0.058 C 
BRANCH  19  20
HETATM   20  C   UNL     1      43.337  -9.937   9.742  1.00  0.00    -0.057 A 
HETATM   21  C   UNL     1      43.667 -10.356  11.040  1.00  0.00     0.009 A 
HETATM   22  C   UNL     1      42.748 -10.217  12.083  1.00  0.00     0.025 A 
HETATM   23  C   UNL     1      41.496  -9.652  11.828  1.00  0.00     0.074 A 
HETATM   24  C   UNL     1      41.149  -9.243  10.539  1.00  0.00     0.025 A 
HETATM   25  C   UNL     1      42.071  -9.383   9.501  1.00  0.00     0.009 A 
BRANCH  23  26
HETATM   26  S   UNL     1      40.308  -9.526  13.134  1.00  0.00     0.239 S 
HETATM   27  O   UNL     1      40.994  -9.211  14.365  1.00  0.00    -0.206 OA
HETATM   28  O   UNL     1      39.173  -8.768  12.663  1.00  0.00    -0.206 OA
BRANCH  26  29
HETATM   29  N   UNL     1      39.782 -11.112  13.282  1.00  0.00    -0.225 NA
HETATM   30  H   UNL     1      39.553 -11.312  14.256  1.00  0.00     0.136 HD
HETATM   31  H   UNL     1      39.006 -11.282  12.640  1.00  0.00     0.136 HD
ENDBRANCH  26  29
ENDBRANCH  23  26
ENDBRANCH  19  20
ENDBRANCH  18  19
ENDBRANCH  15  18
ENDBRANCH  13  14
ENDBRANCH  12  13
ENDBRANCH   9  12
BRANCH  10  32
HETATM   32  C   UNL     1      41.901 -14.667   2.230  1.00  0.00     0.043 A 
HETATM   33  C   UNL     1      42.954 -15.225   1.503  1.00  0.00     0.031 A 
HETATM   34  C   UNL     1      43.559 -16.386   1.984  1.00  0.00     0.021 A 
HETATM   35  C   UNL     1      43.117 -16.957   3.181  1.00  0.00     0.011 A 
HETATM   36 BR   UNL     1      43.944 -18.528   3.826  1.00  0.00    -0.051 Br
HETATM   37  C   UNL     1      42.076 -16.376   3.911  1.00  0.00     0.021 A 
HETATM   38  C   UNL     1      41.459 -15.217   3.438  1.00  0.00     0.031 A 
ENDBRANCH  10  32
BRANCH  11  39
HETATM   39  N   UNL     1      39.752 -14.774   0.435  1.00  0.00    -0.384 N 
HETATM   40  H   UNL     1      38.872 -14.810  -0.066  1.00  0.00     0.157 HD
HETATM   41  H   UNL     1      40.413 -15.488   0.146  1.00  0.00     0.157 HD
ENDBRANCH  11  39
TORSDOF 10
ENDMDL
MODEL 6
REMARK VINA RESULT:      -8.0      4.034      7.821
REMARK  10 active torsions:
REMARK  status: ('A' for Active; 'I' for Inactive)
REMARK    1  A    between atoms: C_9  and  S_10 
REMARK    2  A    between atoms: S_10  and  C_11 
REMARK    3  A    between atoms: C_11  and  C_12 
REMARK       I    between atoms: C_12  and  N_13 
REMARK    4  A    between atoms: N_13  and  C_14 
REMARK    5  A    between atoms: C_14  and  C_15 
REMARK    6  A    between atoms: C_15  and  C_16 
REMARK    7  A    between atoms: C_19  and  S_20 
REMARK    8  A    between atoms: S_20  and  N_21 
REMARK    9  A    between atoms: N_27  and  C_28 
REMARK   10  A    between atoms: C_35  and  N_36 
ROOT
HETATM    1  C   UNL     1      45.068 -10.833   8.108  1.00  0.00     0.073 C 
HETATM    2  C   UNL     1      44.136 -11.659   7.296  1.00  0.00     0.068 A 
HETATM    3  N   UNL     1      44.417 -12.953   7.098  1.00  0.00    -0.177 NA
HETATM    4  N   UNL     1      43.422 -13.392   6.315  1.00  0.00    -0.260 N 
HETATM    5  H   UNL     1      43.423 -14.362   6.017  1.00  0.00     0.191 HD
HETATM    6  C   UNL     1      42.519 -12.418   5.999  1.00  0.00     0.162 A 
HETATM    7  C   UNL     1      42.929 -11.267   6.641  1.00  0.00     0.081 A 
HETATM    8  N   UNL     1      41.458 -12.557   5.206  1.00  0.00    -0.204 NA
HETATM    9  C   UNL     1      40.773 -11.399   5.069  1.00  0.00     0.177 A 
HETATM   10  N   UNL     1      41.096 -10.221   5.675  1.00  0.00    -0.276 N 
HETATM   11  C   UNL     1      42.166 -10.095   6.509  1.00  0.00     0.124 A 
ENDROOT
BRANCH   9  12
HETATM   12  S   UNL     1      39.458 -11.509   3.841  1.00  0.00    -0.082 SA
BRANCH  12  13
HETATM   13  C   UNL     1      40.459 -11.402   2.321  1.00  0.00     0.185 C 
BRANCH  13  14
HETATM   14  C   UNL     1      40.155 -12.570   1.393  1.00  0.00     0.227 C 
HETATM   15  N   UNL     1      41.059 -13.607   1.479  1.00  0.00    -0.360 N 
HETATM   16  H   UNL     1      41.687 -13.631   2.275  1.00  0.00     0.162 HD
HETATM   17  O   UNL     1      39.189 -12.570   0.630  1.00  0.00    -0.273 OA
BRANCH  15  18
HETATM   18  C   UNL     1      40.872 -14.858   0.759  1.00  0.00     0.127 C 
BRANCH  18  19
HETATM   19  C   UNL     1      40.288 -15.944   1.665  1.00  0.00     0.058 C 
BRANCH  19  20
HETATM   20  C   UNL     1      41.120 -16.164   2.903  1.00  0.00    -0.057 A 
HETATM   21  C   UNL     1      42.459 -16.569   2.799  1.00  0.00     0.009 A 
HETATM   22  C   UNL     1      43.222 -16.791   3.948  1.00  0.00     0.025 A 
HETATM   23  C   UNL     1      42.646 -16.602   5.206  1.00  0.00     0.074 A 
HETATM   24  C   UNL     1      41.309 -16.212   5.325  1.00  0.00     0.025 A 
HETATM   25  C   UNL     1      40.552 -15.991   4.174  1.00  0.00     0.009 A 
BRANCH  23  26
HETATM   26  S   UNL     1      43.591 -16.936   6.664  1.00  0.00     0.239 S 
HETATM   27  O   UNL     1      43.379 -18.310   7.057  1.00  0.00    -0.206 OA
HETATM   28  O   UNL     1      44.910 -16.368   6.508  1.00  0.00    -0.206 OA
BRANCH  26  29
HETATM   29  N   UNL     1      42.809 -15.994   7.812  1.00  0.00    -0.225 NA
HETATM   30  H   UNL     1      41.974 -16.477   8.146  1.00  0.00     0.136 HD
HETATM   31  H   UNL     1      43.459 -15.745   8.558  1.00  0.00     0.136 HD
ENDBRANCH  26  29
ENDBRANCH  23  26
ENDBRANCH  19  20
ENDBRANCH  18  19
ENDBRANCH  15  18
ENDBRANCH  13  14
ENDBRANCH  12  13
ENDBRANCH   9  12
BRANCH  10  32
HETATM   32  C   UNL     1      40.314  -9.051   5.394  1.00  0.00     0.043 A 
HETATM   33  C   UNL     1      39.202  -8.768   6.189  1.00  0.00     0.031 A 
HETATM   34  C   UNL     1      38.468  -7.611   5.925  1.00  0.00     0.021 A 
HETATM   35  C   UNL     1      38.863  -6.757   4.891  1.00  0.00     0.011 A 
HETATM   36 BR   UNL     1      37.864  -5.191   4.543  1.00  0.00    -0.051 Br
HETATM   37  C   UNL     1      39.991  -7.042   4.117  1.00  0.00     0.021 A 
HETATM   38  C   UNL     1      40.731  -8.197   4.368  1.00  0.00     0.031 A 
ENDBRANCH  10  32
BRANCH  11  39
HETATM   39  N   UNL     1      42.496  -8.902   7.146  1.00  0.00    -0.384 N 
HETATM   40  H   UNL     1      41.885  -8.512   7.855  1.00  0.00     0.157 HD
HETATM   41  H   UNL     1      43.481  -8.715   7.312  1.00  0.00     0.157 HD
ENDBRANCH  11  39
TORSDOF 10
ENDMDL
MODEL 7
REMARK VINA RESULT:      -7.7      2.722      3.264
REMARK  10 active torsions:
REMARK  status: ('A' for Active; 'I' for Inactive)
REMARK    1  A    between atoms: C_9  and  S_10 
REMARK    2  A    between atoms: S_10  and  C_11 
REMARK    3  A    between atoms: C_11  and  C_12 
REMARK       I    between atoms: C_12  and  N_13 
REMARK    4  A    between atoms: N_13  and  C_14 
REMARK    5  A    between atoms: C_14  and  C_15 
REMARK    6  A    between atoms: C_15  and  C_16 
REMARK    7  A    between atoms: C_19  and  S_20 
REMARK    8  A    between atoms: S_20  and  N_21 
REMARK    9  A    between atoms: N_27  and  C_28 
REMARK   10  A    between atoms: C_35  and  N_36 
ROOT
HETATM    1  C   UNL     1      43.949 -19.059   5.260  1.00  0.00     0.073 C 
HETATM    2  C   UNL     1      43.356 -17.814   5.816  1.00  0.00     0.068 A 
HETATM    3  N   UNL     1      43.389 -17.613   7.139  1.00  0.00    -0.177 NA
HETATM    4  N   UNL     1      42.754 -16.445   7.312  1.00  0.00    -0.260 N 
HETATM    5  H   UNL     1      42.644 -16.080   8.253  1.00  0.00     0.191 HD
HETATM    6  C   UNL     1      42.310 -15.899   6.143  1.00  0.00     0.162 A 
HETATM    7  C   UNL     1      42.703 -16.747   5.128  1.00  0.00     0.081 A 
HETATM    8  N   UNL     1      41.613 -14.770   6.017  1.00  0.00    -0.204 NA
HETATM    9  C   UNL     1      41.298 -14.510   4.728  1.00  0.00     0.177 A 
HETATM   10  N   UNL     1      41.655 -15.283   3.663  1.00  0.00    -0.276 N 
HETATM   11  C   UNL     1      42.394 -16.420   3.797  1.00  0.00     0.124 A 
ENDROOT
BRANCH   9  12
HETATM   12  S   UNL     1      40.183 -13.104   4.554  1.00  0.00    -0.082 SA
BRANCH  12  13
HETATM   13  C   UNL     1      39.884 -12.740   6.315  1.00  0.00     0.185 C 
BRANCH  13  14
HETATM   14  C   UNL     1      39.426 -11.300   6.496  1.00  0.00     0.227 C 
HETATM   15  N   UNL     1      40.354 -10.360   6.101  1.00  0.00    -0.360 N 
HETATM   16  H   UNL     1      41.132 -10.666   5.526  1.00  0.00     0.162 HD
HETATM   17  O   UNL     1      38.324 -11.014   6.967  1.00  0.00    -0.273 OA
BRANCH  15  18
HETATM   18  C   UNL     1      40.055  -8.936   6.087  1.00  0.00     0.127 C 
BRANCH  18  19
HETATM   19  C   UNL     1      41.179  -8.121   6.731  1.00  0.00     0.058 C 
BRANCH  19  20
HETATM   20  C   UNL     1      41.443  -8.538   8.155  1.00  0.00    -0.057 A 
HETATM   21  C   UNL     1      40.450  -8.396   9.136  1.00  0.00     0.009 A 
HETATM   22  C   UNL     1      40.704  -8.766  10.459  1.00  0.00     0.025 A 
HETATM   23  C   UNL     1      41.955  -9.286  10.802  1.00  0.00     0.074 A 
HETATM   24  C   UNL     1      42.957  -9.421   9.839  1.00  0.00     0.025 A 
HETATM   25  C   UNL     1      42.697  -9.051   8.518  1.00  0.00     0.009 A 
BRANCH  23  26
HETATM   26  S   UNL     1      42.300  -9.702  12.486  1.00  0.00     0.239 S 
HETATM   27  O   UNL     1      43.197  -8.715  13.040  1.00  0.00    -0.206 OA
HETATM   28  O   UNL     1      41.068 -10.083  13.137  1.00  0.00    -0.206 OA
BRANCH  26  29
HETATM   29  N   UNL     1      43.196 -11.111  12.322  1.00  0.00    -0.225 NA
HETATM   30  H   UNL     1      43.977 -10.953  11.683  1.00  0.00     0.136 HD
HETATM   31  H   UNL     1      43.487 -11.448  13.241  1.00  0.00     0.136 HD
ENDBRANCH  26  29
ENDBRANCH  23  26
ENDBRANCH  19  20
ENDBRANCH  18  19
ENDBRANCH  15  18
ENDBRANCH  13  14
ENDBRANCH  12  13
ENDBRANCH   9  12
BRANCH  10  32
HETATM   32  C   UNL     1      41.202 -14.920   2.351  1.00  0.00     0.043 A 
HETATM   33  C   UNL     1      41.790 -13.833   1.703  1.00  0.00     0.031 A 
HETATM   34  C   UNL     1      41.362 -13.510   0.415  1.00  0.00     0.021 A 
HETATM   35  C   UNL     1      40.373 -14.280  -0.204  1.00  0.00     0.011 A 
HETATM   36 BR   UNL     1      39.801 -13.835  -1.949  1.00  0.00    -0.051 Br
HETATM   37  C   UNL     1      39.807 -15.379   0.449  1.00  0.00     0.021 A 
HETATM   38  C   UNL     1      40.224 -15.710   1.738  1.00  0.00     0.031 A 
ENDBRANCH  10  32
BRANCH  11  39
HETATM   39  N   UNL     1      42.779 -17.208   2.716  1.00  0.00    -0.384 N 
HETATM   40  H   UNL     1      43.755 -17.276   2.452  1.00  0.00     0.157 HD
HETATM   41  H   UNL     1      42.252 -18.059   2.544  1.00  0.00     0.157 HD
ENDBRANCH  11  39
TORSDOF 10
ENDMDL
MODEL 8
REMARK VINA RESULT:      -7.6      3.763      6.649
REMARK  10 active torsions:
REMARK  status: ('A' for Active; 'I' for Inactive)
REMARK    1  A    between atoms: C_9  and  S_10 
REMARK    2  A    between atoms: S_10  and  C_11 
REMARK    3  A    between atoms: C_11  and  C_12 
REMARK       I    between atoms: C_12  and  N_13 
REMARK    4  A    between atoms: N_13  and  C_14 
REMARK    5  A    between atoms: C_14  and  C_15 
REMARK    6  A    between atoms: C_15  and  C_16 
REMARK    7  A    between atoms: C_19  and  S_20 
REMARK    8  A    between atoms: S_20  and  N_21 
REMARK    9  A    between atoms: N_27  and  C_28 
REMARK   10  A    between atoms: C_35  and  N_36 
ROOT
HETATM    1  C   UNL     1      46.897  -9.400   8.183  1.00  0.00     0.073 C 
HETATM    2  C   UNL     1      45.454  -9.059   8.072  1.00  0.00     0.068 A 
HETATM    3  N   UNL     1      45.005  -7.938   8.647  1.00  0.00    -0.177 NA
HETATM    4  N   UNL     1      43.687  -7.943   8.400  1.00  0.00    -0.260 N 
HETATM    5  H   UNL     1      43.117  -7.181   8.752  1.00  0.00     0.191 HD
HETATM    6  C   UNL     1      43.280  -9.037   7.691  1.00  0.00     0.162 A 
HETATM    7  C   UNL     1      44.408  -9.788   7.429  1.00  0.00     0.081 A 
HETATM    8  N   UNL     1      42.027  -9.326   7.341  1.00  0.00    -0.204 NA
HETATM    9  C   UNL     1      41.946 -10.495   6.667  1.00  0.00     0.177 A 
HETATM   10  N   UNL     1      43.006 -11.293   6.352  1.00  0.00    -0.276 N 
HETATM   11  C   UNL     1      44.289 -10.975   6.687  1.00  0.00     0.124 A 
ENDROOT
BRANCH   9  12
HETATM   12  S   UNL     1      40.245 -11.008   6.365  1.00  0.00    -0.082 SA
BRANCH  12  13
HETATM   13  C   UNL     1      39.374  -9.756   7.364  1.00  0.00     0.185 C 
BRANCH  13  14
HETATM   14  C   UNL     1      39.146 -10.262   8.782  1.00  0.00     0.227 C 
HETATM   15  N   UNL     1      39.969  -9.683   9.724  1.00  0.00    -0.360 N 
HETATM   16  H   UNL     1      40.470  -8.839   9.470  1.00  0.00     0.162 HD
HETATM   17  O   UNL     1      38.305 -11.122   9.047  1.00  0.00    -0.273 OA
BRANCH  15  18
HETATM   18  C   UNL     1      39.822  -9.950  11.147  1.00  0.00     0.127 C 
BRANCH  18  19
HETATM   19  C   UNL     1      41.143  -9.749  11.894  1.00  0.00     0.058 C 
BRANCH  19  20
HETATM   20  C   UNL     1      40.998  -8.813  13.068  1.00  0.00    -0.057 A 
HETATM   21  C   UNL     1      40.014  -7.814  13.066  1.00  0.00     0.009 A 
HETATM   22  C   UNL     1      39.896  -6.936  14.146  1.00  0.00     0.025 A 
HETATM   23  C   UNL     1      40.761  -7.062  15.235  1.00  0.00     0.074 A 
HETATM   24  C   UNL     1      41.755  -8.043  15.245  1.00  0.00     0.025 A 
HETATM   25  C   UNL     1      41.868  -8.918  14.164  1.00  0.00     0.009 A 
BRANCH  23  26
HETATM   26  S   UNL     1      40.652  -5.916  16.580  1.00  0.00     0.239 S 
HETATM   27  O   UNL     1      40.393  -4.597  16.053  1.00  0.00    -0.206 OA
HETATM   28  O   UNL     1      39.854  -6.503  17.631  1.00  0.00    -0.206 OA
BRANCH  26  29
HETATM   29  N   UNL     1      42.231  -5.893  17.148  1.00  0.00    -0.225 NA
HETATM   30  H   UNL     1      42.764  -6.651  16.722  1.00  0.00     0.136 HD
HETATM   31  H   UNL     1      42.642  -4.972  16.993  1.00  0.00     0.136 HD
ENDBRANCH  26  29
ENDBRANCH  23  26
ENDBRANCH  19  20
ENDBRANCH  18  19
ENDBRANCH  15  18
ENDBRANCH  13  14
ENDBRANCH  12  13
ENDBRANCH   9  12
BRANCH  10  32
HETATM   32  C   UNL     1      42.771 -12.540   5.683  1.00  0.00     0.043 A 
HETATM   33  C   UNL     1      42.516 -13.683   6.442  1.00  0.00     0.031 A 
HETATM   34  C   UNL     1      42.258 -14.884   5.778  1.00  0.00     0.021 A 
HETATM   35  C   UNL     1      42.245 -14.918   4.381  1.00  0.00     0.011 A 
HETATM   36 BR   UNL     1      41.893 -16.547   3.492  1.00  0.00    -0.051 Br
HETATM   37  C   UNL     1      42.481 -13.760   3.633  1.00  0.00     0.021 A 
HETATM   38  C   UNL     1      42.744 -12.555   4.285  1.00  0.00     0.031 A 
ENDBRANCH  10  32
BRANCH  11  39
HETATM   39  N   UNL     1      45.380 -11.773   6.356  1.00  0.00    -0.384 N 
HETATM   40  H   UNL     1      45.442 -12.726   6.697  1.00  0.00     0.157 HD
HETATM   41  H   UNL     1      45.798 -11.642   5.440  1.00  0.00     0.157 HD
ENDBRANCH  11  39
TORSDOF 10
ENDMDL
MODEL 9
REMARK VINA RESULT:      -7.6      3.344      4.984
REMARK  10 active torsions:
REMARK  status: ('A' for Active; 'I' for Inactive)
REMARK    1  A    between atoms: C_9  and  S_10 
REMARK    2  A    between atoms: S_10  and  C_11 
REMARK    3  A    between atoms: C_11  and  C_12 
REMARK       I    between atoms: C_12  and  N_13 
REMARK    4  A    between atoms: N_13  and  C_14 
REMARK    5  A    between atoms: C_14  and  C_15 
REMARK    6  A    between atoms: C_15  and  C_16 
REMARK    7  A    between atoms: C_19  and  S_20 
REMARK    8  A    between atoms: S_20  and  N_21 
REMARK    9  A    between atoms: N_27  and  C_28 
REMARK   10  A    between atoms: C_35  and  N_36 
ROOT
HETATM    1  C   UNL     1      43.491 -17.837   4.926  1.00  0.00     0.073 C 
HETATM    2  C   UNL     1      42.855 -16.760   4.122  1.00  0.00     0.068 A 
HETATM    3  N   UNL     1      42.200 -17.086   3.001  1.00  0.00    -0.177 NA
HETATM    4  N   UNL     1      41.786 -15.911   2.506  1.00  0.00    -0.260 N 
HETATM    5  H   UNL     1      41.264 -15.901   1.636  1.00  0.00     0.191 HD
HETATM    6  C   UNL     1      42.165 -14.845   3.270  1.00  0.00     0.162 A 
HETATM    7  C   UNL     1      42.846 -15.352   4.357  1.00  0.00     0.081 A 
HETATM    8  N   UNL     1      41.931 -13.561   3.000  1.00  0.00    -0.204 NA
HETATM    9  C   UNL     1      42.456 -12.742   3.938  1.00  0.00     0.177 A 
HETATM   10  N   UNL     1      43.132 -13.154   5.049  1.00  0.00    -0.276 N 
HETATM   11  C   UNL     1      43.340 -14.471   5.334  1.00  0.00     0.124 A 
ENDROOT
BRANCH   9  12
HETATM   12  S   UNL     1      42.334 -11.001   3.490  1.00  0.00    -0.082 SA
BRANCH  12  13
HETATM   13  C   UNL     1      40.677 -11.004   2.729  1.00  0.00     0.185 C 
BRANCH  13  14
HETATM   14  C   UNL     1      39.652 -10.383   3.669  1.00  0.00     0.227 C 
HETATM   15  N   UNL     1      40.053 -10.337   4.986  1.00  0.00    -0.360 N 
HETATM   16  H   UNL     1      41.035 -10.485   5.196  1.00  0.00     0.162 HD
HETATM   17  O   UNL     1      38.561  -9.973   3.274  1.00  0.00    -0.273 OA
BRANCH  15  18
HETATM   18  C   UNL     1      39.262  -9.675   6.013  1.00  0.00     0.127 C 
BRANCH  18  19
HETATM   19  C   UNL     1      40.105  -8.684   6.818  1.00  0.00     0.058 C 
BRANCH  19  20
HETATM   20  C   UNL     1      40.096  -8.993   8.294  1.00  0.00    -0.057 A 
HETATM   21  C   UNL     1      41.062  -8.435   9.145  1.00  0.00     0.009 A 
HETATM   22  C   UNL     1      41.062  -8.739  10.509  1.00  0.00     0.025 A 
HETATM   23  C   UNL     1      40.090  -9.599  11.024  1.00  0.00     0.074 A 
HETATM   24  C   UNL     1      39.131 -10.173  10.186  1.00  0.00     0.025 A 
HETATM   25  C   UNL     1      39.134  -9.865   8.825  1.00  0.00     0.009 A 
BRANCH  23  26
HETATM   26  S   UNL     1      40.122 -10.032  12.740  1.00  0.00     0.239 S 
HETATM   27  O   UNL     1      40.157  -8.823  13.529  1.00  0.00    -0.206 OA
HETATM   28  O   UNL     1      39.160 -11.084  12.976  1.00  0.00    -0.206 OA
BRANCH  26  29
HETATM   29  N   UNL     1      41.635 -10.738  12.895  1.00  0.00    -0.225 NA
HETATM   30  H   UNL     1      41.633 -11.663  12.463  1.00  0.00     0.136 HD
HETATM   31  H   UNL     1      42.350 -10.116  12.514  1.00  0.00     0.136 HD
ENDBRANCH  26  29
ENDBRANCH  23  26
ENDBRANCH  19  20
ENDBRANCH  18  19
ENDBRANCH  15  18
ENDBRANCH  13  14
ENDBRANCH  12  13
ENDBRANCH   9  12
BRANCH  10  32
HETATM   32  C   UNL     1      43.690 -12.173   5.934  1.00  0.00     0.043 A 
HETATM   33  C   UNL     1      42.874 -11.589   6.905  1.00  0.00     0.031 A 
HETATM   34  C   UNL     1      43.436 -10.658   7.780  1.00  0.00     0.021 A 
HETATM   35  C   UNL     1      44.794 -10.342   7.681  1.00  0.00     0.011 A 
HETATM   36 BR   UNL     1      45.546  -9.082   8.872  1.00  0.00    -0.051 Br
HETATM   37  C   UNL     1      45.604 -10.951   6.718  1.00  0.00     0.021 A 
HETATM   38  C   UNL     1      45.053 -11.879   5.835  1.00  0.00     0.031 A 
ENDBRANCH  10  32
BRANCH  11  39
HETATM   39  N   UNL     1      44.013 -14.904   6.472  1.00  0.00    -0.384 N 
HETATM   40  H   UNL     1      43.504 -15.100   7.327  1.00  0.00     0.157 HD
HETATM   41  H   UNL     1      44.826 -15.498   6.340  1.00  0.00     0.157 HD
ENDBRANCH  11  39
TORSDOF 10
ENDMDL
MODEL 10
REMARK VINA RESULT:      -7.6      4.423      9.333
REMARK  10 active torsions:
REMARK  status: ('A' for Active; 'I' for Inactive)
REMARK    1  A    between atoms: C_9  and  S_10 
REMARK    2  A    between atoms: S_10  and  C_11 
REMARK    3  A    between atoms: C_11  and  C_12 
REMARK       I    between atoms: C_12  and  N_13 
REMARK    4  A    between atoms: N_13  and  C_14 
REMARK    5  A    between atoms: C_14  and  C_15 
REMARK    6  A    between atoms: C_15  and  C_16 
REMARK    7  A    between atoms: C_19  and  S_20 
REMARK    8  A    between atoms: S_20  and  N_21 
REMARK    9  A    between atoms: N_27  and  C_28 
REMARK   10  A    between atoms: C_35  and  N_36 
ROOT
HETATM    1  C   UNL     1      45.771  -9.778   8.765  1.00  0.00     0.073 C 
HETATM    2  C   UNL     1      44.333  -9.645   8.411  1.00  0.00     0.068 A 
HETATM    3  N   UNL     1      43.576  -8.768   9.083  1.00  0.00    -0.177 NA
HETATM    4  N   UNL     1      42.352  -8.917   8.558  1.00  0.00    -0.260 N 
HETATM    5  H   UNL     1      41.590  -8.353   8.920  1.00  0.00     0.191 HD
HETATM    6  C   UNL     1      42.301  -9.867   7.579  1.00  0.00     0.162 A 
HETATM    7  C   UNL     1      43.582 -10.356   7.426  1.00  0.00     0.081 A 
HETATM    8  N   UNL     1      41.212 -10.254   6.915  1.00  0.00    -0.204 NA
HETATM    9  C   UNL     1      41.484 -11.234   6.024  1.00  0.00     0.177 A 
HETATM   10  N   UNL     1      42.719 -11.767   5.798  1.00  0.00    -0.276 N 
HETATM   11  C   UNL     1      43.832 -11.343   6.460  1.00  0.00     0.124 A 
ENDROOT
BRANCH   9  12
HETATM   12  S   UNL     1      39.999 -11.917   5.265  1.00  0.00    -0.082 SA
BRANCH  12  13
HETATM   13  C   UNL     1      38.741 -10.884   6.088  1.00  0.00     0.185 C 
BRANCH  13  14
HETATM   14  C   UNL     1      38.269  -9.772   5.162  1.00  0.00     0.227 C 
HETATM   15  N   UNL     1      38.462 -10.035   3.823  1.00  0.00    -0.360 N 
HETATM   16  H   UNL     1      38.668 -10.989   3.545  1.00  0.00     0.162 HD
HETATM   17  O   UNL     1      37.770  -8.729   5.587  1.00  0.00    -0.273 OA
BRANCH  15  18
HETATM   18  C   UNL     1      37.970  -9.146   2.781  1.00  0.00     0.127 C 
BRANCH  18  19
HETATM   19  C   UNL     1      38.971  -9.022   1.630  1.00  0.00     0.058 C 
BRANCH  19  20
HETATM   20  C   UNL     1      39.011 -10.261   0.772  1.00  0.00    -0.057 A 
HETATM   21  C   UNL     1      40.220 -10.935   0.548  1.00  0.00     0.009 A 
HETATM   22  C   UNL     1      40.257 -12.071  -0.264  1.00  0.00     0.025 A 
HETATM   23  C   UNL     1      39.078 -12.539  -0.850  1.00  0.00     0.074 A 
HETATM   24  C   UNL     1      37.869 -11.870  -0.647  1.00  0.00     0.025 A 
HETATM   25  C   UNL     1      37.838 -10.736   0.166  1.00  0.00     0.009 A 
BRANCH  23  26
HETATM   26  S   UNL     1      39.130 -13.944  -1.924  1.00  0.00     0.239 S 
HETATM   27  O   UNL     1      39.992 -13.648  -3.044  1.00  0.00    -0.206 OA
HETATM   28  O   UNL     1      39.277 -15.139  -1.126  1.00  0.00    -0.206 OA
BRANCH  26  29
HETATM   29  N   UNL     1      37.566 -13.977  -2.531  1.00  0.00    -0.225 NA
HETATM   30  H   UNL     1      37.314 -14.932  -2.790  1.00  0.00     0.136 HD
HETATM   31  H   UNL     1      36.923 -13.557  -1.859  1.00  0.00     0.136 HD
ENDBRANCH  26  29
ENDBRANCH  23  26
ENDBRANCH  19  20
ENDBRANCH  18  19
ENDBRANCH  15  18
ENDBRANCH  13  14
ENDBRANCH  12  13
ENDBRANCH   9  12
BRANCH  10  32
HETATM   32  C   UNL     1      42.856 -12.847   4.863  1.00  0.00     0.043 A 
HETATM   33  C   UNL     1      42.726 -14.161   5.316  1.00  0.00     0.031 A 
HETATM   34  C   UNL     1      42.831 -15.201   4.392  1.00  0.00     0.021 A 
HETATM   35  C   UNL     1      43.047 -14.913   3.042  1.00  0.00     0.011 A 
HETATM   36 BR   UNL     1      43.187 -16.328   1.797  1.00  0.00    -0.051 Br
HETATM   37  C   UNL     1      43.155 -13.591   2.599  1.00  0.00     0.021 A 
HETATM   38  C   UNL     1      43.056 -12.543   3.513  1.00  0.00     0.031 A 
ENDBRANCH  10  32
BRANCH  11  39
HETATM   39  N   UNL     1      45.101 -11.868   6.225  1.00  0.00    -0.384 N 
HETATM   40  H   UNL     1      45.582 -11.677   5.354  1.00  0.00     0.157 HD
HETATM   41  H   UNL     1      45.725 -11.963   7.021  1.00  0.00     0.157 HD
ENDBRANCH  11  39
TORSDOF 10
ENDMDL
