MODEL 1
REMARK VINA RESULT:      -9.4      0.000      0.000
REMARK  8 active torsions:
REMARK  status: ('A' for Active; 'I' for Inactive)
REMARK    1  A    between atoms: C_2  and  N_3 
REMARK    2  A    between atoms: N_3  and  C_4 
REMARK    3  A    between atoms: C_4  and  N_5 
REMARK    4  A    between atoms: N_5  and  C_6 
REMARK    5  A    between atoms: N_5  and  C_21 
REMARK    6  A    between atoms: C_6  and  C_7 
REMARK    7  A    between atoms: C_21  and  C_22 
REMARK    8  A    between atoms: C_22  and  N_23 
ROOT
HETATM    1  N   UNL     1      41.216 -15.056   3.600  1.00  0.00    -0.352 N 
ENDROOT
BRANCH   1   2
HETATM    2  C   UNL     1      42.470 -15.391   3.123  1.00  0.00     0.174 C 
HETATM    3  S   UNL     1      43.250 -14.508   1.925  1.00  0.00    -0.041 SA
BRANCH   2   4
HETATM    4  N   UNL     1      43.234 -16.301   3.786  1.00  0.00    -0.333 N 
HETATM    5  H   UNL     1      44.010 -15.875   4.289  1.00  0.00     0.168 HD
BRANCH   4   6
HETATM    6  C   UNL     1      43.405 -17.687   3.584  1.00  0.00     0.034 A 
HETATM    7  C   UNL     1      43.089 -18.346   2.394  1.00  0.00     0.032 A 
HETATM    8  C   UNL     1      43.319 -19.719   2.265  1.00  0.00     0.044 A 
HETATM    9  C   UNL     1      43.882 -20.425   3.321  1.00  0.00     0.116 A 
HETATM   10  C   UNL     1      44.229 -19.782   4.501  1.00  0.00     0.044 A 
HETATM   11  F   UNL     1      44.102 -21.739   3.196  1.00  0.00    -0.206 F 
HETATM   12  C   UNL     1      44.000 -18.411   4.628  1.00  0.00     0.032 A 
ENDBRANCH   4   6
ENDBRANCH   2   4
ENDBRANCH   1   2
BRANCH   1  13
HETATM   13  C   UNL     1      40.960 -14.880   5.052  1.00  0.00     0.169 C 
BRANCH  13  14
HETATM   14  C   UNL     1      41.527 -13.588   5.570  1.00  0.00     0.029 A 
HETATM   15  C   UNL     1      40.553 -12.546   6.016  1.00  0.00     0.253 A 
HETATM   16  O   UNL     1      39.343 -12.714   5.894  1.00  0.00    -0.268 OA
HETATM   17  N   UNL     1      41.060 -11.399   6.563  1.00  0.00    -0.322 N 
HETATM   18  C   UNL     1      42.425 -11.181   6.789  1.00  0.00     0.048 A 
HETATM   19  H   UNL     1      40.386 -10.707   6.864  1.00  0.00     0.169 HD
HETATM   20  C   UNL     1      43.349 -12.175   6.401  1.00  0.00    -0.006 A 
HETATM   21  C   UNL     1      42.841 -10.007   7.419  1.00  0.00     0.070 A 
HETATM   22  C   UNL     1      44.713 -11.998   6.654  1.00  0.00     0.053 A 
HETATM   23  C   UNL     1      42.845 -13.398   5.771  1.00  0.00     0.028 A 
HETATM   24  C   UNL     1      45.099 -10.836   7.294  1.00  0.00     0.106 A 
HETATM   25  C   UNL     1      44.191  -9.871   7.663  1.00  0.00     0.107 A 
HETATM   26  O   UNL     1      46.372 -10.510   7.643  1.00  0.00    -0.323 OA
HETATM   27  O   UNL     1      44.781  -8.818   8.287  1.00  0.00    -0.323 OA
HETATM   28  C   UNL     1      46.160  -9.245   8.307  1.00  0.00     0.352 A 
ENDBRANCH  13  14
ENDBRANCH   1  13
BRANCH   1  29
HETATM   29  C   UNL     1      40.031 -15.013   2.709  1.00  0.00     0.153 C 
BRANCH  29  30
HETATM   30  C   UNL     1      39.494 -13.599   2.398  1.00  0.00     0.254 C 
BRANCH  30  31
HETATM   31  N   UNL     1      39.459 -13.316   0.905  1.00  0.00    -0.066 N 
HETATM   32  H   UNL     1      38.475 -13.117   0.665  1.00  0.00     0.280 HD
HETATM   33  C   UNL     1      40.274 -12.099   0.481  1.00  0.00     0.261 C 
HETATM   34  C   UNL     1      40.134 -11.902  -1.033  1.00  0.00     0.195 C 
HETATM   35  O   UNL     1      40.573 -13.068  -1.740  1.00  0.00    -0.388 OA
HETATM   36  C   UNL     1      39.789 -14.217  -1.404  1.00  0.00     0.195 C 
HETATM   37  C   UNL     1      39.889 -14.531   0.093  1.00  0.00     0.261 C 
ENDBRANCH  30  31
ENDBRANCH  29  30
ENDBRANCH   1  29
TORSDOF 8
ENDMDL
MODEL 2
REMARK VINA RESULT:      -9.2      1.891      7.447
REMARK  8 active torsions:
REMARK  status: ('A' for Active; 'I' for Inactive)
REMARK    1  A    between atoms: C_2  and  N_3 
REMARK    2  A    between atoms: N_3  and  C_4 
REMARK    3  A    between atoms: C_4  and  N_5 
REMARK    4  A    between atoms: N_5  and  C_6 
REMARK    5  A    between atoms: N_5  and  C_21 
REMARK    6  A    between atoms: C_6  and  C_7 
REMARK    7  A    between atoms: C_21  and  C_22 
REMARK    8  A    between atoms: C_22  and  N_23 
ROOT
HETATM    1  N   UNL     1      42.095 -13.737   4.634  1.00  0.00    -0.352 N 
ENDROOT
BRANCH   1   2
HETATM    2  C   UNL     1      42.215 -15.036   5.093  1.00  0.00     0.174 C 
HETATM    3  S   UNL     1      40.918 -15.898   5.724  1.00  0.00    -0.041 SA
BRANCH   2   4
HETATM    4  N   UNL     1      43.334 -15.759   4.818  1.00  0.00    -0.333 N 
HETATM    5  H   UNL     1      44.180 -15.192   4.814  1.00  0.00     0.168 HD
BRANCH   4   6
HETATM    6  C   UNL     1      43.498 -16.995   4.159  1.00  0.00     0.034 A 
HETATM    7  C   UNL     1      44.059 -18.127   4.754  1.00  0.00     0.032 A 
HETATM    8  C   UNL     1      44.157 -19.325   4.039  1.00  0.00     0.044 A 
HETATM    9  C   UNL     1      43.675 -19.391   2.737  1.00  0.00     0.116 A 
HETATM   10  C   UNL     1      43.088 -18.285   2.139  1.00  0.00     0.044 A 
HETATM   11  F   UNL     1      43.769 -20.539   2.055  1.00  0.00    -0.206 F 
HETATM   12  C   UNL     1      42.990 -17.090   2.855  1.00  0.00     0.032 A 
ENDBRANCH   4   6
ENDBRANCH   2   4
ENDBRANCH   1   2
BRANCH   1  13
HETATM   13  C   UNL     1      42.853 -13.261   3.449  1.00  0.00     0.169 C 
BRANCH  13  14
HETATM   14  C   UNL     1      41.960 -13.044   2.261  1.00  0.00     0.029 A 
HETATM   15  C   UNL     1      41.909 -11.664   1.688  1.00  0.00     0.253 A 
HETATM   16  O   UNL     1      42.515 -10.735   2.216  1.00  0.00    -0.268 OA
HETATM   17  N   UNL     1      41.161 -11.474   0.559  1.00  0.00    -0.322 N 
HETATM   18  C   UNL     1      40.505 -12.507  -0.123  1.00  0.00     0.048 A 
HETATM   19  H   UNL     1      41.142 -10.535   0.182  1.00  0.00     0.169 HD
HETATM   20  C   UNL     1      40.576 -13.820   0.393  1.00  0.00    -0.006 A 
HETATM   21  C   UNL     1      39.824 -12.227  -1.309  1.00  0.00     0.070 A 
HETATM   22  C   UNL     1      39.963 -14.873  -0.293  1.00  0.00     0.053 A 
HETATM   23  C   UNL     1      41.331 -14.051   1.627  1.00  0.00     0.028 A 
HETATM   24  C   UNL     1      39.310 -14.575  -1.473  1.00  0.00     0.106 A 
HETATM   25  C   UNL     1      39.241 -13.292  -1.964  1.00  0.00     0.107 A 
HETATM   26  O   UNL     1      38.686 -15.472  -2.281  1.00  0.00    -0.323 OA
HETATM   27  O   UNL     1      38.564 -13.223  -3.140  1.00  0.00    -0.323 OA
HETATM   28  C   UNL     1      38.246 -14.615  -3.357  1.00  0.00     0.352 A 
ENDBRANCH  13  14
ENDBRANCH   1  13
BRANCH   1  29
HETATM   29  C   UNL     1      41.334 -12.712   5.389  1.00  0.00     0.153 C 
BRANCH  29  30
HETATM   30  C   UNL     1      42.031 -11.341   5.518  1.00  0.00     0.254 C 
BRANCH  30  31
HETATM   31  N   UNL     1      43.104 -11.344   6.594  1.00  0.00    -0.066 N 
HETATM   32  H   UNL     1      42.995 -12.225   7.119  1.00  0.00     0.280 HD
HETATM   33  C   UNL     1      44.531 -11.324   6.054  1.00  0.00     0.261 C 
HETATM   34  C   UNL     1      45.515 -11.359   7.229  1.00  0.00     0.195 C 
HETATM   35  O   UNL     1      45.299 -10.249   8.107  1.00  0.00    -0.388 OA
HETATM   36  C   UNL     1      43.985 -10.271   8.674  1.00  0.00     0.195 C 
HETATM   37  C   UNL     1      42.913 -10.199   7.581  1.00  0.00     0.261 C 
ENDBRANCH  30  31
ENDBRANCH  29  30
ENDBRANCH   1  29
TORSDOF 8
ENDMDL
MODEL 3
REMARK VINA RESULT:      -9.0      1.751      7.106
REMARK  8 active torsions:
REMARK  status: ('A' for Active; 'I' for Inactive)
REMARK    1  A    between atoms: C_2  and  N_3 
REMARK    2  A    between atoms: N_3  and  C_4 
REMARK    3  A    between atoms: C_4  and  N_5 
REMARK    4  A    between atoms: N_5  and  C_6 
REMARK    5  A    between atoms: N_5  and  C_21 
REMARK    6  A    between atoms: C_6  and  C_7 
REMARK    7  A    between atoms: C_21  and  C_22 
REMARK    8  A    between atoms: C_22  and  N_23 
ROOT
HETATM    1  N   UNL     1      42.290 -13.962   5.238  1.00  0.00    -0.352 N 
ENDROOT
BRANCH   1   2
HETATM    2  C   UNL     1      42.641 -15.225   5.677  1.00  0.00     0.174 C 
HETATM    3  S   UNL     1      41.701 -16.102   6.759  1.00  0.00    -0.041 SA
BRANCH   2   4
HETATM    4  N   UNL     1      43.634 -15.915   5.054  1.00  0.00    -0.333 N 
HETATM    5  H   UNL     1      44.467 -15.351   4.894  1.00  0.00     0.168 HD
BRANCH   4   6
HETATM    6  C   UNL     1      43.593 -17.074   4.250  1.00  0.00     0.034 A 
HETATM    7  C   UNL     1      43.105 -17.097   2.942  1.00  0.00     0.032 A 
HETATM    8  C   UNL     1      43.129 -18.282   2.201  1.00  0.00     0.044 A 
HETATM    9  C   UNL     1      43.658 -19.436   2.765  1.00  0.00     0.116 A 
HETATM   10  C   UNL     1      44.174 -19.426   4.053  1.00  0.00     0.044 A 
HETATM   11  F   UNL     1      43.681 -20.570   2.053  1.00  0.00    -0.206 F 
HETATM   12  C   UNL     1      44.151 -18.241   4.792  1.00  0.00     0.032 A 
ENDBRANCH   4   6
ENDBRANCH   2   4
ENDBRANCH   1   2
BRANCH   1  13
HETATM   13  C   UNL     1      40.914 -13.661   4.765  1.00  0.00     0.169 C 
BRANCH  13  14
HETATM   14  C   UNL     1      40.783 -13.831   3.277  1.00  0.00     0.029 A 
HETATM   15  C   UNL     1      40.172 -15.105   2.787  1.00  0.00     0.253 A 
HETATM   16  O   UNL     1      39.862 -16.001   3.567  1.00  0.00    -0.268 OA
HETATM   17  N   UNL     1      39.975 -15.235   1.440  1.00  0.00    -0.322 N 
HETATM   18  C   UNL     1      40.246 -14.221   0.512  1.00  0.00     0.048 A 
HETATM   19  H   UNL     1      39.556 -16.101   1.127  1.00  0.00     0.169 HD
HETATM   20  C   UNL     1      40.792 -13.002   0.971  1.00  0.00    -0.006 A 
HETATM   21  C   UNL     1      39.944 -14.421  -0.836  1.00  0.00     0.070 A 
HETATM   22  C   UNL     1      41.032 -11.961   0.069  1.00  0.00     0.053 A 
HETATM   23  C   UNL     1      41.058 -12.845   2.403  1.00  0.00     0.028 A 
HETATM   24  C   UNL     1      40.709 -12.176  -1.257  1.00  0.00     0.106 A 
HETATM   25  C   UNL     1      40.184 -13.370  -1.695  1.00  0.00     0.107 A 
HETATM   26  O   UNL     1      40.848 -11.272  -2.263  1.00  0.00    -0.323 OA
HETATM   27  O   UNL     1      39.929 -13.364  -3.030  1.00  0.00    -0.323 OA
HETATM   28  C   UNL     1      40.317 -12.018  -3.380  1.00  0.00     0.352 A 
ENDBRANCH  13  14
ENDBRANCH   1  13
BRANCH   1  29
HETATM   29  C   UNL     1      43.300 -12.889   5.064  1.00  0.00     0.153 C 
BRANCH  29  30
HETATM   30  C   UNL     1      42.851 -11.485   5.523  1.00  0.00     0.254 C 
BRANCH  30  31
HETATM   31  N   UNL     1      43.842 -10.855   6.488  1.00  0.00    -0.066 N 
HETATM   32  H   UNL     1      43.988  -9.885   6.170  1.00  0.00     0.280 HD
HETATM   33  C   UNL     1      43.349 -10.780   7.930  1.00  0.00     0.261 C 
HETATM   34  C   UNL     1      44.419 -10.102   8.793  1.00  0.00     0.195 C 
HETATM   35  O   UNL     1      45.657 -10.820   8.726  1.00  0.00    -0.388 OA
HETATM   36  C   UNL     1      46.174 -10.859   7.391  1.00  0.00     0.195 C 
HETATM   37  C   UNL     1      45.194 -11.557   6.443  1.00  0.00     0.261 C 
ENDBRANCH  30  31
ENDBRANCH  29  30
ENDBRANCH   1  29
TORSDOF 8
ENDMDL
MODEL 4
REMARK VINA RESULT:      -8.9      3.229      7.913
REMARK  8 active torsions:
REMARK  status: ('A' for Active; 'I' for Inactive)
REMARK    1  A    between atoms: C_2  and  N_3 
REMARK    2  A    between atoms: N_3  and  C_4 
REMARK    3  A    between atoms: C_4  and  N_5 
REMARK    4  A    between atoms: N_5  and  C_6 
REMARK    5  A    between atoms: N_5  and  C_21 
REMARK    6  A    between atoms: C_6  and  C_7 
REMARK    7  A    between atoms: C_21  and  C_22 
REMARK    8  A    between atoms: C_22  and  N_23 
ROOT
HETATM    1  N   UNL     1      42.148 -12.633   5.058  1.00  0.00    -0.352 N 
ENDROOT
BRANCH   1   2
HETATM    2  C   UNL     1      40.900 -13.227   5.006  1.00  0.00     0.174 C 
HETATM    3  S   UNL     1      40.255 -14.095   6.292  1.00  0.00    -0.041 SA
BRANCH   2   4
HETATM    4  N   UNL     1      40.035 -12.917   4.002  1.00  0.00    -0.333 N 
HETATM    5  H   UNL     1      39.140 -12.571   4.344  1.00  0.00     0.168 HD
BRANCH   4   6
HETATM    6  C   UNL     1      39.981 -13.352   2.661  1.00  0.00     0.034 A 
HETATM    7  C   UNL     1      40.110 -12.502   1.561  1.00  0.00     0.032 A 
HETATM    8  C   UNL     1      40.075 -13.019   0.262  1.00  0.00     0.044 A 
HETATM    9  C   UNL     1      39.931 -14.387   0.069  1.00  0.00     0.116 A 
HETATM   10  C   UNL     1      39.831 -15.250   1.151  1.00  0.00     0.044 A 
HETATM   11  F   UNL     1      39.900 -14.880  -1.175  1.00  0.00    -0.206 F 
HETATM   12  C   UNL     1      39.866 -14.733   2.447  1.00  0.00     0.032 A 
ENDBRANCH   4   6
ENDBRANCH   2   4
ENDBRANCH   1   2
BRANCH   1  13
HETATM   13  C   UNL     1      43.226 -13.014   4.110  1.00  0.00     0.169 C 
BRANCH  13  14
HETATM   14  C   UNL     1      43.229 -14.489   3.826  1.00  0.00     0.029 A 
HETATM   15  C   UNL     1      43.283 -14.908   2.391  1.00  0.00     0.253 A 
HETATM   16  O   UNL     1      43.252 -14.078   1.486  1.00  0.00    -0.268 OA
HETATM   17  N   UNL     1      43.367 -16.247   2.125  1.00  0.00    -0.322 N 
HETATM   18  C   UNL     1      43.474 -17.232   3.115  1.00  0.00     0.048 A 
HETATM   19  H   UNL     1      43.408 -16.511   1.149  1.00  0.00     0.169 HD
HETATM   20  C   UNL     1      43.456 -16.842   4.472  1.00  0.00    -0.006 A 
HETATM   21  C   UNL     1      43.626 -18.569   2.744  1.00  0.00     0.070 A 
HETATM   22  C   UNL     1      43.603 -17.804   5.477  1.00  0.00     0.053 A 
HETATM   23  C   UNL     1      43.323 -15.419   4.794  1.00  0.00     0.028 A 
HETATM   24  C   UNL     1      43.770 -19.118   5.085  1.00  0.00     0.106 A 
HETATM   25  C   UNL     1      43.779 -19.488   3.761  1.00  0.00     0.107 A 
HETATM   26  O   UNL     1      43.954 -20.176   5.920  1.00  0.00    -0.323 OA
HETATM   27  O   UNL     1      43.968 -20.824   3.598  1.00  0.00    -0.323 OA
HETATM   28  C   UNL     1      44.116 -21.251   4.969  1.00  0.00     0.352 A 
ENDBRANCH  13  14
ENDBRANCH   1  13
BRANCH   1  29
HETATM   29  C   UNL     1      42.525 -11.709   6.155  1.00  0.00     0.153 C 
BRANCH  29  30
HETATM   30  C   UNL     1      43.755 -12.142   6.982  1.00  0.00     0.254 C 
BRANCH  30  31
HETATM   31  N   UNL     1      44.363 -10.981   7.753  1.00  0.00    -0.066 N 
HETATM   32  H   UNL     1      44.454 -11.292   8.732  1.00  0.00     0.280 HD
HETATM   33  C   UNL     1      45.758 -10.582   7.283  1.00  0.00     0.261 C 
HETATM   34  C   UNL     1      46.271  -9.428   8.152  1.00  0.00     0.195 C 
HETATM   35  O   UNL     1      45.382  -8.307   8.086  1.00  0.00    -0.388 OA
HETATM   36  C   UNL     1      44.078  -8.637   8.574  1.00  0.00     0.195 C 
HETATM   37  C   UNL     1      43.449  -9.762   7.746  1.00  0.00     0.261 C 
ENDBRANCH  30  31
ENDBRANCH  29  30
ENDBRANCH   1  29
TORSDOF 8
ENDMDL
MODEL 5
REMARK VINA RESULT:      -8.9      1.775      7.020
REMARK  8 active torsions:
REMARK  status: ('A' for Active; 'I' for Inactive)
REMARK    1  A    between atoms: C_2  and  N_3 
REMARK    2  A    between atoms: N_3  and  C_4 
REMARK    3  A    between atoms: C_4  and  N_5 
REMARK    4  A    between atoms: N_5  and  C_6 
REMARK    5  A    between atoms: N_5  and  C_21 
REMARK    6  A    between atoms: C_6  and  C_7 
REMARK    7  A    between atoms: C_21  and  C_22 
REMARK    8  A    between atoms: C_22  and  N_23 
ROOT
HETATM    1  N   UNL     1      41.975 -13.612   5.574  1.00  0.00    -0.352 N 
ENDROOT
BRANCH   1   2
HETATM    2  C   UNL     1      42.423 -14.892   5.847  1.00  0.00     0.174 C 
HETATM    3  S   UNL     1      41.561 -15.968   6.805  1.00  0.00    -0.041 SA
BRANCH   2   4
HETATM    4  N   UNL     1      43.459 -15.419   5.141  1.00  0.00    -0.333 N 
HETATM    5  H   UNL     1      44.187 -14.736   4.936  1.00  0.00     0.168 HD
BRANCH   4   6
HETATM    6  C   UNL     1      43.531 -16.561   4.315  1.00  0.00     0.034 A 
HETATM    7  C   UNL     1      44.156 -17.753   4.687  1.00  0.00     0.032 A 
HETATM    8  C   UNL     1      44.154 -18.850   3.820  1.00  0.00     0.044 A 
HETATM    9  C   UNL     1      43.511 -18.757   2.593  1.00  0.00     0.116 A 
HETATM   10  C   UNL     1      42.858 -17.591   2.219  1.00  0.00     0.044 A 
HETATM   11  F   UNL     1      43.509 -19.809   1.765  1.00  0.00    -0.206 F 
HETATM   12  C   UNL     1      42.860 -16.496   3.085  1.00  0.00     0.032 A 
ENDBRANCH   4   6
ENDBRANCH   2   4
ENDBRANCH   1   2
BRANCH   1  13
HETATM   13  C   UNL     1      40.527 -13.282   5.574  1.00  0.00     0.169 C 
BRANCH  13  14
HETATM   14  C   UNL     1      40.008 -13.032   4.186  1.00  0.00     0.029 A 
HETATM   15  C   UNL     1      39.343 -11.717   3.932  1.00  0.00     0.253 A 
HETATM   16  O   UNL     1      39.165 -10.910   4.840  1.00  0.00    -0.268 OA
HETATM   17  N   UNL     1      38.940 -11.449   2.653  1.00  0.00    -0.322 N 
HETATM   18  C   UNL     1      39.177 -12.300   1.567  1.00  0.00     0.048 A 
HETATM   19  H   UNL     1      38.497 -10.552   2.499  1.00  0.00     0.169 HD
HETATM   20  C   UNL     1      39.834 -13.530   1.793  1.00  0.00    -0.006 A 
HETATM   21  C   UNL     1      38.790 -11.907   0.284  1.00  0.00     0.070 A 
HETATM   22  C   UNL     1      40.118 -14.377   0.717  1.00  0.00     0.053 A 
HETATM   23  C   UNL     1      40.240 -13.870   3.158  1.00  0.00     0.028 A 
HETATM   24  C   UNL     1      39.741 -13.959  -0.544  1.00  0.00     0.106 A 
HETATM   25  C   UNL     1      39.096 -12.762  -0.753  1.00  0.00     0.107 A 
HETATM   26  O   UNL     1      39.961 -14.638  -1.702  1.00  0.00    -0.323 OA
HETATM   27  O   UNL     1      38.828 -12.541  -2.067  1.00  0.00    -0.323 OA
HETATM   28  C   UNL     1      39.412 -13.716  -2.669  1.00  0.00     0.352 A 
ENDBRANCH  13  14
ENDBRANCH   1  13
BRANCH   1  29
HETATM   29  C   UNL     1      42.897 -12.546   5.112  1.00  0.00     0.153 C 
BRANCH  29  30
HETATM   30  C   UNL     1      42.615 -11.141   5.687  1.00  0.00     0.254 C 
BRANCH  30  31
HETATM   31  N   UNL     1      43.747 -10.647   6.573  1.00  0.00    -0.066 N 
HETATM   32  H   UNL     1      44.008  -9.711   6.227  1.00  0.00     0.280 HD
HETATM   33  C   UNL     1      43.367 -10.488   8.041  1.00  0.00     0.261 C 
HETATM   34  C   UNL     1      44.577  -9.959   8.820  1.00  0.00     0.195 C 
HETATM   35  O   UNL     1      45.694 -10.846   8.688  1.00  0.00    -0.388 OA
HETATM   36  C   UNL     1      46.111 -10.972   7.324  1.00  0.00     0.195 C 
HETATM   37  C   UNL     1      44.981 -11.535   6.454  1.00  0.00     0.261 C 
ENDBRANCH  30  31
ENDBRANCH  29  30
ENDBRANCH   1  29
TORSDOF 8
ENDMDL
MODEL 6
REMARK VINA RESULT:      -8.8      1.807      2.007
REMARK  8 active torsions:
REMARK  status: ('A' for Active; 'I' for Inactive)
REMARK    1  A    between atoms: C_2  and  N_3 
REMARK    2  A    between atoms: N_3  and  C_4 
REMARK    3  A    between atoms: C_4  and  N_5 
REMARK    4  A    between atoms: N_5  and  C_6 
REMARK    5  A    between atoms: N_5  and  C_21 
REMARK    6  A    between atoms: C_6  and  C_7 
REMARK    7  A    between atoms: C_21  and  C_22 
REMARK    8  A    between atoms: C_22  and  N_23 
ROOT
HETATM    1  N   UNL     1      42.140 -13.436   2.746  1.00  0.00    -0.352 N 
ENDROOT
BRANCH   1   2
HETATM    2  C   UNL     1      42.168 -14.267   3.851  1.00  0.00     0.174 C 
HETATM    3  S   UNL     1      40.835 -14.497   4.846  1.00  0.00    -0.041 SA
BRANCH   2   4
HETATM    4  N   UNL     1      43.203 -15.131   4.032  1.00  0.00    -0.333 N 
HETATM    5  H   UNL     1      44.102 -14.660   4.122  1.00  0.00     0.168 HD
BRANCH   4   6
HETATM    6  C   UNL     1      43.332 -16.501   3.715  1.00  0.00     0.034 A 
HETATM    7  C   UNL     1      42.944 -17.058   2.495  1.00  0.00     0.032 A 
HETATM    8  C   UNL     1      43.135 -18.421   2.250  1.00  0.00     0.044 A 
HETATM    9  C   UNL     1      43.731 -19.218   3.219  1.00  0.00     0.116 A 
HETATM   10  C   UNL     1      44.150 -18.677   4.426  1.00  0.00     0.044 A 
HETATM   11  F   UNL     1      43.915 -20.523   2.981  1.00  0.00    -0.206 F 
HETATM   12  C   UNL     1      43.959 -17.315   4.669  1.00  0.00     0.032 A 
ENDBRANCH   4   6
ENDBRANCH   2   4
ENDBRANCH   1   2
BRANCH   1  13
HETATM   13  C   UNL     1      42.926 -12.176   2.705  1.00  0.00     0.169 C 
BRANCH  13  14
HETATM   14  C   UNL     1      42.937 -11.478   4.035  1.00  0.00     0.029 A 
HETATM   15  C   UNL     1      41.717 -10.699   4.408  1.00  0.00     0.253 A 
HETATM   16  O   UNL     1      40.778 -10.577   3.624  1.00  0.00    -0.268 OA
HETATM   17  N   UNL     1      41.685 -10.126   5.649  1.00  0.00    -0.322 N 
HETATM   18  C   UNL     1      42.695 -10.287   6.607  1.00  0.00     0.048 A 
HETATM   19  H   UNL     1      40.849  -9.607   5.886  1.00  0.00     0.169 HD
HETATM   20  C   UNL     1      43.836 -11.050   6.275  1.00  0.00    -0.006 A 
HETATM   21  C   UNL     1      42.541  -9.722   7.874  1.00  0.00     0.070 A 
HETATM   22  C   UNL     1      44.838 -11.259   7.228  1.00  0.00     0.053 A 
HETATM   23  C   UNL     1      43.924 -11.640   4.937  1.00  0.00     0.028 A 
HETATM   24  C   UNL     1      44.655 -10.704   8.480  1.00  0.00     0.106 A 
HETATM   25  C   UNL     1      43.542  -9.958   8.792  1.00  0.00     0.107 A 
HETATM   26  O   UNL     1      45.506 -10.828   9.533  1.00  0.00    -0.323 OA
HETATM   27  O   UNL     1      43.557  -9.518  10.078  1.00  0.00    -0.323 OA
HETATM   28  C   UNL     1      44.787 -10.105  10.555  1.00  0.00     0.352 A 
ENDBRANCH  13  14
ENDBRANCH   1  13
BRANCH   1  29
HETATM   29  C   UNL     1      41.207 -13.672   1.618  1.00  0.00     0.153 C 
BRANCH  29  30
HETATM   30  C   UNL     1      40.889 -12.429   0.760  1.00  0.00     0.254 C 
BRANCH  30  31
HETATM   31  N   UNL     1      40.178 -12.793  -0.533  1.00  0.00    -0.066 N 
HETATM   32  H   UNL     1      39.245 -12.355  -0.492  1.00  0.00     0.280 HD
HETATM   33  C   UNL     1      40.860 -12.266  -1.792  1.00  0.00     0.261 C 
HETATM   34  C   UNL     1      40.035 -12.672  -3.019  1.00  0.00     0.195 C 
HETATM   35  O   UNL     1      39.893 -14.096  -3.088  1.00  0.00    -0.388 OA
HETATM   36  C   UNL     1      39.205 -14.614  -1.945  1.00  0.00     0.195 C 
HETATM   37  C   UNL     1      39.968 -14.298  -0.654  1.00  0.00     0.261 C 
ENDBRANCH  30  31
ENDBRANCH  29  30
ENDBRANCH   1  29
TORSDOF 8
ENDMDL
MODEL 7
REMARK VINA RESULT:      -8.7      3.219      7.737
REMARK  8 active torsions:
REMARK  status: ('A' for Active; 'I' for Inactive)
REMARK    1  A    between atoms: C_2  and  N_3 
REMARK    2  A    between atoms: N_3  and  C_4 
REMARK    3  A    between atoms: C_4  and  N_5 
REMARK    4  A    between atoms: N_5  and  C_6 
REMARK    5  A    between atoms: N_5  and  C_21 
REMARK    6  A    between atoms: C_6  and  C_7 
REMARK    7  A    between atoms: C_21  and  C_22 
REMARK    8  A    between atoms: C_22  and  N_23 
ROOT
HETATM    1  N   UNL     1      41.277 -11.868   3.688  1.00  0.00    -0.352 N 
ENDROOT
BRANCH   1   2
HETATM    2  C   UNL     1      40.662 -11.673   2.464  1.00  0.00     0.174 C 
HETATM    3  S   UNL     1      39.306 -10.699   2.276  1.00  0.00    -0.041 SA
BRANCH   2   4
HETATM    4  N   UNL     1      41.282 -12.060   1.317  1.00  0.00    -0.333 N 
HETATM    5  H   UNL     1      42.156 -11.563   1.153  1.00  0.00     0.168 HD
BRANCH   4   6
HETATM    6  C   UNL     1      40.776 -12.679   0.155  1.00  0.00     0.034 A 
HETATM    7  C   UNL     1      40.871 -12.129  -1.125  1.00  0.00     0.032 A 
HETATM    8  C   UNL     1      40.370 -12.824  -2.230  1.00  0.00     0.044 A 
HETATM    9  C   UNL     1      39.793 -14.076  -2.053  1.00  0.00     0.116 A 
HETATM   10  C   UNL     1      39.717 -14.651  -0.793  1.00  0.00     0.044 A 
HETATM   11  F   UNL     1      39.316 -14.740  -3.113  1.00  0.00    -0.206 F 
HETATM   12  C   UNL     1      40.218 -13.957   0.310  1.00  0.00     0.032 A 
ENDBRANCH   4   6
ENDBRANCH   2   4
ENDBRANCH   1   2
BRANCH   1  13
HETATM   13  C   UNL     1      40.823 -12.930   4.622  1.00  0.00     0.169 C 
BRANCH  13  14
HETATM   14  C   UNL     1      41.690 -14.154   4.544  1.00  0.00     0.029 A 
HETATM   15  C   UNL     1      42.547 -14.461   5.730  1.00  0.00     0.253 A 
HETATM   16  O   UNL     1      42.593 -13.700   6.693  1.00  0.00    -0.268 OA
HETATM   17  N   UNL     1      43.279 -15.615   5.701  1.00  0.00    -0.322 N 
HETATM   18  C   UNL     1      43.215 -16.552   4.661  1.00  0.00     0.048 A 
HETATM   19  H   UNL     1      43.849 -15.809   6.514  1.00  0.00     0.169 HD
HETATM   20  C   UNL     1      42.382 -16.286   3.552  1.00  0.00    -0.006 A 
HETATM   21  C   UNL     1      43.947 -17.737   4.753  1.00  0.00     0.070 A 
HETATM   22  C   UNL     1      42.270 -17.225   2.522  1.00  0.00     0.053 A 
HETATM   23  C   UNL     1      41.618 -15.036   3.529  1.00  0.00     0.028 A 
HETATM   24  C   UNL     1      42.990 -18.398   2.644  1.00  0.00     0.106 A 
HETATM   25  C   UNL     1      43.803 -18.644   3.725  1.00  0.00     0.107 A 
HETATM   26  O   UNL     1      42.981 -19.428   1.757  1.00  0.00    -0.323 OA
HETATM   27  O   UNL     1      44.408 -19.859   3.651  1.00  0.00    -0.323 OA
HETATM   28  C   UNL     1      43.853 -20.369   2.419  1.00  0.00     0.352 A 
ENDBRANCH  13  14
ENDBRANCH   1  13
BRANCH   1  29
HETATM   29  C   UNL     1      42.308 -10.932   4.199  1.00  0.00     0.153 C 
BRANCH  29  30
HETATM   30  C   UNL     1      42.053 -10.390   5.622  1.00  0.00     0.254 C 
BRANCH  30  31
HETATM   31  N   UNL     1      43.152 -10.792   6.592  1.00  0.00    -0.066 N 
HETATM   32  H   UNL     1      42.826 -11.644   7.073  1.00  0.00     0.280 HD
HETATM   33  C   UNL     1      44.479 -11.140   5.924  1.00  0.00     0.261 C 
HETATM   34  C   UNL     1      45.490 -11.555   6.999  1.00  0.00     0.195 C 
HETATM   35  O   UNL     1      45.674 -10.506   7.957  1.00  0.00    -0.388 OA
HETATM   36  C   UNL     1      44.455 -10.196   8.642  1.00  0.00     0.195 C 
HETATM   37  C   UNL     1      43.377  -9.727   7.658  1.00  0.00     0.261 C 
ENDBRANCH  30  31
ENDBRANCH  29  30
ENDBRANCH   1  29
TORSDOF 8
ENDMDL
MODEL 8
REMARK VINA RESULT:      -8.6      3.120      7.222
REMARK  8 active torsions:
REMARK  status: ('A' for Active; 'I' for Inactive)
REMARK    1  A    between atoms: C_2  and  N_3 
REMARK    2  A    between atoms: N_3  and  C_4 
REMARK    3  A    between atoms: C_4  and  N_5 
REMARK    4  A    between atoms: N_5  and  C_6 
REMARK    5  A    between atoms: N_5  and  C_21 
REMARK    6  A    between atoms: C_6  and  C_7 
REMARK    7  A    between atoms: C_21  and  C_22 
REMARK    8  A    between atoms: C_22  and  N_23 
ROOT
HETATM    1  N   UNL     1      40.831 -11.554   2.996  1.00  0.00    -0.352 N 
ENDROOT
BRANCH   1   2
HETATM    2  C   UNL     1      40.463 -11.098   1.744  1.00  0.00     0.174 C 
HETATM    3  S   UNL     1      41.451 -10.108   0.813  1.00  0.00    -0.041 SA
BRANCH   2   4
HETATM    4  N   UNL     1      39.391 -11.640   1.105  1.00  0.00    -0.333 N 
HETATM    5  H   UNL     1      38.522 -11.527   1.625  1.00  0.00     0.168 HD
BRANCH   4   6
HETATM    6  C   UNL     1      39.313 -12.644   0.117  1.00  0.00     0.034 A 
HETATM    7  C   UNL     1      39.965 -13.875   0.205  1.00  0.00     0.032 A 
HETATM    8  C   UNL     1      39.809 -14.829  -0.806  1.00  0.00     0.044 A 
HETATM    9  C   UNL     1      38.986 -14.555  -1.891  1.00  0.00     0.116 A 
HETATM   10  C   UNL     1      38.307 -13.349  -1.981  1.00  0.00     0.044 A 
HETATM   11  F   UNL     1      38.838 -15.470  -2.856  1.00  0.00    -0.206 F 
HETATM   12  C   UNL     1      38.462 -12.397  -0.971  1.00  0.00     0.032 A 
ENDBRANCH   4   6
ENDBRANCH   2   4
ENDBRANCH   1   2
BRANCH   1  13
HETATM   13  C   UNL     1      39.956 -12.466   3.776  1.00  0.00     0.169 C 
BRANCH  13  14
HETATM   14  C   UNL     1      40.728 -13.610   4.372  1.00  0.00     0.029 A 
HETATM   15  C   UNL     1      40.475 -13.927   5.812  1.00  0.00     0.253 A 
HETATM   16  O   UNL     1      39.725 -13.232   6.492  1.00  0.00    -0.268 OA
HETATM   17  N   UNL     1      41.112 -15.015   6.341  1.00  0.00    -0.322 N 
HETATM   18  C   UNL     1      41.924 -15.881   5.597  1.00  0.00     0.048 A 
HETATM   19  H   UNL     1      40.925 -15.217   7.315  1.00  0.00     0.169 HD
HETATM   20  C   UNL     1      42.140 -15.607   4.228  1.00  0.00    -0.006 A 
HETATM   21  C   UNL     1      42.474 -17.008   6.210  1.00  0.00     0.070 A 
HETATM   22  C   UNL     1      42.913 -16.480   3.456  1.00  0.00     0.053 A 
HETATM   23  C   UNL     1      41.510 -14.424   3.639  1.00  0.00     0.028 A 
HETATM   24  C   UNL     1      43.433 -17.598   4.080  1.00  0.00     0.106 A 
HETATM   25  C   UNL     1      43.221 -17.851   5.415  1.00  0.00     0.107 A 
HETATM   26  O   UNL     1      44.180 -18.563   3.481  1.00  0.00    -0.323 OA
HETATM   27  O   UNL     1      43.811 -19.007   5.822  1.00  0.00    -0.323 OA
HETATM   28  C   UNL     1      44.386 -19.475   4.583  1.00  0.00     0.352 A 
ENDBRANCH  13  14
ENDBRANCH   1  13
BRANCH   1  29
HETATM   29  C   UNL     1      42.034 -11.034   3.692  1.00  0.00     0.153 C 
BRANCH  29  30
HETATM   30  C   UNL     1      41.764 -10.373   5.061  1.00  0.00     0.254 C 
BRANCH  30  31
HETATM   31  N   UNL     1      42.953 -10.499   6.000  1.00  0.00    -0.066 N 
HETATM   32  H   UNL     1      43.667  -9.835   5.664  1.00  0.00     0.280 HD
HETATM   33  C   UNL     1      42.648 -10.126   7.447  1.00  0.00     0.261 C 
HETATM   34  C   UNL     1      43.926 -10.264   8.283  1.00  0.00     0.195 C 
HETATM   35  O   UNL     1      44.440 -11.599   8.209  1.00  0.00    -0.388 OA
HETATM   36  C   UNL     1      44.789 -11.958   6.868  1.00  0.00     0.195 C 
HETATM   37  C   UNL     1      43.567 -11.893   5.946  1.00  0.00     0.261 C 
ENDBRANCH  30  31
ENDBRANCH  29  30
ENDBRANCH   1  29
TORSDOF 8
ENDMDL
MODEL 9
REMARK VINA RESULT:      -8.4      2.156      3.066
REMARK  8 active torsions:
REMARK  status: ('A' for Active; 'I' for Inactive)
REMARK    1  A    between atoms: C_2  and  N_3 
REMARK    2  A    between atoms: N_3  and  C_4 
REMARK    3  A    between atoms: C_4  and  N_5 
REMARK    4  A    between atoms: N_5  and  C_6 
REMARK    5  A    between atoms: N_5  and  C_21 
REMARK    6  A    between atoms: C_6  and  C_7 
REMARK    7  A    between atoms: C_21  and  C_22 
REMARK    8  A    between atoms: C_22  and  N_23 
ROOT
HETATM    1  N   UNL     1      41.694 -13.829   2.532  1.00  0.00    -0.352 N 
ENDROOT
BRANCH   1   2
HETATM    2  C   UNL     1      41.977 -14.721   3.549  1.00  0.00     0.174 C 
HETATM    3  S   UNL     1      40.837 -15.180   4.695  1.00  0.00    -0.041 SA
BRANCH   2   4
HETATM    4  N   UNL     1      43.119 -15.460   3.514  1.00  0.00    -0.333 N 
HETATM    5  H   UNL     1      43.932 -14.918   3.229  1.00  0.00     0.168 HD
BRANCH   4   6
HETATM    6  C   UNL     1      43.317 -16.852   3.395  1.00  0.00     0.034 A 
HETATM    7  C   UNL     1      42.938 -17.599   2.278  1.00  0.00     0.032 A 
HETATM    8  C   UNL     1      43.200 -18.972   2.226  1.00  0.00     0.044 A 
HETATM    9  C   UNL     1      43.858 -19.588   3.283  1.00  0.00     0.116 A 
HETATM   10  C   UNL     1      44.268 -18.856   4.388  1.00  0.00     0.044 A 
HETATM   11  F   UNL     1      44.109 -20.902   3.230  1.00  0.00    -0.206 F 
HETATM   12  C   UNL     1      44.007 -17.486   4.439  1.00  0.00     0.032 A 
ENDBRANCH   4   6
ENDBRANCH   2   4
ENDBRANCH   1   2
BRANCH   1  13
HETATM   13  C   UNL     1      42.254 -12.453   2.530  1.00  0.00     0.169 C 
BRANCH  13  14
HETATM   14  C   UNL     1      42.199 -11.823   3.893  1.00  0.00     0.029 A 
HETATM   15  C   UNL     1      43.488 -11.335   4.472  1.00  0.00     0.253 A 
HETATM   16  O   UNL     1      44.554 -11.512   3.888  1.00  0.00    -0.268 OA
HETATM   17  N   UNL     1      43.437 -10.689   5.676  1.00  0.00    -0.322 N 
HETATM   18  C   UNL     1      42.246 -10.400   6.355  1.00  0.00     0.048 A 
HETATM   19  H   UNL     1      44.318 -10.361   6.051  1.00  0.00     0.169 HD
HETATM   20  C   UNL     1      41.021 -10.828   5.798  1.00  0.00    -0.006 A 
HETATM   21  C   UNL     1      42.289  -9.672   7.545  1.00  0.00     0.070 A 
HETATM   22  C   UNL     1      39.817 -10.515   6.437  1.00  0.00     0.053 A 
HETATM   23  C   UNL     1      41.042 -11.563   4.531  1.00  0.00     0.028 A 
HETATM   24  C   UNL     1      39.884  -9.779   7.603  1.00  0.00     0.106 A 
HETATM   25  C   UNL     1      41.082  -9.372   8.141  1.00  0.00     0.107 A 
HETATM   26  O   UNL     1      38.819  -9.363   8.339  1.00  0.00    -0.323 OA
HETATM   27  O   UNL     1      40.920  -8.652   9.282  1.00  0.00    -0.323 OA
HETATM   28  C   UNL     1      39.480  -8.616   9.383  1.00  0.00     0.352 A 
ENDBRANCH  13  14
ENDBRANCH   1  13
BRANCH   1  29
HETATM   29  C   UNL     1      40.696 -14.139   1.479  1.00  0.00     0.153 C 
BRANCH  29  30
HETATM   30  C   UNL     1      39.913 -12.923   0.940  1.00  0.00     0.254 C 
BRANCH  30  31
HETATM   31  N   UNL     1      39.811 -12.935  -0.577  1.00  0.00    -0.066 N 
HETATM   32  H   UNL     1      38.949 -12.423  -0.819  1.00  0.00     0.280 HD
HETATM   33  C   UNL     1      40.961 -12.227  -1.286  1.00  0.00     0.261 C 
HETATM   34  C   UNL     1      40.729 -12.281  -2.800  1.00  0.00     0.195 C 
HETATM   35  O   UNL     1      40.624 -13.637  -3.250  1.00  0.00    -0.388 OA
HETATM   36  C   UNL     1      39.517 -14.312  -2.643  1.00  0.00     0.195 C 
HETATM   37  C   UNL     1      39.667 -14.352  -1.118  1.00  0.00     0.261 C 
ENDBRANCH  30  31
ENDBRANCH  29  30
ENDBRANCH   1  29
TORSDOF 8
ENDMDL
MODEL 10
REMARK VINA RESULT:      -8.4      3.400      8.499
REMARK  8 active torsions:
REMARK  status: ('A' for Active; 'I' for Inactive)
REMARK    1  A    between atoms: C_2  and  N_3 
REMARK    2  A    between atoms: N_3  and  C_4 
REMARK    3  A    between atoms: C_4  and  N_5 
REMARK    4  A    between atoms: N_5  and  C_6 
REMARK    5  A    between atoms: N_5  and  C_21 
REMARK    6  A    between atoms: C_6  and  C_7 
REMARK    7  A    between atoms: C_21  and  C_22 
REMARK    8  A    between atoms: C_22  and  N_23 
ROOT
HETATM    1  N   UNL     1      42.475 -13.388   4.671  1.00  0.00    -0.352 N 
ENDROOT
BRANCH   1   2
HETATM    2  C   UNL     1      41.716 -12.355   5.190  1.00  0.00     0.174 C 
HETATM    3  S   UNL     1      40.179 -12.591   5.825  1.00  0.00    -0.041 SA
BRANCH   2   4
HETATM    4  N   UNL     1      42.285 -11.145   5.439  1.00  0.00    -0.333 N 
HETATM    5  H   UNL     1      42.209 -10.502   4.653  1.00  0.00     0.168 HD
BRANCH   4   6
HETATM    6  C   UNL     1      43.278 -10.763   6.367  1.00  0.00     0.034 A 
HETATM    7  C   UNL     1      44.576 -11.277   6.374  1.00  0.00     0.032 A 
HETATM    8  C   UNL     1      45.510 -10.821   7.309  1.00  0.00     0.044 A 
HETATM    9  C   UNL     1      45.147  -9.838   8.221  1.00  0.00     0.116 A 
HETATM   10  C   UNL     1      43.871  -9.294   8.210  1.00  0.00     0.044 A 
HETATM   11  F   UNL     1      46.044  -9.401   9.115  1.00  0.00    -0.206 F 
HETATM   12  C   UNL     1      42.939  -9.749   7.275  1.00  0.00     0.032 A 
ENDBRANCH   4   6
ENDBRANCH   2   4
ENDBRANCH   1   2
BRANCH   1  13
HETATM   13  C   UNL     1      43.141 -13.271   3.348  1.00  0.00     0.169 C 
BRANCH  13  14
HETATM   14  C   UNL     1      42.154 -13.020   2.243  1.00  0.00     0.029 A 
HETATM   15  C   UNL     1      41.976 -11.605   1.795  1.00  0.00     0.253 A 
HETATM   16  O   UNL     1      42.559 -10.683   2.359  1.00  0.00    -0.268 OA
HETATM   17  N   UNL     1      41.140 -11.377   0.737  1.00  0.00    -0.322 N 
HETATM   18  C   UNL     1      40.504 -12.393   0.014  1.00  0.00     0.048 A 
HETATM   19  H   UNL     1      41.036 -10.413   0.444  1.00  0.00     0.169 HD
HETATM   20  C   UNL     1      40.693 -13.735   0.410  1.00  0.00    -0.006 A 
HETATM   21  C   UNL     1      39.724 -12.066  -1.097  1.00  0.00     0.070 A 
HETATM   22  C   UNL     1      40.101 -14.770  -0.321  1.00  0.00     0.053 A 
HETATM   23  C   UNL     1      41.546 -14.014   1.568  1.00  0.00     0.028 A 
HETATM   24  C   UNL     1      39.349 -14.422  -1.427  1.00  0.00     0.106 A 
HETATM   25  C   UNL     1      39.165 -13.111  -1.801  1.00  0.00     0.107 A 
HETATM   26  O   UNL     1      38.727 -15.292  -2.267  1.00  0.00    -0.323 OA
HETATM   27  O   UNL     1      38.404 -12.994  -2.921  1.00  0.00    -0.323 OA
HETATM   28  C   UNL     1      38.159 -14.383  -3.234  1.00  0.00     0.352 A 
ENDBRANCH  13  14
ENDBRANCH   1  13
BRANCH   1  29
HETATM   29  C   UNL     1      42.533 -14.717   5.327  1.00  0.00     0.153 C 
BRANCH  29  30
HETATM   30  C   UNL     1      41.616 -15.794   4.709  1.00  0.00     0.254 C 
BRANCH  30  31
HETATM   31  N   UNL     1      42.365 -17.082   4.413  1.00  0.00    -0.066 N 
HETATM   32  H   UNL     1      41.651 -17.814   4.274  1.00  0.00     0.280 HD
HETATM   33  C   UNL     1      43.208 -17.038   3.143  1.00  0.00     0.261 C 
HETATM   34  C   UNL     1      43.886 -18.398   2.940  1.00  0.00     0.195 C 
HETATM   35  O   UNL     1      44.702 -18.733   4.068  1.00  0.00    -0.388 OA
HETATM   36  C   UNL     1      43.928 -18.838   5.268  1.00  0.00     0.195 C 
HETATM   37  C   UNL     1      43.232 -17.511   5.591  1.00  0.00     0.261 C 
ENDBRANCH  30  31
ENDBRANCH  29  30
ENDBRANCH   1  29
TORSDOF 8
ENDMDL
