MODEL 1
REMARK VINA RESULT:      -8.5      0.000      0.000
REMARK  5 active torsions:
REMARK  status: ('A' for Active; 'I' for Inactive)
REMARK    1  A    between atoms: C_4  and  O_5 
REMARK    2  A    between atoms: O_5  and  C_6 
REMARK    3  A    between atoms: C_6  and  C_7 
REMARK       I    between atoms: C_7  and  N_8 
REMARK    4  A    between atoms: N_8  and  C_9 
REMARK    5  A    between atoms: C_15  and  C_16 
ROOT
HETATM    1  C   UNL     1      41.753 -14.220   5.984  1.00  0.00     0.137 A 
HETATM    2  N   UNL     1      40.883 -14.727   5.052  1.00  0.00    -0.262 N 
HETATM    3  H   UNL     1      40.346 -15.588   5.103  1.00  0.00     0.191 HD
HETATM    4  N   UNL     1      40.710 -13.938   3.980  1.00  0.00    -0.177 NA
HETATM    5  C   UNL     1      41.458 -12.861   4.245  1.00  0.00     0.065 A 
HETATM    6  C   UNL     1      41.538 -11.753   3.260  1.00  0.00     0.073 C 
HETATM    7  C   UNL     1      42.113 -12.972   5.504  1.00  0.00     0.046 A 
ENDROOT
BRANCH   1   8
HETATM    8  N   UNL     1      42.100 -14.822   7.178  1.00  0.00    -0.309 N 
HETATM    9  C   UNL     1      43.118 -15.700   7.438  1.00  0.00     0.247 C 
HETATM   10  O   UNL     1      43.193 -16.198   8.566  1.00  0.00    -0.271 OA
HETATM   11  H   UNL     1      41.566 -14.561   8.002  1.00  0.00     0.170 HD
BRANCH   9  12
HETATM   12  C   UNL     1      44.194 -15.974   6.394  1.00  0.00     0.278 C 
BRANCH  12  13
HETATM   13  O   UNL     1      44.228 -17.349   6.021  1.00  0.00    -0.342 OA
BRANCH  13  14
HETATM   14  C   UNL     1      43.880 -17.566   4.710  1.00  0.00     0.075 A 
HETATM   15  C   UNL     1      43.586 -16.511   3.838  1.00  0.00     0.044 A 
HETATM   16  C   UNL     1      43.217 -16.766   2.511  1.00  0.00    -0.059 A 
HETATM   17  C   UNL     1      42.900 -15.637   1.577  1.00  0.00     0.048 C 
HETATM   18  C   UNL     1      43.206 -18.088   2.053  1.00  0.00     0.007 A 
HETATM   19  C   UNL     1      43.542 -19.137   2.911  1.00  0.00     0.010 A 
HETATM   20  C   UNL     1      43.881 -18.889   4.248  1.00  0.00    -0.029 A 
HETATM   21  C   UNL     1      44.260 -20.028   5.151  1.00  0.00     0.051 C 
ENDBRANCH  13  14
ENDBRANCH  12  13
ENDBRANCH   9  12
ENDBRANCH   1   8
BRANCH   7  22
HETATM   22  C   UNL     1      43.034 -12.061   6.162  1.00  0.00    -0.020 A 
HETATM   23  C   UNL     1      44.408 -12.327   6.164  1.00  0.00     0.014 A 
HETATM   24  C   UNL     1      45.294 -11.455   6.805  1.00  0.00     0.020 A 
HETATM   25  C   UNL     1      44.807 -10.315   7.441  1.00  0.00     0.011 A 
HETATM   26 BR   UNL     1      46.005  -9.135   8.303  1.00  0.00    -0.051 Br
HETATM   27  C   UNL     1      43.441 -10.039   7.449  1.00  0.00     0.020 A 
HETATM   28  C   UNL     1      42.557 -10.915   6.814  1.00  0.00     0.014 A 
ENDBRANCH   7  22
TORSDOF 5
ENDMDL
MODEL 2
REMARK VINA RESULT:      -8.4      0.869      2.085
REMARK  5 active torsions:
REMARK  status: ('A' for Active; 'I' for Inactive)
REMARK    1  A    between atoms: C_4  and  O_5 
REMARK    2  A    between atoms: O_5  and  C_6 
REMARK    3  A    between atoms: C_6  and  C_7 
REMARK       I    between atoms: C_7  and  N_8 
REMARK    4  A    between atoms: N_8  and  C_9 
REMARK    5  A    between atoms: C_15  and  C_16 
ROOT
HETATM    1  C   UNL     1      41.838 -13.798   5.248  1.00  0.00     0.137 A 
HETATM    2  N   UNL     1      41.227 -14.137   4.068  1.00  0.00    -0.262 N 
HETATM    3  H   UNL     1      40.648 -14.950   3.877  1.00  0.00     0.191 HD
HETATM    4  N   UNL     1      41.396 -13.238   3.086  1.00  0.00    -0.177 NA
HETATM    5  C   UNL     1      42.104 -12.258   3.661  1.00  0.00     0.065 A 
HETATM    6  C   UNL     1      42.511 -11.073   2.866  1.00  0.00     0.073 C 
HETATM    7  C   UNL     1      42.385 -12.545   5.027  1.00  0.00     0.046 A 
ENDROOT
BRANCH   1   8
HETATM    8  N   UNL     1      41.813 -14.538   6.414  1.00  0.00    -0.309 N 
HETATM    9  C   UNL     1      42.612 -15.586   6.789  1.00  0.00     0.247 C 
HETATM   10  O   UNL     1      42.355 -16.176   7.843  1.00  0.00    -0.271 OA
HETATM   11  H   UNL     1      41.146 -14.259   7.127  1.00  0.00     0.170 HD
BRANCH   9  12
HETATM   12  C   UNL     1      43.851 -15.947   5.978  1.00  0.00     0.278 C 
BRANCH  12  13
HETATM   13  O   UNL     1      43.559 -16.045   4.586  1.00  0.00    -0.342 OA
BRANCH  13  14
HETATM   14  C   UNL     1      43.635 -17.328   4.103  1.00  0.00     0.075 A 
HETATM   15  C   UNL     1      43.920 -18.417   4.936  1.00  0.00     0.044 A 
HETATM   16  C   UNL     1      44.007 -19.712   4.410  1.00  0.00    -0.059 A 
HETATM   17  C   UNL     1      44.315 -20.878   5.301  1.00  0.00     0.048 C 
HETATM   18  C   UNL     1      43.746 -19.910   3.051  1.00  0.00     0.007 A 
HETATM   19  C   UNL     1      43.419 -18.830   2.228  1.00  0.00     0.010 A 
HETATM   20  C   UNL     1      43.360 -17.528   2.743  1.00  0.00    -0.029 A 
HETATM   21  C   UNL     1      42.985 -16.382   1.848  1.00  0.00     0.051 C 
ENDBRANCH  13  14
ENDBRANCH  12  13
ENDBRANCH   9  12
ENDBRANCH   1   8
BRANCH   7  22
HETATM   22  C   UNL     1      43.144 -11.783   6.004  1.00  0.00    -0.020 A 
HETATM   23  C   UNL     1      44.480 -12.106   6.268  1.00  0.00     0.014 A 
HETATM   24  C   UNL     1      45.208 -11.379   7.215  1.00  0.00     0.020 A 
HETATM   25  C   UNL     1      44.601 -10.326   7.898  1.00  0.00     0.011 A 
HETATM   26 BR   UNL     1      45.586  -9.341   9.174  1.00  0.00    -0.051 Br
HETATM   27  C   UNL     1      43.271  -9.996   7.647  1.00  0.00     0.020 A 
HETATM   28  C   UNL     1      42.543 -10.727   6.705  1.00  0.00     0.014 A 
ENDBRANCH   7  22
TORSDOF 5
ENDMDL
MODEL 3
REMARK VINA RESULT:      -8.2      1.884      3.137
REMARK  5 active torsions:
REMARK  status: ('A' for Active; 'I' for Inactive)
REMARK    1  A    between atoms: C_4  and  O_5 
REMARK    2  A    between atoms: O_5  and  C_6 
REMARK    3  A    between atoms: C_6  and  C_7 
REMARK       I    between atoms: C_7  and  N_8 
REMARK    4  A    between atoms: N_8  and  C_9 
REMARK    5  A    between atoms: C_15  and  C_16 
ROOT
HETATM    1  C   UNL     1      39.781 -13.349   3.496  1.00  0.00     0.137 A 
HETATM    2  N   UNL     1      38.755 -13.151   2.608  1.00  0.00    -0.262 N 
HETATM    3  H   UNL     1      37.951 -13.748   2.440  1.00  0.00     0.191 HD
HETATM    4  N   UNL     1      38.831 -11.992   1.934  1.00  0.00    -0.177 NA
HETATM    5  C   UNL     1      39.921 -11.397   2.434  1.00  0.00     0.065 A 
HETATM    6  C   UNL     1      40.349 -10.076   1.911  1.00  0.00     0.073 C 
HETATM    7  C   UNL     1      40.540 -12.192   3.439  1.00  0.00     0.046 A 
ENDROOT
BRANCH   1   8
HETATM    8  N   UNL     1      39.937 -14.448   4.319  1.00  0.00    -0.309 N 
HETATM    9  C   UNL     1      40.678 -15.581   4.114  1.00  0.00     0.247 C 
HETATM   10  O   UNL     1      40.601 -16.494   4.943  1.00  0.00    -0.271 OA
HETATM   11  H   UNL     1      39.483 -14.416   5.227  1.00  0.00     0.170 HD
BRANCH   9  12
HETATM   12  C   UNL     1      41.654 -15.671   2.947  1.00  0.00     0.278 C 
BRANCH  12  13
HETATM   13  O   UNL     1      42.997 -15.832   3.395  1.00  0.00    -0.342 OA
BRANCH  13  14
HETATM   14  C   UNL     1      43.363 -17.146   3.556  1.00  0.00     0.075 A 
HETATM   15  C   UNL     1      43.228 -18.083   2.525  1.00  0.00     0.044 A 
HETATM   16  C   UNL     1      43.595 -19.420   2.727  1.00  0.00    -0.059 A 
HETATM   17  C   UNL     1      43.448 -20.426   1.624  1.00  0.00     0.048 C 
HETATM   18  C   UNL     1      44.155 -19.792   3.953  1.00  0.00     0.007 A 
HETATM   19  C   UNL     1      44.331 -18.847   4.967  1.00  0.00     0.010 A 
HETATM   20  C   UNL     1      43.937 -17.515   4.781  1.00  0.00    -0.029 A 
HETATM   21  C   UNL     1      44.153 -16.508   5.874  1.00  0.00     0.051 C 
ENDBRANCH  13  14
ENDBRANCH  12  13
ENDBRANCH   9  12
ENDBRANCH   1   8
BRANCH   7  22
HETATM   22  C   UNL     1      41.747 -11.949   4.211  1.00  0.00    -0.020 A 
HETATM   23  C   UNL     1      41.671 -11.734   5.592  1.00  0.00     0.014 A 
HETATM   24  C   UNL     1      42.832 -11.492   6.333  1.00  0.00     0.020 A 
HETATM   25  C   UNL     1      44.070 -11.466   5.694  1.00  0.00     0.011 A 
HETATM   26 BR   UNL     1      45.639 -11.141   6.696  1.00  0.00    -0.051 Br
HETATM   27  C   UNL     1      44.160 -11.674   4.319  1.00  0.00     0.020 A 
HETATM   28  C   UNL     1      42.999 -11.911   3.579  1.00  0.00     0.014 A 
ENDBRANCH   7  22
TORSDOF 5
ENDMDL
MODEL 4
REMARK VINA RESULT:      -8.0      2.960      4.249
REMARK  5 active torsions:
REMARK  status: ('A' for Active; 'I' for Inactive)
REMARK    1  A    between atoms: C_4  and  O_5 
REMARK    2  A    between atoms: O_5  and  C_6 
REMARK    3  A    between atoms: C_6  and  C_7 
REMARK       I    between atoms: C_7  and  N_8 
REMARK    4  A    between atoms: N_8  and  C_9 
REMARK    5  A    between atoms: C_15  and  C_16 
ROOT
HETATM    1  C   UNL     1      39.929 -14.899   1.931  1.00  0.00     0.137 A 
HETATM    2  N   UNL     1      39.667 -15.673   0.829  1.00  0.00    -0.262 N 
HETATM    3  H   UNL     1      39.416 -16.657   0.804  1.00  0.00     0.191 HD
HETATM    4  N   UNL     1      39.706 -15.002  -0.333  1.00  0.00    -0.177 NA
HETATM    5  C   UNL     1      39.960 -13.738   0.031  1.00  0.00     0.065 A 
HETATM    6  C   UNL     1      40.100 -12.684  -1.004  1.00  0.00     0.073 C 
HETATM    7  C   UNL     1      40.081 -13.611   1.444  1.00  0.00     0.046 A 
ENDROOT
BRANCH   1   8
HETATM    8  N   UNL     1      39.942 -15.336   3.242  1.00  0.00    -0.309 N 
HETATM    9  C   UNL     1      40.969 -15.892   3.956  1.00  0.00     0.247 C 
HETATM   10  O   UNL     1      40.738 -16.306   5.096  1.00  0.00    -0.271 OA
HETATM   11  H   UNL     1      39.095 -15.197   3.786  1.00  0.00     0.170 HD
BRANCH   9  12
HETATM   12  C   UNL     1      42.387 -15.903   3.397  1.00  0.00     0.278 C 
BRANCH  12  13
HETATM   13  O   UNL     1      43.326 -16.393   4.352  1.00  0.00    -0.342 OA
BRANCH  13  14
HETATM   14  C   UNL     1      43.524 -17.749   4.274  1.00  0.00     0.075 A 
HETATM   15  C   UNL     1      43.593 -18.418   3.046  1.00  0.00     0.044 A 
HETATM   16  C   UNL     1      43.779 -19.806   3.000  1.00  0.00    -0.059 A 
HETATM   17  C   UNL     1      43.851 -20.523   1.685  1.00  0.00     0.048 C 
HETATM   18  C   UNL     1      43.955 -20.505   4.198  1.00  0.00     0.007 A 
HETATM   19  C   UNL     1      43.930 -19.832   5.422  1.00  0.00     0.010 A 
HETATM   20  C   UNL     1      43.713 -18.448   5.474  1.00  0.00    -0.029 A 
HETATM   21  C   UNL     1      43.711 -17.738   6.797  1.00  0.00     0.051 C 
ENDBRANCH  13  14
ENDBRANCH  12  13
ENDBRANCH   9  12
ENDBRANCH   1   8
BRANCH   7  22
HETATM   22  C   UNL     1      40.382 -12.444   2.254  1.00  0.00    -0.020 A 
HETATM   23  C   UNL     1      39.353 -11.592   2.674  1.00  0.00     0.014 A 
HETATM   24  C   UNL     1      39.644 -10.464   3.447  1.00  0.00     0.020 A 
HETATM   25  C   UNL     1      40.963 -10.186   3.802  1.00  0.00     0.011 A 
HETATM   26 BR   UNL     1      41.355  -8.663   4.850  1.00  0.00    -0.051 Br
HETATM   27  C   UNL     1      41.997 -11.024   3.388  1.00  0.00     0.020 A 
HETATM   28  C   UNL     1      41.705 -12.148   2.611  1.00  0.00     0.014 A 
ENDBRANCH   7  22
TORSDOF 5
ENDMDL
MODEL 5
REMARK VINA RESULT:      -8.0      2.456      3.954
REMARK  5 active torsions:
REMARK  status: ('A' for Active; 'I' for Inactive)
REMARK    1  A    between atoms: C_4  and  O_5 
REMARK    2  A    between atoms: O_5  and  C_6 
REMARK    3  A    between atoms: C_6  and  C_7 
REMARK       I    between atoms: C_7  and  N_8 
REMARK    4  A    between atoms: N_8  and  C_9 
REMARK    5  A    between atoms: C_15  and  C_16 
ROOT
HETATM    1  C   UNL     1      39.650 -13.069   1.895  1.00  0.00     0.137 A 
HETATM    2  N   UNL     1      38.878 -12.784   0.798  1.00  0.00    -0.262 N 
HETATM    3  H   UNL     1      38.092 -13.315   0.433  1.00  0.00     0.191 HD
HETATM    4  N   UNL     1      39.197 -11.631   0.190  1.00  0.00    -0.177 NA
HETATM    5  C   UNL     1      40.181 -11.127   0.944  1.00  0.00     0.065 A 
HETATM    6  C   UNL     1      40.819  -9.841   0.567  1.00  0.00     0.073 C 
HETATM    7  C   UNL     1      40.487 -11.975   2.045  1.00  0.00     0.046 A 
ENDROOT
BRANCH   1   8
HETATM    8  N   UNL     1      39.526 -14.182   2.705  1.00  0.00    -0.309 N 
HETATM    9  C   UNL     1      40.206 -15.369   2.649  1.00  0.00     0.247 C 
HETATM   10  O   UNL     1      39.869 -16.278   3.414  1.00  0.00    -0.271 OA
HETATM   11  H   UNL     1      38.877 -14.120   3.483  1.00  0.00     0.170 HD
BRANCH   9  12
HETATM   12  C   UNL     1      41.418 -15.529   1.738  1.00  0.00     0.278 C 
BRANCH  12  13
HETATM   13  O   UNL     1      42.640 -15.404   2.461  1.00  0.00    -0.342 OA
BRANCH  13  14
HETATM   14  C   UNL     1      43.076 -16.587   3.003  1.00  0.00     0.075 A 
HETATM   15  C   UNL     1      43.187 -17.755   2.239  1.00  0.00     0.044 A 
HETATM   16  C   UNL     1      43.619 -18.951   2.826  1.00  0.00    -0.059 A 
HETATM   17  C   UNL     1      43.736 -20.203   2.008  1.00  0.00     0.048 C 
HETATM   18  C   UNL     1      43.994 -18.948   4.173  1.00  0.00     0.007 A 
HETATM   19  C   UNL     1      43.925 -17.773   4.925  1.00  0.00     0.010 A 
HETATM   20  C   UNL     1      43.464 -16.581   4.350  1.00  0.00    -0.029 A 
HETATM   21  C   UNL     1      43.416 -15.322   5.168  1.00  0.00     0.051 C 
ENDBRANCH  13  14
ENDBRANCH  12  13
ENDBRANCH   9  12
ENDBRANCH   1   8
BRANCH   7  22
HETATM   22  C   UNL     1      41.495 -11.834   3.082  1.00  0.00    -0.020 A 
HETATM   23  C   UNL     1      42.852 -11.977   2.770  1.00  0.00     0.014 A 
HETATM   24  C   UNL     1      43.822 -11.849   3.769  1.00  0.00     0.020 A 
HETATM   25  C   UNL     1      43.437 -11.577   5.081  1.00  0.00     0.011 A 
HETATM   26 BR   UNL     1      44.748 -11.401   6.430  1.00  0.00    -0.051 Br
HETATM   27  C   UNL     1      42.089 -11.436   5.406  1.00  0.00     0.020 A 
HETATM   28  C   UNL     1      41.120 -11.569   4.407  1.00  0.00     0.014 A 
ENDBRANCH   7  22
TORSDOF 5
ENDMDL
MODEL 6
REMARK VINA RESULT:      -8.0      3.219      4.855
REMARK  5 active torsions:
REMARK  status: ('A' for Active; 'I' for Inactive)
REMARK    1  A    between atoms: C_4  and  O_5 
REMARK    2  A    between atoms: O_5  and  C_6 
REMARK    3  A    between atoms: C_6  and  C_7 
REMARK       I    between atoms: C_7  and  N_8 
REMARK    4  A    between atoms: N_8  and  C_9 
REMARK    5  A    between atoms: C_15  and  C_16 
ROOT
HETATM    1  C   UNL     1      40.861 -13.198   5.341  1.00  0.00     0.137 A 
HETATM    2  N   UNL     1      41.447 -12.631   6.444  1.00  0.00    -0.262 N 
HETATM    3  H   UNL     1      41.593 -13.051   7.358  1.00  0.00     0.191 HD
HETATM    4  N   UNL     1      41.915 -11.390   6.238  1.00  0.00    -0.177 NA
HETATM    5  C   UNL     1      41.665 -11.160   4.944  1.00  0.00     0.065 A 
HETATM    6  C   UNL     1      42.030  -9.854   4.340  1.00  0.00     0.073 C 
HETATM    7  C   UNL     1      41.030 -12.273   4.324  1.00  0.00     0.046 A 
ENDROOT
BRANCH   1   8
HETATM    8  N   UNL     1      40.311 -14.464   5.278  1.00  0.00    -0.309 N 
HETATM    9  C   UNL     1      40.939 -15.680   5.295  1.00  0.00     0.247 C 
HETATM   10  O   UNL     1      40.259 -16.698   5.129  1.00  0.00    -0.271 OA
HETATM   11  H   UNL     1      39.297 -14.529   5.259  1.00  0.00     0.170 HD
BRANCH   9  12
HETATM   12  C   UNL     1      42.426 -15.782   5.616  1.00  0.00     0.278 C 
BRANCH  12  13
HETATM   13  O   UNL     1      43.217 -15.854   4.433  1.00  0.00    -0.342 OA
BRANCH  13  14
HETATM   14  C   UNL     1      43.431 -17.139   3.999  1.00  0.00     0.075 A 
HETATM   15  C   UNL     1      43.728 -18.180   4.886  1.00  0.00     0.044 A 
HETATM   16  C   UNL     1      43.958 -19.478   4.409  1.00  0.00    -0.059 A 
HETATM   17  C   UNL     1      44.280 -20.593   5.359  1.00  0.00     0.048 C 
HETATM   18  C   UNL     1      43.827 -19.730   3.041  1.00  0.00     0.007 A 
HETATM   19  C   UNL     1      43.487 -18.700   2.160  1.00  0.00     0.010 A 
HETATM   20  C   UNL     1      43.286 -17.394   2.628  1.00  0.00    -0.029 A 
HETATM   21  C   UNL     1      42.900 -16.305   1.670  1.00  0.00     0.051 C 
ENDBRANCH  13  14
ENDBRANCH  12  13
ENDBRANCH   9  12
ENDBRANCH   1   8
BRANCH   7  22
HETATM   22  C   UNL     1      40.558 -12.440   2.960  1.00  0.00    -0.020 A 
HETATM   23  C   UNL     1      41.388 -13.015   1.991  1.00  0.00     0.014 A 
HETATM   24  C   UNL     1      40.937 -13.167   0.676  1.00  0.00     0.020 A 
HETATM   25  C   UNL     1      39.654 -12.745   0.329  1.00  0.00     0.011 A 
HETATM   26 BR   UNL     1      39.043 -12.954  -1.446  1.00  0.00    -0.051 Br
HETATM   27  C   UNL     1      38.819 -12.167   1.284  1.00  0.00     0.020 A 
HETATM   28  C   UNL     1      39.273 -12.011   2.596  1.00  0.00     0.014 A 
ENDBRANCH   7  22
TORSDOF 5
ENDMDL
MODEL 7
REMARK VINA RESULT:      -7.9      3.859      5.927
REMARK  5 active torsions:
REMARK  status: ('A' for Active; 'I' for Inactive)
REMARK    1  A    between atoms: C_4  and  O_5 
REMARK    2  A    between atoms: O_5  and  C_6 
REMARK    3  A    between atoms: C_6  and  C_7 
REMARK       I    between atoms: C_7  and  N_8 
REMARK    4  A    between atoms: N_8  and  C_9 
REMARK    5  A    between atoms: C_15  and  C_16 
ROOT
HETATM    1  C   UNL     1      39.636 -13.681   3.047  1.00  0.00     0.137 A 
HETATM    2  N   UNL     1      39.888 -13.673   4.396  1.00  0.00    -0.262 N 
HETATM    3  H   UNL     1      39.890 -14.462   5.035  1.00  0.00     0.191 HD
HETATM    4  N   UNL     1      40.218 -12.466   4.883  1.00  0.00    -0.177 NA
HETATM    5  C   UNL     1      40.223 -11.671   3.805  1.00  0.00     0.065 A 
HETATM    6  C   UNL     1      40.529 -10.226   3.952  1.00  0.00     0.073 C 
HETATM    7  C   UNL     1      39.893 -12.389   2.621  1.00  0.00     0.046 A 
ENDROOT
BRANCH   1   8
HETATM    8  N   UNL     1      39.289 -14.788   2.297  1.00  0.00    -0.309 N 
HETATM    9  C   UNL     1      40.094 -15.636   1.585  1.00  0.00     0.247 C 
HETATM   10  O   UNL     1      39.565 -16.515   0.898  1.00  0.00    -0.271 OA
HETATM   11  H   UNL     1      38.309 -15.056   2.291  1.00  0.00     0.170 HD
BRANCH   9  12
HETATM   12  C   UNL     1      41.611 -15.564   1.722  1.00  0.00     0.278 C 
BRANCH  12  13
HETATM   13  O   UNL     1      42.022 -15.662   3.083  1.00  0.00    -0.342 OA
BRANCH  13  14
HETATM   14  C   UNL     1      42.738 -16.802   3.354  1.00  0.00     0.075 A 
HETATM   15  C   UNL     1      42.791 -17.875   2.456  1.00  0.00     0.044 A 
HETATM   16  C   UNL     1      43.516 -19.031   2.769  1.00  0.00    -0.059 A 
HETATM   17  C   UNL     1      43.570 -20.181   1.808  1.00  0.00     0.048 C 
HETATM   18  C   UNL     1      44.236 -19.075   3.966  1.00  0.00     0.007 A 
HETATM   19  C   UNL     1      44.220 -17.988   4.843  1.00  0.00     0.010 A 
HETATM   20  C   UNL     1      43.471 -16.841   4.548  1.00  0.00    -0.029 A 
HETATM   21  C   UNL     1      43.482 -15.673   5.492  1.00  0.00     0.051 C 
ENDBRANCH  13  14
ENDBRANCH  12  13
ENDBRANCH   9  12
ENDBRANCH   1   8
BRANCH   7  22
HETATM   22  C   UNL     1      39.752 -11.920   1.253  1.00  0.00    -0.020 A 
HETATM   23  C   UNL     1      38.512 -11.466   0.787  1.00  0.00     0.014 A 
HETATM   24  C   UNL     1      38.374 -11.023  -0.532  1.00  0.00     0.020 A 
HETATM   25  C   UNL     1      39.475 -11.030  -1.386  1.00  0.00     0.011 A 
HETATM   26 BR   UNL     1      39.289 -10.428  -3.167  1.00  0.00    -0.051 Br
HETATM   27  C   UNL     1      40.714 -11.483  -0.936  1.00  0.00     0.020 A 
HETATM   28  C   UNL     1      40.849 -11.931   0.381  1.00  0.00     0.014 A 
ENDBRANCH   7  22
TORSDOF 5
ENDMDL
MODEL 8
REMARK VINA RESULT:      -7.8      3.621      5.438
REMARK  5 active torsions:
REMARK  status: ('A' for Active; 'I' for Inactive)
REMARK    1  A    between atoms: C_4  and  O_5 
REMARK    2  A    between atoms: O_5  and  C_6 
REMARK    3  A    between atoms: C_6  and  C_7 
REMARK       I    between atoms: C_7  and  N_8 
REMARK    4  A    between atoms: N_8  and  C_9 
REMARK    5  A    between atoms: C_15  and  C_16 
ROOT
HETATM    1  C   UNL     1      40.306 -13.196  -0.320  1.00  0.00     0.137 A 
HETATM    2  N   UNL     1      40.787 -13.072  -1.598  1.00  0.00    -0.262 N 
HETATM    3  H   UNL     1      40.750 -13.756  -2.349  1.00  0.00     0.191 HD
HETATM    4  N   UNL     1      41.320 -11.869  -1.868  1.00  0.00    -0.177 NA
HETATM    5  C   UNL     1      41.137 -11.173  -0.739  1.00  0.00     0.065 A 
HETATM    6  C   UNL     1      41.625  -9.775  -0.644  1.00  0.00     0.073 C 
HETATM    7  C   UNL     1      40.478 -11.949   0.257  1.00  0.00     0.046 A 
ENDROOT
BRANCH   1   8
HETATM    8  N   UNL     1      39.701 -14.320   0.210  1.00  0.00    -0.309 N 
HETATM    9  C   UNL     1      40.267 -15.360   0.897  1.00  0.00     0.247 C 
HETATM   10  O   UNL     1      39.554 -16.322   1.202  1.00  0.00    -0.271 OA
HETATM   11  H   UNL     1      38.691 -14.386   0.130  1.00  0.00     0.170 HD
BRANCH   9  12
HETATM   12  C   UNL     1      41.715 -15.286   1.367  1.00  0.00     0.278 C 
BRANCH  12  13
HETATM   13  O   UNL     1      41.815 -15.402   2.784  1.00  0.00    -0.342 OA
BRANCH  13  14
HETATM   14  C   UNL     1      42.574 -16.472   3.190  1.00  0.00     0.075 A 
HETATM   15  C   UNL     1      42.693 -17.631   2.416  1.00  0.00     0.044 A 
HETATM   16  C   UNL     1      43.462 -18.713   2.866  1.00  0.00    -0.059 A 
HETATM   17  C   UNL     1      43.587 -19.957   2.038  1.00  0.00     0.048 C 
HETATM   18  C   UNL     1      44.157 -18.593   4.073  1.00  0.00     0.007 A 
HETATM   19  C   UNL     1      44.075 -17.419   4.825  1.00  0.00     0.010 A 
HETATM   20  C   UNL     1      43.282 -16.346   4.394  1.00  0.00    -0.029 A 
HETATM   21  C   UNL     1      43.222 -15.083   5.204  1.00  0.00     0.051 C 
ENDBRANCH  13  14
ENDBRANCH  12  13
ENDBRANCH   9  12
ENDBRANCH   1   8
BRANCH   7  22
HETATM   22  C   UNL     1      40.117 -11.605   1.621  1.00  0.00    -0.020 A 
HETATM   23  C   UNL     1      40.969 -11.936   2.681  1.00  0.00     0.014 A 
HETATM   24  C   UNL     1      40.617 -11.613   3.996  1.00  0.00     0.020 A 
HETATM   25  C   UNL     1      39.414 -10.957   4.251  1.00  0.00     0.011 A 
HETATM   26 BR   UNL     1      38.940 -10.518   6.027  1.00  0.00    -0.051 Br
HETATM   27  C   UNL     1      38.555 -10.626   3.205  1.00  0.00     0.020 A 
HETATM   28  C   UNL     1      38.905 -10.954   1.893  1.00  0.00     0.014 A 
ENDBRANCH   7  22
TORSDOF 5
ENDMDL
MODEL 9
REMARK VINA RESULT:      -7.8      2.504      4.179
REMARK  5 active torsions:
REMARK  status: ('A' for Active; 'I' for Inactive)
REMARK    1  A    between atoms: C_4  and  O_5 
REMARK    2  A    between atoms: O_5  and  C_6 
REMARK    3  A    between atoms: C_6  and  C_7 
REMARK       I    between atoms: C_7  and  N_8 
REMARK    4  A    between atoms: N_8  and  C_9 
REMARK    5  A    between atoms: C_15  and  C_16 
ROOT
HETATM    1  C   UNL     1      42.584 -13.165   6.582  1.00  0.00     0.137 A 
HETATM    2  N   UNL     1      43.410 -13.195   7.676  1.00  0.00    -0.262 N 
HETATM    3  H   UNL     1      43.301 -13.741   8.526  1.00  0.00     0.191 HD
HETATM    4  N   UNL     1      44.510 -12.435   7.552  1.00  0.00    -0.177 NA
HETATM    5  C   UNL     1      44.417 -11.930   6.316  1.00  0.00     0.065 A 
HETATM    6  C   UNL     1      45.463 -11.005   5.813  1.00  0.00     0.073 C 
HETATM    7  C   UNL     1      43.241 -12.379   5.651  1.00  0.00     0.046 A 
ENDROOT
BRANCH   1   8
HETATM    8  N   UNL     1      41.397 -13.861   6.445  1.00  0.00    -0.309 N 
HETATM    9  C   UNL     1      41.199 -15.166   6.082  1.00  0.00     0.247 C 
HETATM   10  O   UNL     1      40.041 -15.565   5.925  1.00  0.00    -0.271 OA
HETATM   11  H   UNL     1      40.541 -13.370   6.684  1.00  0.00     0.170 HD
BRANCH   9  12
HETATM   12  C   UNL     1      42.375 -16.130   5.976  1.00  0.00     0.278 C 
BRANCH  12  13
HETATM   13  O   UNL     1      42.974 -16.091   4.684  1.00  0.00    -0.342 OA
BRANCH  13  14
HETATM   14  C   UNL     1      43.278 -17.334   4.186  1.00  0.00     0.075 A 
HETATM   15  C   UNL     1      43.624 -18.401   5.023  1.00  0.00     0.044 A 
HETATM   16  C   UNL     1      43.946 -19.654   4.483  1.00  0.00    -0.059 A 
HETATM   17  C   UNL     1      44.320 -20.797   5.379  1.00  0.00     0.048 C 
HETATM   18  C   UNL     1      43.857 -19.838   3.100  1.00  0.00     0.007 A 
HETATM   19  C   UNL     1      43.469 -18.785   2.269  1.00  0.00     0.010 A 
HETATM   20  C   UNL     1      43.176 -17.522   2.801  1.00  0.00    -0.029 A 
HETATM   21  C   UNL     1      42.740 -16.408   1.894  1.00  0.00     0.051 C 
ENDBRANCH  13  14
ENDBRANCH  12  13
ENDBRANCH   9  12
ENDBRANCH   1   8
BRANCH   7  22
HETATM   22  C   UNL     1      42.735 -12.056   4.327  1.00  0.00    -0.020 A 
HETATM   23  C   UNL     1      42.163 -10.803   4.077  1.00  0.00     0.014 A 
HETATM   24  C   UNL     1      41.667 -10.496   2.806  1.00  0.00     0.020 A 
HETATM   25  C   UNL     1      41.746 -11.440   1.783  1.00  0.00     0.011 A 
HETATM   26 BR   UNL     1      41.080 -11.022   0.065  1.00  0.00    -0.051 Br
HETATM   27  C   UNL     1      42.309 -12.692   2.020  1.00  0.00     0.020 A 
HETATM   28  C   UNL     1      42.799 -13.000   3.292  1.00  0.00     0.014 A 
ENDBRANCH   7  22
TORSDOF 5
ENDMDL
MODEL 10
REMARK VINA RESULT:      -7.7      2.739      4.231
REMARK  5 active torsions:
REMARK  status: ('A' for Active; 'I' for Inactive)
REMARK    1  A    between atoms: C_4  and  O_5 
REMARK    2  A    between atoms: O_5  and  C_6 
REMARK    3  A    between atoms: C_6  and  C_7 
REMARK       I    between atoms: C_7  and  N_8 
REMARK    4  A    between atoms: N_8  and  C_9 
REMARK    5  A    between atoms: C_15  and  C_16 
ROOT
HETATM    1  C   UNL     1      43.544 -11.580   6.735  1.00  0.00     0.137 A 
HETATM    2  N   UNL     1      44.483 -11.727   5.746  1.00  0.00    -0.262 N 
HETATM    3  H   UNL     1      44.378 -12.196   4.851  1.00  0.00     0.191 HD
HETATM    4  N   UNL     1      45.652 -11.122   6.008  1.00  0.00    -0.177 NA
HETATM    5  C   UNL     1      45.450 -10.524   7.189  1.00  0.00     0.065 A 
HETATM    6  C   UNL     1      46.549  -9.757   7.827  1.00  0.00     0.073 C 
HETATM    7  C   UNL     1      44.133 -10.754   7.677  1.00  0.00     0.046 A 
ENDROOT
BRANCH   1   8
HETATM    8  N   UNL     1      42.260 -12.091   6.713  1.00  0.00    -0.309 N 
HETATM    9  C   UNL     1      41.825 -13.314   6.278  1.00  0.00     0.247 C 
HETATM   10  O   UNL     1      40.610 -13.535   6.256  1.00  0.00    -0.271 OA
HETATM   11  H   UNL     1      41.524 -11.515   7.110  1.00  0.00     0.170 HD
BRANCH   9  12
HETATM   12  C   UNL     1      42.822 -14.414   5.928  1.00  0.00     0.278 C 
BRANCH  12  13
HETATM   13  O   UNL     1      43.174 -14.386   4.547  1.00  0.00    -0.342 OA
BRANCH  13  14
HETATM   14  C   UNL     1      43.314 -15.635   3.996  1.00  0.00     0.075 A 
HETATM   15  C   UNL     1      43.611 -16.759   4.776  1.00  0.00     0.044 A 
HETATM   16  C   UNL     1      43.765 -18.018   4.181  1.00  0.00    -0.059 A 
HETATM   17  C   UNL     1      44.086 -19.222   5.016  1.00  0.00     0.048 C 
HETATM   18  C   UNL     1      43.559 -18.146   2.804  1.00  0.00     0.007 A 
HETATM   19  C   UNL     1      43.220 -17.033   2.032  1.00  0.00     0.010 A 
HETATM   20  C   UNL     1      43.095 -15.766   2.618  1.00  0.00    -0.029 A 
HETATM   21  C   UNL     1      42.708 -14.584   1.776  1.00  0.00     0.051 C 
ENDBRANCH  13  14
ENDBRANCH  12  13
ENDBRANCH   9  12
ENDBRANCH   1   8
BRANCH   7  22
HETATM   22  C   UNL     1      43.509 -10.326   8.917  1.00  0.00    -0.020 A 
HETATM   23  C   UNL     1      42.433  -9.431   8.893  1.00  0.00     0.014 A 
HETATM   24  C   UNL     1      41.837  -9.011  10.086  1.00  0.00     0.020 A 
HETATM   25  C   UNL     1      42.315  -9.488  11.306  1.00  0.00     0.011 A 
HETATM   26 BR   UNL     1      41.508  -8.925  12.918  1.00  0.00    -0.051 Br
HETATM   27  C   UNL     1      43.388 -10.377  11.345  1.00  0.00     0.020 A 
HETATM   28  C   UNL     1      43.986 -10.791  10.151  1.00  0.00     0.014 A 
ENDBRANCH   7  22
TORSDOF 5
ENDMDL
