MODEL 1
REMARK VINA RESULT:      -9.5      0.000      0.000
REMARK  4 active torsions:
REMARK  status: ('A' for Active; 'I' for Inactive)
REMARK    1  A    between atoms: C_5  and  C_6 
REMARK    2  A    between atoms: C_10  and  C_11 
REMARK       I    between atoms: C_11  and  N_12 
REMARK    3  A    between atoms: N_12  and  N_13 
REMARK    4  A    between atoms: C_14  and  C_15 
ROOT
HETATM    1  C   UNL     1      44.646 -11.346   7.859  1.00  0.00     0.289 C 
HETATM    2  N   UNL     1      43.751 -12.370   7.574  1.00  0.00    -0.242 N 
HETATM    3  O   UNL     1      45.738 -11.196   7.316  1.00  0.00    -0.264 OA
HETATM    4  H   UNL     1      43.013 -12.557   8.243  1.00  0.00     0.192 HD
ENDROOT
BRANCH   1   5
HETATM    5  C   UNL     1      44.200 -10.435   8.885  1.00  0.00     0.121 A 
HETATM    6  N   UNL     1      44.026  -9.103   8.630  1.00  0.00    -0.272 N 
HETATM    7  N   UNL     1      43.605  -8.393   9.685  1.00  0.00    -0.174 NA
HETATM    8  H   UNL     1      44.186  -8.626   7.748  1.00  0.00     0.189 HD
HETATM    9  C   UNL     1      43.459  -9.294  10.670  1.00  0.00     0.089 A 
HETATM   10  C   UNL     1      43.837 -10.588  10.209  1.00  0.00     0.071 A 
BRANCH   9  11
HETATM   11  C   UNL     1      42.972  -8.911  11.999  1.00  0.00    -0.006 A 
HETATM   12  C   UNL     1      43.528  -7.827  12.693  1.00  0.00     0.014 A 
HETATM   13  C   UNL     1      43.059  -7.472  13.963  1.00  0.00     0.007 A 
HETATM   14  C   UNL     1      42.026  -8.196  14.566  1.00  0.00    -0.062 A 
HETATM   15  C   UNL     1      41.510  -7.823  15.924  1.00  0.00     0.048 C 
HETATM   16  C   UNL     1      41.466  -9.278  13.879  1.00  0.00     0.007 A 
HETATM   17  C   UNL     1      41.937  -9.632  12.611  1.00  0.00     0.014 A 
ENDBRANCH   9  11
ENDBRANCH   1   5
BRANCH   2  18
HETATM   18  N   UNL     1      43.935 -13.393   6.674  1.00  0.00    -0.183 NA
HETATM   19  C   UNL     1      43.000 -14.278   6.538  1.00  0.00     0.153 C 
BRANCH  19  20
HETATM   20  C   UNL     1      43.155 -15.365   5.585  1.00  0.00     0.018 A 
HETATM   21  C   UNL     1      43.088 -15.238   4.156  1.00  0.00     0.004 A 
HETATM   22  C   UNL     1      43.268 -16.507   3.611  1.00  0.00     0.043 A 
HETATM   23  C   UNL     1      42.886 -14.154   3.273  1.00  0.00     0.014 A 
HETATM   24  C   UNL     1      43.253 -16.753   2.232  1.00  0.00     0.030 A 
HETATM   25  N   UNL     1      43.449 -17.374   4.660  1.00  0.00    -0.358 N 
HETATM   26  C   UNL     1      43.048 -15.664   1.382  1.00  0.00     0.002 A 
HETATM   27  C   UNL     1      42.869 -14.380   1.892  1.00  0.00     0.001 A 
HETATM   28  H   UNL     1      43.606 -18.367   4.556  1.00  0.00     0.166 HD
HETATM   29  C   UNL     1      43.384 -16.709   5.860  1.00  0.00     0.018 A 
HETATM   30  C   UNL     1      43.548 -17.433   7.148  1.00  0.00     0.069 C 
ENDBRANCH  19  20
ENDBRANCH   2  18
TORSDOF 4
ENDMDL
MODEL 2
REMARK VINA RESULT:      -9.4      1.353      2.370
REMARK  4 active torsions:
REMARK  status: ('A' for Active; 'I' for Inactive)
REMARK    1  A    between atoms: C_5  and  C_6 
REMARK    2  A    between atoms: C_10  and  C_11 
REMARK       I    between atoms: C_11  and  N_12 
REMARK    3  A    between atoms: N_12  and  N_13 
REMARK    4  A    between atoms: C_14  and  C_15 
ROOT
HETATM    1  C   UNL     1      44.456 -11.394   7.270  1.00  0.00     0.289 C 
HETATM    2  N   UNL     1      43.416 -12.283   7.025  1.00  0.00    -0.242 N 
HETATM    3  O   UNL     1      45.359 -11.135   6.479  1.00  0.00    -0.264 OA
HETATM    4  H   UNL     1      42.882 -12.621   7.818  1.00  0.00     0.192 HD
ENDROOT
BRANCH   1   5
HETATM    5  C   UNL     1      44.416 -10.777   8.574  1.00  0.00     0.121 A 
HETATM    6  N   UNL     1      45.529 -10.213   9.130  1.00  0.00    -0.272 N 
HETATM    7  N   UNL     1      45.327  -9.677  10.341  1.00  0.00    -0.174 NA
HETATM    8  H   UNL     1      46.458 -10.170   8.723  1.00  0.00     0.189 HD
HETATM    9  C   UNL     1      44.019  -9.861  10.584  1.00  0.00     0.089 A 
HETATM   10  C   UNL     1      43.415 -10.562   9.501  1.00  0.00     0.071 A 
BRANCH   9  11
HETATM   11  C   UNL     1      43.387  -9.375  11.815  1.00  0.00    -0.006 A 
HETATM   12  C   UNL     1      42.437 -10.148  12.498  1.00  0.00     0.014 A 
HETATM   13  C   UNL     1      41.836  -9.674  13.670  1.00  0.00     0.007 A 
HETATM   14  C   UNL     1      42.172  -8.417  14.182  1.00  0.00    -0.062 A 
HETATM   15  C   UNL     1      41.540  -7.899  15.439  1.00  0.00     0.048 C 
HETATM   16  C   UNL     1      43.120  -7.642  13.506  1.00  0.00     0.007 A 
HETATM   17  C   UNL     1      43.717  -8.116  12.334  1.00  0.00     0.014 A 
ENDBRANCH   9  11
ENDBRANCH   1   5
BRANCH   2  18
HETATM   18  N   UNL     1      43.231 -13.035   5.889  1.00  0.00    -0.183 NA
HETATM   19  C   UNL     1      42.500 -14.102   5.961  1.00  0.00     0.153 C 
BRANCH  19  20
HETATM   20  C   UNL     1      42.271 -14.913   4.776  1.00  0.00     0.018 A 
HETATM   21  C   UNL     1      42.949 -16.139   4.462  1.00  0.00     0.004 A 
HETATM   22  C   UNL     1      42.458 -16.590   3.239  1.00  0.00     0.043 A 
HETATM   23  C   UNL     1      43.943 -16.907   5.106  1.00  0.00     0.014 A 
HETATM   24  C   UNL     1      42.909 -17.765   2.624  1.00  0.00     0.030 A 
HETATM   25  N   UNL     1      41.510 -15.686   2.827  1.00  0.00    -0.358 N 
HETATM   26  C   UNL     1      43.894 -18.504   3.282  1.00  0.00     0.002 A 
HETATM   27  C   UNL     1      44.406 -18.085   4.507  1.00  0.00     0.001 A 
HETATM   28  H   UNL     1      40.984 -15.766   1.968  1.00  0.00     0.166 HD
HETATM   29  C   UNL     1      41.381 -14.666   3.737  1.00  0.00     0.018 A 
HETATM   30  C   UNL     1      40.416 -13.557   3.514  1.00  0.00     0.069 C 
ENDBRANCH  19  20
ENDBRANCH   2  18
TORSDOF 4
ENDMDL
MODEL 3
REMARK VINA RESULT:      -9.2      1.206      2.419
REMARK  4 active torsions:
REMARK  status: ('A' for Active; 'I' for Inactive)
REMARK    1  A    between atoms: C_5  and  C_6 
REMARK    2  A    between atoms: C_10  and  C_11 
REMARK       I    between atoms: C_11  and  N_12 
REMARK    3  A    between atoms: N_12  and  N_13 
REMARK    4  A    between atoms: C_14  and  C_15 
ROOT
HETATM    1  C   UNL     1      44.254 -11.674   7.589  1.00  0.00     0.289 C 
HETATM    2  N   UNL     1      43.413 -12.692   7.156  1.00  0.00    -0.242 N 
HETATM    3  O   UNL     1      45.407 -11.504   7.202  1.00  0.00    -0.264 OA
HETATM    4  H   UNL     1      42.594 -12.902   7.714  1.00  0.00     0.192 HD
ENDROOT
BRANCH   1   5
HETATM    5  C   UNL     1      43.667 -10.797   8.573  1.00  0.00     0.121 A 
HETATM    6  N   UNL     1      42.560 -10.047   8.290  1.00  0.00    -0.272 N 
HETATM    7  N   UNL     1      42.136  -9.288   9.310  1.00  0.00    -0.174 NA
HETATM    8  H   UNL     1      42.054 -10.016   7.410  1.00  0.00     0.189 HD
HETATM    9  C   UNL     1      42.973  -9.571  10.320  1.00  0.00     0.089 A 
HETATM   10  C   UNL     1      43.959 -10.506   9.891  1.00  0.00     0.071 A 
BRANCH   9  11
HETATM   11  C   UNL     1      42.819  -8.959  11.644  1.00  0.00    -0.006 A 
HETATM   12  C   UNL     1      43.052  -7.591  11.844  1.00  0.00     0.014 A 
HETATM   13  C   UNL     1      42.906  -7.017  13.112  1.00  0.00     0.007 A 
HETATM   14  C   UNL     1      42.526  -7.800  14.206  1.00  0.00    -0.062 A 
HETATM   15  C   UNL     1      42.361  -7.197  15.569  1.00  0.00     0.048 C 
HETATM   16  C   UNL     1      42.290  -9.165  14.013  1.00  0.00     0.007 A 
HETATM   17  C   UNL     1      42.439  -9.737  12.746  1.00  0.00     0.014 A 
ENDBRANCH   9  11
ENDBRANCH   1   5
BRANCH   2  18
HETATM   18  N   UNL     1      43.724 -13.687   6.259  1.00  0.00    -0.183 NA
HETATM   19  C   UNL     1      42.764 -14.252   5.598  1.00  0.00     0.153 C 
BRANCH  19  20
HETATM   20  C   UNL     1      43.059 -15.297   4.631  1.00  0.00     0.018 A 
HETATM   21  C   UNL     1      43.323 -16.673   4.944  1.00  0.00     0.004 A 
HETATM   22  C   UNL     1      43.575 -17.337   3.746  1.00  0.00     0.043 A 
HETATM   23  C   UNL     1      43.376 -17.416   6.144  1.00  0.00     0.014 A 
HETATM   24  C   UNL     1      43.880 -18.703   3.682  1.00  0.00     0.030 A 
HETATM   25  N   UNL     1      43.458 -16.411   2.739  1.00  0.00    -0.358 N 
HETATM   26  C   UNL     1      43.928 -19.413   4.883  1.00  0.00     0.002 A 
HETATM   27  C   UNL     1      43.679 -18.782   6.099  1.00  0.00     0.001 A 
HETATM   28  H   UNL     1      43.585 -16.618   1.759  1.00  0.00     0.166 HD
HETATM   29  C   UNL     1      43.147 -15.173   3.249  1.00  0.00     0.018 A 
HETATM   30  C   UNL     1      42.971 -13.999   2.354  1.00  0.00     0.069 C 
ENDBRANCH  19  20
ENDBRANCH   2  18
TORSDOF 4
ENDMDL
MODEL 4
REMARK VINA RESULT:      -9.0      6.920     10.607
REMARK  4 active torsions:
REMARK  status: ('A' for Active; 'I' for Inactive)
REMARK    1  A    between atoms: C_5  and  C_6 
REMARK    2  A    between atoms: C_10  and  C_11 
REMARK       I    between atoms: C_11  and  N_12 
REMARK    3  A    between atoms: N_12  and  N_13 
REMARK    4  A    between atoms: C_14  and  C_15 
ROOT
HETATM    1  C   UNL     1      40.352 -14.198   1.403  1.00  0.00     0.289 C 
HETATM    2  N   UNL     1      41.568 -14.871   1.401  1.00  0.00    -0.242 N 
HETATM    3  O   UNL     1      39.433 -14.413   2.189  1.00  0.00    -0.264 OA
HETATM    4  H   UNL     1      42.144 -14.809   0.570  1.00  0.00     0.192 HD
ENDROOT
BRANCH   1   5
HETATM    5  C   UNL     1      40.224 -13.198   0.372  1.00  0.00     0.121 A 
HETATM    6  N   UNL     1      39.043 -13.000  -0.287  1.00  0.00    -0.272 N 
HETATM    7  N   UNL     1      39.086 -12.032  -1.212  1.00  0.00    -0.174 NA
HETATM    8  H   UNL     1      38.174 -13.505  -0.144  1.00  0.00     0.189 HD
HETATM    9  C   UNL     1      40.334 -11.543  -1.140  1.00  0.00     0.089 A 
HETATM   10  C   UNL     1      41.085 -12.260  -0.164  1.00  0.00     0.071 A 
BRANCH   9  11
HETATM   11  C   UNL     1      40.776 -10.427  -1.983  1.00  0.00    -0.006 A 
HETATM   12  C   UNL     1      40.391 -10.335  -3.329  1.00  0.00     0.014 A 
HETATM   13  C   UNL     1      40.820  -9.269  -4.126  1.00  0.00     0.007 A 
HETATM   14  C   UNL     1      41.645  -8.272  -3.595  1.00  0.00    -0.062 A 
HETATM   15  C   UNL     1      42.109  -7.121  -4.437  1.00  0.00     0.048 C 
HETATM   16  C   UNL     1      42.032  -8.357  -2.253  1.00  0.00     0.007 A 
HETATM   17  C   UNL     1      41.603  -9.425  -1.459  1.00  0.00     0.014 A 
ENDBRANCH   9  11
ENDBRANCH   1   5
BRANCH   2  18
HETATM   18  N   UNL     1      41.941 -15.893   2.242  1.00  0.00    -0.183 NA
HETATM   19  C   UNL     1      43.028 -15.763   2.935  1.00  0.00     0.153 C 
BRANCH  19  20
HETATM   20  C   UNL     1      43.445 -16.818   3.845  1.00  0.00     0.018 A 
HETATM   21  C   UNL     1      43.555 -18.210   3.513  1.00  0.00     0.004 A 
HETATM   22  C   UNL     1      43.965 -18.886   4.660  1.00  0.00     0.043 A 
HETATM   23  C   UNL     1      43.339 -18.962   2.337  1.00  0.00     0.014 A 
HETATM   24  C   UNL     1      44.166 -20.272   4.697  1.00  0.00     0.030 A 
HETATM   25  N   UNL     1      44.111 -17.946   5.650  1.00  0.00    -0.358 N 
HETATM   26  C   UNL     1      43.942 -20.991   3.520  1.00  0.00     0.002 A 
HETATM   27  C   UNL     1      43.536 -20.347   2.354  1.00  0.00     0.001 A 
HETATM   28  H   UNL     1      44.405 -18.156   6.594  1.00  0.00     0.166 HD
HETATM   29  C   UNL     1      43.803 -16.692   5.182  1.00  0.00     0.018 A 
HETATM   30  C   UNL     1      43.882 -15.502   6.070  1.00  0.00     0.069 C 
ENDBRANCH  19  20
ENDBRANCH   2  18
TORSDOF 4
ENDMDL
MODEL 5
REMARK VINA RESULT:      -8.8      1.959     10.685
REMARK  4 active torsions:
REMARK  status: ('A' for Active; 'I' for Inactive)
REMARK    1  A    between atoms: C_5  and  C_6 
REMARK    2  A    between atoms: C_10  and  C_11 
REMARK       I    between atoms: C_11  and  N_12 
REMARK    3  A    between atoms: N_12  and  N_13 
REMARK    4  A    between atoms: C_14  and  C_15 
ROOT
HETATM    1  C   UNL     1      43.039 -11.333   6.663  1.00  0.00     0.289 C 
HETATM    2  N   UNL     1      43.425 -10.968   7.947  1.00  0.00    -0.242 N 
HETATM    3  O   UNL     1      42.616 -10.557   5.810  1.00  0.00    -0.264 OA
HETATM    4  H   UNL     1      43.507 -11.698   8.645  1.00  0.00     0.192 HD
ENDROOT
BRANCH   1   5
HETATM    5  C   UNL     1      43.159 -12.744   6.384  1.00  0.00     0.121 A 
HETATM    6  N   UNL     1      43.186 -13.669   7.389  1.00  0.00    -0.272 N 
HETATM    7  N   UNL     1      43.296 -14.936   6.967  1.00  0.00    -0.174 NA
HETATM    8  H   UNL     1      43.135 -13.486   8.387  1.00  0.00     0.189 HD
HETATM    9  C   UNL     1      43.307 -14.851   5.627  1.00  0.00     0.089 A 
HETATM   10  C   UNL     1      43.237 -13.487   5.223  1.00  0.00     0.071 A 
BRANCH   9  11
HETATM   11  C   UNL     1      43.382 -16.046   4.779  1.00  0.00    -0.006 A 
HETATM   12  C   UNL     1      42.854 -16.049   3.480  1.00  0.00     0.014 A 
HETATM   13  C   UNL     1      42.927 -17.195   2.680  1.00  0.00     0.007 A 
HETATM   14  C   UNL     1      43.529 -18.361   3.163  1.00  0.00    -0.062 A 
HETATM   15  C   UNL     1      43.619 -19.594   2.314  1.00  0.00     0.048 C 
HETATM   16  C   UNL     1      44.060 -18.363   4.457  1.00  0.00     0.007 A 
HETATM   17  C   UNL     1      43.983 -17.218   5.256  1.00  0.00     0.014 A 
ENDBRANCH   9  11
ENDBRANCH   1   5
BRANCH   2  18
HETATM   18  N   UNL     1      43.377  -9.706   8.490  1.00  0.00    -0.183 NA
HETATM   19  C   UNL     1      42.418  -9.416   9.311  1.00  0.00     0.153 C 
BRANCH  19  20
HETATM   20  C   UNL     1      42.346  -8.096   9.914  1.00  0.00     0.018 A 
HETATM   21  C   UNL     1      42.513  -7.807  11.311  1.00  0.00     0.004 A 
HETATM   22  C   UNL     1      42.352  -6.433  11.479  1.00  0.00     0.043 A 
HETATM   23  C   UNL     1      42.784  -8.592  12.453  1.00  0.00     0.014 A 
HETATM   24  C   UNL     1      42.443  -5.803  12.727  1.00  0.00     0.030 A 
HETATM   25  N   UNL     1      42.108  -5.901  10.237  1.00  0.00    -0.358 N 
HETATM   26  C   UNL     1      42.709  -6.604  13.840  1.00  0.00     0.002 A 
HETATM   27  C   UNL     1      42.879  -7.980  13.708  1.00  0.00     0.001 A 
HETATM   28  H   UNL     1      41.955  -4.918  10.061  1.00  0.00     0.166 HD
HETATM   29  C   UNL     1      42.099  -6.884   9.278  1.00  0.00     0.018 A 
HETATM   30  C   UNL     1      41.852  -6.558   7.849  1.00  0.00     0.069 C 
ENDBRANCH  19  20
ENDBRANCH   2  18
TORSDOF 4
ENDMDL
MODEL 6
REMARK VINA RESULT:      -8.4      2.621     10.704
REMARK  4 active torsions:
REMARK  status: ('A' for Active; 'I' for Inactive)
REMARK    1  A    between atoms: C_5  and  C_6 
REMARK    2  A    between atoms: C_10  and  C_11 
REMARK       I    between atoms: C_11  and  N_12 
REMARK    3  A    between atoms: N_12  and  N_13 
REMARK    4  A    between atoms: C_14  and  C_15 
ROOT
HETATM    1  C   UNL     1      42.607 -11.675   5.581  1.00  0.00     0.289 C 
HETATM    2  N   UNL     1      42.263 -11.318   6.879  1.00  0.00    -0.242 N 
HETATM    3  O   UNL     1      42.643 -10.903   4.627  1.00  0.00    -0.264 OA
HETATM    4  H   UNL     1      42.012 -12.057   7.525  1.00  0.00     0.192 HD
ENDROOT
BRANCH   1   5
HETATM    5  C   UNL     1      42.919 -13.073   5.412  1.00  0.00     0.121 A 
HETATM    6  N   UNL     1      43.374 -13.833   6.452  1.00  0.00    -0.272 N 
HETATM    7  N   UNL     1      43.614 -15.112   6.135  1.00  0.00    -0.174 NA
HETATM    8  H   UNL     1      43.542 -13.523   7.405  1.00  0.00     0.189 HD
HETATM    9  C   UNL     1      43.271 -15.215   4.841  1.00  0.00     0.089 A 
HETATM   10  C   UNL     1      42.842 -13.949   4.347  1.00  0.00     0.071 A 
BRANCH   9  11
HETATM   11  C   UNL     1      43.357 -16.489   4.119  1.00  0.00    -0.006 A 
HETATM   12  C   UNL     1      42.765 -16.650   2.858  1.00  0.00     0.014 A 
HETATM   13  C   UNL     1      42.849 -17.871   2.177  1.00  0.00     0.007 A 
HETATM   14  C   UNL     1      43.525 -18.955   2.746  1.00  0.00    -0.062 A 
HETATM   15  C   UNL     1      43.626 -20.267   2.026  1.00  0.00     0.048 C 
HETATM   16  C   UNL     1      44.118 -18.800   4.003  1.00  0.00     0.007 A 
HETATM   17  C   UNL     1      44.031 -17.580   4.682  1.00  0.00     0.014 A 
ENDBRANCH   9  11
ENDBRANCH   1   5
BRANCH   2  18
HETATM   18  N   UNL     1      41.885 -10.069   7.313  1.00  0.00    -0.183 NA
HETATM   19  C   UNL     1      42.797  -9.256   7.744  1.00  0.00     0.153 C 
BRANCH  19  20
HETATM   20  C   UNL     1      42.434  -7.923   8.197  1.00  0.00     0.018 A 
HETATM   21  C   UNL     1      42.455  -7.471   9.559  1.00  0.00     0.004 A 
HETATM   22  C   UNL     1      42.022  -6.147   9.571  1.00  0.00     0.043 A 
HETATM   23  C   UNL     1      42.802  -8.071  10.790  1.00  0.00     0.014 A 
HETATM   24  C   UNL     1      41.913  -5.392  10.745  1.00  0.00     0.030 A 
HETATM   25  N   UNL     1      41.758  -5.799   8.269  1.00  0.00    -0.358 N 
HETATM   26  C   UNL     1      42.259  -6.011  11.949  1.00  0.00     0.002 A 
HETATM   27  C   UNL     1      42.699  -7.332  11.974  1.00  0.00     0.001 A 
HETATM   28  H   UNL     1      41.429  -4.888   7.981  1.00  0.00     0.166 HD
HETATM   29  C   UNL     1      41.998  -6.853   7.423  1.00  0.00     0.018 A 
HETATM   30  C   UNL     1      41.782  -6.725   5.958  1.00  0.00     0.069 C 
ENDBRANCH  19  20
ENDBRANCH   2  18
TORSDOF 4
ENDMDL
MODEL 7
REMARK VINA RESULT:      -8.4      6.989     11.623
REMARK  4 active torsions:
REMARK  status: ('A' for Active; 'I' for Inactive)
REMARK    1  A    between atoms: C_5  and  C_6 
REMARK    2  A    between atoms: C_10  and  C_11 
REMARK       I    between atoms: C_11  and  N_12 
REMARK    3  A    between atoms: N_12  and  N_13 
REMARK    4  A    between atoms: C_14  and  C_15 
ROOT
HETATM    1  C   UNL     1      40.963 -13.100   0.314  1.00  0.00     0.289 C 
HETATM    2  N   UNL     1      41.297 -14.447   0.389  1.00  0.00    -0.242 N 
HETATM    3  O   UNL     1      41.405 -12.226   1.053  1.00  0.00    -0.264 OA
HETATM    4  H   UNL     1      40.694 -15.114  -0.080  1.00  0.00     0.192 HD
ENDROOT
BRANCH   1   5
HETATM    5  C   UNL     1      40.013 -12.780  -0.724  1.00  0.00     0.121 A 
HETATM    6  N   UNL     1      40.315 -12.953  -2.045  1.00  0.00    -0.272 N 
HETATM    7  N   UNL     1      39.326 -12.614  -2.884  1.00  0.00    -0.174 NA
HETATM    8  H   UNL     1      41.189 -13.299  -2.430  1.00  0.00     0.189 HD
HETATM    9  C   UNL     1      38.315 -12.235  -2.086  1.00  0.00     0.089 A 
HETATM   10  C   UNL     1      38.714 -12.312  -0.721  1.00  0.00     0.071 A 
BRANCH   9  11
HETATM   11  C   UNL     1      37.019 -11.816  -2.630  1.00  0.00    -0.006 A 
HETATM   12  C   UNL     1      36.205 -12.711  -3.340  1.00  0.00     0.014 A 
HETATM   13  C   UNL     1      34.971 -12.302  -3.858  1.00  0.00     0.007 A 
HETATM   14  C   UNL     1      34.527 -10.988  -3.679  1.00  0.00    -0.062 A 
HETATM   15  C   UNL     1      33.205 -10.537  -4.225  1.00  0.00     0.048 C 
HETATM   16  C   UNL     1      35.333 -10.090  -2.971  1.00  0.00     0.007 A 
HETATM   17  C   UNL     1      36.567 -10.501  -2.456  1.00  0.00     0.014 A 
ENDBRANCH   9  11
ENDBRANCH   1   5
BRANCH   2  18
HETATM   18  N   UNL     1      42.142 -15.033   1.301  1.00  0.00    -0.183 NA
HETATM   19  C   UNL     1      41.667 -15.933   2.102  1.00  0.00     0.153 C 
BRANCH  19  20
HETATM   20  C   UNL     1      42.535 -16.584   3.070  1.00  0.00     0.018 A 
HETATM   21  C   UNL     1      42.986 -17.945   3.003  1.00  0.00     0.004 A 
HETATM   22  C   UNL     1      43.781 -18.182   4.122  1.00  0.00     0.043 A 
HETATM   23  C   UNL     1      42.787 -19.004   2.090  1.00  0.00     0.014 A 
HETATM   24  C   UNL     1      44.383 -19.420   4.381  1.00  0.00     0.030 A 
HETATM   25  N   UNL     1      43.825 -17.011   4.839  1.00  0.00    -0.358 N 
HETATM   26  C   UNL     1      44.167 -20.450   3.464  1.00  0.00     0.002 A 
HETATM   27  C   UNL     1      43.381 -20.248   2.332  1.00  0.00     0.001 A 
HETATM   28  H   UNL     1      44.336 -16.893   5.703  1.00  0.00     0.166 HD
HETATM   29  C   UNL     1      43.081 -16.034   4.224  1.00  0.00     0.018 A 
HETATM   30  C   UNL     1      42.970 -14.672   4.811  1.00  0.00     0.069 C 
ENDBRANCH  19  20
ENDBRANCH   2  18
TORSDOF 4
ENDMDL
MODEL 8
REMARK VINA RESULT:      -8.3      7.309     10.929
REMARK  4 active torsions:
REMARK  status: ('A' for Active; 'I' for Inactive)
REMARK    1  A    between atoms: C_5  and  C_6 
REMARK    2  A    between atoms: C_10  and  C_11 
REMARK       I    between atoms: C_11  and  N_12 
REMARK    3  A    between atoms: N_12  and  N_13 
REMARK    4  A    between atoms: C_14  and  C_15 
ROOT
HETATM    1  C   UNL     1      42.358 -12.005   2.134  1.00  0.00     0.289 C 
HETATM    2  N   UNL     1      41.487 -12.007   1.052  1.00  0.00    -0.242 N 
HETATM    3  O   UNL     1      42.939 -11.013   2.566  1.00  0.00    -0.264 OA
HETATM    4  H   UNL     1      41.269 -12.896   0.618  1.00  0.00     0.192 HD
ENDROOT
BRANCH   1   5
HETATM    5  C   UNL     1      42.560 -13.300   2.738  1.00  0.00     0.121 A 
HETATM    6  N   UNL     1      42.360 -13.502   4.075  1.00  0.00    -0.272 N 
HETATM    7  N   UNL     1      42.585 -14.760   4.479  1.00  0.00    -0.174 NA
HETATM    8  H   UNL     1      42.072 -12.809   4.759  1.00  0.00     0.189 HD
HETATM    9  C   UNL     1      42.912 -15.427   3.362  1.00  0.00     0.089 A 
HETATM   10  C   UNL     1      42.920 -14.539   2.247  1.00  0.00     0.071 A 
BRANCH   9  11
HETATM   11  C   UNL     1      43.202 -16.865   3.378  1.00  0.00    -0.006 A 
HETATM   12  C   UNL     1      42.905 -17.679   2.276  1.00  0.00     0.014 A 
HETATM   13  C   UNL     1      43.182 -19.050   2.302  1.00  0.00     0.007 A 
HETATM   14  C   UNL     1      43.760 -19.636   3.433  1.00  0.00    -0.062 A 
HETATM   15  C   UNL     1      44.067 -21.104   3.472  1.00  0.00     0.048 C 
HETATM   16  C   UNL     1      44.060 -18.829   4.535  1.00  0.00     0.007 A 
HETATM   17  C   UNL     1      43.780 -17.459   4.508  1.00  0.00     0.014 A 
ENDBRANCH   9  11
ENDBRANCH   1   5
BRANCH   2  18
HETATM   18  N   UNL     1      41.146 -10.927   0.272  1.00  0.00    -0.183 NA
HETATM   19  C   UNL     1      41.417 -10.964  -0.994  1.00  0.00     0.153 C 
BRANCH  19  20
HETATM   20  C   UNL     1      41.058  -9.846  -1.851  1.00  0.00     0.018 A 
HETATM   21  C   UNL     1      41.817  -8.637  -2.007  1.00  0.00     0.004 A 
HETATM   22  C   UNL     1      41.126  -7.818  -2.898  1.00  0.00     0.043 A 
HETATM   23  C   UNL     1      43.032  -8.161  -1.468  1.00  0.00     0.014 A 
HETATM   24  C   UNL     1      41.582  -6.548  -3.274  1.00  0.00     0.030 A 
HETATM   25  N   UNL     1      39.998  -8.500  -3.280  1.00  0.00    -0.358 N 
HETATM   26  C   UNL     1      42.785  -6.101  -2.723  1.00  0.00     0.002 A 
HETATM   27  C   UNL     1      43.504  -6.895  -1.832  1.00  0.00     0.001 A 
HETATM   28  H   UNL     1      39.310  -8.142  -3.928  1.00  0.00     0.166 HD
HETATM   29  C   UNL     1      39.935  -9.724  -2.662  1.00  0.00     0.018 A 
HETATM   30  C   UNL     1      38.800 -10.652  -2.912  1.00  0.00     0.069 C 
ENDBRANCH  19  20
ENDBRANCH   2  18
TORSDOF 4
ENDMDL
MODEL 9
REMARK VINA RESULT:      -8.2      2.655     10.355
REMARK  4 active torsions:
REMARK  status: ('A' for Active; 'I' for Inactive)
REMARK    1  A    between atoms: C_5  and  C_6 
REMARK    2  A    between atoms: C_10  and  C_11 
REMARK       I    between atoms: C_11  and  N_12 
REMARK    3  A    between atoms: N_12  and  N_13 
REMARK    4  A    between atoms: C_14  and  C_15 
ROOT
HETATM    1  C   UNL     1      42.993 -11.221   6.595  1.00  0.00     0.289 C 
HETATM    2  N   UNL     1      43.392 -10.855   7.874  1.00  0.00    -0.242 N 
HETATM    3  O   UNL     1      42.557 -10.447   5.747  1.00  0.00    -0.264 OA
HETATM    4  H   UNL     1      43.485 -11.585   8.571  1.00  0.00     0.192 HD
ENDROOT
BRANCH   1   5
HETATM    5  C   UNL     1      43.114 -12.632   6.315  1.00  0.00     0.121 A 
HETATM    6  N   UNL     1      43.173 -13.556   7.320  1.00  0.00    -0.272 N 
HETATM    7  N   UNL     1      43.281 -14.822   6.897  1.00  0.00    -0.174 NA
HETATM    8  H   UNL     1      43.147 -13.372   8.319  1.00  0.00     0.189 HD
HETATM    9  C   UNL     1      43.257 -14.739   5.557  1.00  0.00     0.089 A 
HETATM   10  C   UNL     1      43.167 -13.376   5.153  1.00  0.00     0.071 A 
BRANCH   9  11
HETATM   11  C   UNL     1      43.317 -15.934   4.709  1.00  0.00    -0.006 A 
HETATM   12  C   UNL     1      42.866 -15.907   3.381  1.00  0.00     0.014 A 
HETATM   13  C   UNL     1      42.925 -17.053   2.580  1.00  0.00     0.007 A 
HETATM   14  C   UNL     1      43.434 -18.251   3.092  1.00  0.00    -0.062 A 
HETATM   15  C   UNL     1      43.507 -19.485   2.243  1.00  0.00     0.048 C 
HETATM   16  C   UNL     1      43.887 -18.284   4.415  1.00  0.00     0.007 A 
HETATM   17  C   UNL     1      43.826 -17.138   5.214  1.00  0.00     0.014 A 
ENDBRANCH   9  11
ENDBRANCH   1   5
BRANCH   2  18
HETATM   18  N   UNL     1      43.347  -9.593   8.418  1.00  0.00    -0.183 NA
HETATM   19  C   UNL     1      42.519  -9.361   9.386  1.00  0.00     0.153 C 
BRANCH  19  20
HETATM   20  C   UNL     1      42.455  -8.041   9.994  1.00  0.00     0.018 A 
HETATM   21  C   UNL     1      42.024  -6.841   9.335  1.00  0.00     0.004 A 
HETATM   22  C   UNL     1      42.127  -5.797  10.252  1.00  0.00     0.043 A 
HETATM   23  C   UNL     1      41.556  -6.544   8.036  1.00  0.00     0.014 A 
HETATM   24  C   UNL     1      41.793  -4.473   9.940  1.00  0.00     0.030 A 
HETATM   25  N   UNL     1      42.591  -6.337  11.426  1.00  0.00    -0.358 N 
HETATM   26  C   UNL     1      41.336  -4.207   8.647  1.00  0.00     0.002 A 
HETATM   27  C   UNL     1      41.217  -5.227   7.706  1.00  0.00     0.001 A 
HETATM   28  H   UNL     1      42.758  -5.805  12.269  1.00  0.00     0.166 HD
HETATM   29  C   UNL     1      42.796  -7.688  11.295  1.00  0.00     0.018 A 
HETATM   30  C   UNL     1      43.302  -8.501  12.432  1.00  0.00     0.069 C 
ENDBRANCH  19  20
ENDBRANCH   2  18
TORSDOF 4
ENDMDL
MODEL 10
REMARK VINA RESULT:      -8.1     18.747     20.440
REMARK  4 active torsions:
REMARK  status: ('A' for Active; 'I' for Inactive)
REMARK    1  A    between atoms: C_5  and  C_6 
REMARK    2  A    between atoms: C_10  and  C_11 
REMARK       I    between atoms: C_11  and  N_12 
REMARK    3  A    between atoms: N_12  and  N_13 
REMARK    4  A    between atoms: C_14  and  C_15 
ROOT
HETATM    1  C   UNL     1      41.863 -30.419   3.000  1.00  0.00     0.289 C 
HETATM    2  N   UNL     1      43.106 -29.953   3.411  1.00  0.00    -0.242 N 
HETATM    3  O   UNL     1      41.401 -30.284   1.870  1.00  0.00    -0.264 OA
HETATM    4  H   UNL     1      43.282 -29.882   4.406  1.00  0.00     0.192 HD
ENDROOT
BRANCH   1   5
HETATM    5  C   UNL     1      41.109 -31.091   4.031  1.00  0.00     0.121 A 
HETATM    6  N   UNL     1      41.475 -31.016   5.345  1.00  0.00    -0.272 N 
HETATM    7  N   UNL     1      40.671 -31.690   6.179  1.00  0.00    -0.174 NA
HETATM    8  H   UNL     1      42.273 -30.516   5.728  1.00  0.00     0.189 HD
HETATM    9  C   UNL     1      39.714 -32.204   5.391  1.00  0.00     0.089 A 
HETATM   10  C   UNL     1      39.962 -31.860   4.031  1.00  0.00     0.071 A 
BRANCH   9  11
HETATM   11  C   UNL     1      38.605 -32.993   5.939  1.00  0.00    -0.006 A 
HETATM   12  C   UNL     1      38.612 -33.429   7.272  1.00  0.00     0.014 A 
HETATM   13  C   UNL     1      37.552 -34.185   7.785  1.00  0.00     0.007 A 
HETATM   14  C   UNL     1      36.463 -34.521   6.974  1.00  0.00    -0.062 A 
HETATM   15  C   UNL     1      35.318 -35.326   7.512  1.00  0.00     0.048 C 
HETATM   16  C   UNL     1      36.449 -34.088   5.644  1.00  0.00     0.007 A 
HETATM   17  C   UNL     1      37.511 -33.335   5.133  1.00  0.00     0.014 A 
ENDBRANCH   9  11
ENDBRANCH   1   5
BRANCH   2  18
HETATM   18  N   UNL     1      44.009 -29.248   2.651  1.00  0.00    -0.183 NA
HETATM   19  C   UNL     1      44.881 -29.903   1.953  1.00  0.00     0.153 C 
BRANCH  19  20
HETATM   20  C   UNL     1      45.842 -29.190   1.127  1.00  0.00     0.018 A 
HETATM   21  C   UNL     1      45.675 -28.875  -0.264  1.00  0.00     0.004 A 
HETATM   22  C   UNL     1      46.822 -28.207  -0.686  1.00  0.00     0.043 A 
HETATM   23  C   UNL     1      44.650 -29.102  -1.208  1.00  0.00     0.014 A 
HETATM   24  C   UNL     1      47.002 -27.757  -2.000  1.00  0.00     0.030 A 
HETATM   25  N   UNL     1      47.653 -28.106   0.403  1.00  0.00    -0.358 N 
HETATM   26  C   UNL     1      45.973 -27.998  -2.914  1.00  0.00     0.002 A 
HETATM   27  C   UNL     1      44.811 -28.660  -2.526  1.00  0.00     0.001 A 
HETATM   28  H   UNL     1      48.559 -27.660   0.387  1.00  0.00     0.166 HD
HETATM   29  C   UNL     1      47.083 -28.691   1.507  1.00  0.00     0.018 A 
HETATM   30  C   UNL     1      47.792 -28.714   2.814  1.00  0.00     0.069 C 
ENDBRANCH  19  20
ENDBRANCH   2  18
TORSDOF 4
ENDMDL
