MODEL 1
REMARK VINA RESULT:      -8.5      0.000      0.000
REMARK  5 active torsions:
REMARK  status: ('A' for Active; 'I' for Inactive)
REMARK    1  A    between atoms: C_5  and  N_6 
REMARK    2  A    between atoms: N_6  and  C_7 
REMARK    3  A    between atoms: C_7  and  C_8 
REMARK       I    between atoms: C_8  and  N_9 
REMARK    4  A    between atoms: N_9  and  N_10 
REMARK    5  A    between atoms: C_11  and  C_12 
ROOT
HETATM    1  C   UNL     1      44.373 -11.653   7.668  1.00  0.00     0.250 C 
HETATM    2  N   UNL     1      43.425 -12.663   7.567  1.00  0.00    -0.246 N 
HETATM    3  O   UNL     1      45.421 -11.599   7.026  1.00  0.00    -0.270 OA
HETATM    4  H   UNL     1      42.559 -12.600   8.093  1.00  0.00     0.192 HD
ENDROOT
BRANCH   2   5
HETATM    5  N   UNL     1      43.685 -13.733   6.759  1.00  0.00    -0.184 NA
HETATM    6  C   UNL     1      42.944 -14.781   6.909  1.00  0.00     0.152 C 
BRANCH   6   7
HETATM    7  C   UNL     1      43.212 -15.949   6.091  1.00  0.00     0.011 A 
HETATM    8  C   UNL     1      43.186 -16.053   4.662  1.00  0.00     0.004 A 
HETATM    9  C   UNL     1      43.488 -17.379   4.334  1.00  0.00     0.043 A 
HETATM   10  C   UNL     1      42.928 -15.148   3.611  1.00  0.00     0.014 A 
HETATM   11  C   UNL     1      43.542 -17.842   3.014  1.00  0.00     0.030 A 
HETATM   12  N   UNL     1      43.697 -18.051   5.512  1.00  0.00    -0.364 N 
HETATM   13  C   UNL     1      43.283 -16.924   1.993  1.00  0.00     0.002 A 
HETATM   14  C   UNL     1      42.981 -15.596   2.284  1.00  0.00     0.001 A 
HETATM   15  H   UNL     1      43.934 -19.033   5.582  1.00  0.00     0.165 HD
HETATM   16  C   UNL     1      43.534 -17.205   6.574  1.00  0.00     0.102 A 
ENDBRANCH   6   7
ENDBRANCH   2   5
BRANCH   1  17
HETATM   17  C   UNL     1      44.019 -10.587   8.704  1.00  0.00     0.197 C 
BRANCH  17  18
HETATM   18  N   UNL     1      43.768 -11.184  10.025  1.00  0.00    -0.284 NA
HETATM   19  H   UNL     1      43.045 -11.906   9.989  1.00  0.00     0.128 HD
BRANCH  18  20
HETATM   20  C   UNL     1      43.525 -10.321  11.110  1.00  0.00     0.008 A 
HETATM   21  C   UNL     1      42.779 -10.672  12.241  1.00  0.00     0.024 A 
HETATM   22  C   UNL     1      42.498  -9.739  13.248  1.00  0.00     0.008 A 
HETATM   23  C   UNL     1      42.928  -8.415  13.132  1.00  0.00    -0.062 A 
HETATM   24  C   UNL     1      42.575  -7.392  14.171  1.00  0.00     0.048 C 
HETATM   25  C   UNL     1      43.652  -8.046  11.996  1.00  0.00     0.008 A 
HETATM   26  C   UNL     1      43.940  -8.987  11.000  1.00  0.00     0.024 A 
ENDBRANCH  18  20
ENDBRANCH  17  18
ENDBRANCH   1  17
TORSDOF 5
ENDMDL
MODEL 2
REMARK VINA RESULT:      -8.3      1.260      1.818
REMARK  5 active torsions:
REMARK  status: ('A' for Active; 'I' for Inactive)
REMARK    1  A    between atoms: C_5  and  N_6 
REMARK    2  A    between atoms: N_6  and  C_7 
REMARK    3  A    between atoms: C_7  and  C_8 
REMARK       I    between atoms: C_8  and  N_9 
REMARK    4  A    between atoms: N_9  and  N_10 
REMARK    5  A    between atoms: C_11  and  C_12 
ROOT
HETATM    1  C   UNL     1      44.510 -11.458   7.043  1.00  0.00     0.250 C 
HETATM    2  N   UNL     1      43.425 -12.324   7.100  1.00  0.00    -0.246 N 
HETATM    3  O   UNL     1      45.154 -11.195   6.029  1.00  0.00    -0.270 OA
HETATM    4  H   UNL     1      42.914 -12.439   7.969  1.00  0.00     0.192 HD
ENDROOT
BRANCH   2   5
HETATM    5  N   UNL     1      43.072 -13.012   5.975  1.00  0.00    -0.184 NA
HETATM    6  C   UNL     1      43.238 -14.293   5.988  1.00  0.00     0.152 C 
BRANCH   6   7
HETATM    7  C   UNL     1      42.904 -15.054   4.800  1.00  0.00     0.011 A 
HETATM    8  C   UNL     1      43.353 -16.365   4.432  1.00  0.00     0.004 A 
HETATM    9  C   UNL     1      42.782 -16.669   3.192  1.00  0.00     0.043 A 
HETATM   10  C   UNL     1      44.196 -17.323   5.032  1.00  0.00     0.014 A 
HETATM   11  C   UNL     1      43.015 -17.878   2.524  1.00  0.00     0.030 A 
HETATM   12  N   UNL     1      42.013 -15.594   2.823  1.00  0.00    -0.364 N 
HETATM   13  C   UNL     1      43.854 -18.808   3.141  1.00  0.00     0.002 A 
HETATM   14  C   UNL     1      44.437 -18.539   4.378  1.00  0.00     0.001 A 
HETATM   15  H   UNL     1      41.479 -15.534   1.966  1.00  0.00     0.165 HD
HETATM   16  C   UNL     1      42.077 -14.618   3.779  1.00  0.00     0.102 A 
ENDBRANCH   6   7
ENDBRANCH   2   5
BRANCH   1  17
HETATM   17  C   UNL     1      44.881 -10.858   8.399  1.00  0.00     0.197 C 
BRANCH  17  18
HETATM   18  N   UNL     1      43.941 -11.280   9.449  1.00  0.00    -0.284 NA
HETATM   19  H   UNL     1      43.046 -11.585   9.063  1.00  0.00     0.128 HD
BRANCH  18  20
HETATM   20  C   UNL     1      43.721 -10.411  10.533  1.00  0.00     0.008 A 
HETATM   21  C   UNL     1      43.295 -10.828  11.800  1.00  0.00     0.024 A 
HETATM   22  C   UNL     1      43.007  -9.903  12.814  1.00  0.00     0.008 A 
HETATM   23  C   UNL     1      43.103  -8.531  12.574  1.00  0.00    -0.062 A 
HETATM   24  C   UNL     1      42.733  -7.533  13.630  1.00  0.00     0.048 C 
HETATM   25  C   UNL     1      43.503  -8.101  11.307  1.00  0.00     0.008 A 
HETATM   26  C   UNL     1      43.801  -9.031  10.303  1.00  0.00     0.024 A 
ENDBRANCH  18  20
ENDBRANCH  17  18
ENDBRANCH   1  17
TORSDOF 5
ENDMDL
MODEL 3
REMARK VINA RESULT:      -8.1      6.419      9.288
REMARK  5 active torsions:
REMARK  status: ('A' for Active; 'I' for Inactive)
REMARK    1  A    between atoms: C_5  and  N_6 
REMARK    2  A    between atoms: N_6  and  C_7 
REMARK    3  A    between atoms: C_7  and  C_8 
REMARK       I    between atoms: C_8  and  N_9 
REMARK    4  A    between atoms: N_9  and  N_10 
REMARK    5  A    between atoms: C_11  and  C_12 
ROOT
HETATM    1  C   UNL     1      41.263 -12.763   3.141  1.00  0.00     0.250 C 
HETATM    2  N   UNL     1      42.353 -13.517   2.724  1.00  0.00    -0.246 N 
HETATM    3  O   UNL     1      40.705 -12.868   4.232  1.00  0.00    -0.270 OA
HETATM    4  H   UNL     1      42.789 -13.326   1.827  1.00  0.00     0.192 HD
ENDROOT
BRANCH   2   5
HETATM    5  N   UNL     1      42.814 -14.514   3.535  1.00  0.00    -0.184 NA
HETATM    6  C   UNL     1      42.969 -15.683   3.008  1.00  0.00     0.152 C 
BRANCH   6   7
HETATM    7  C   UNL     1      43.426 -16.774   3.847  1.00  0.00     0.011 A 
HETATM    8  C   UNL     1      43.520 -18.166   3.517  1.00  0.00     0.004 A 
HETATM    9  C   UNL     1      43.992 -18.833   4.652  1.00  0.00     0.043 A 
HETATM   10  C   UNL     1      43.244 -18.926   2.362  1.00  0.00     0.014 A 
HETATM   11  C   UNL     1      44.197 -20.218   4.688  1.00  0.00     0.030 A 
HETATM   12  N   UNL     1      44.184 -17.889   5.629  1.00  0.00    -0.364 N 
HETATM   13  C   UNL     1      43.916 -20.946   3.530  1.00  0.00     0.002 A 
HETATM   14  C   UNL     1      43.447 -20.313   2.382  1.00  0.00     0.001 A 
HETATM   15  H   UNL     1      44.523 -18.085   6.562  1.00  0.00     0.165 HD
HETATM   16  C   UNL     1      43.848 -16.649   5.159  1.00  0.00     0.102 A 
ENDBRANCH   6   7
ENDBRANCH   2   5
BRANCH   1  17
HETATM   17  C   UNL     1      40.767 -11.777   2.084  1.00  0.00     0.197 C 
BRANCH  17  18
HETATM   18  N   UNL     1      41.337 -12.073   0.761  1.00  0.00    -0.284 NA
HETATM   19  H   UNL     1      41.753 -11.247   0.329  1.00  0.00     0.128 HD
BRANCH  18  20
HETATM   20  C   UNL     1      40.531 -12.745  -0.176  1.00  0.00     0.008 A 
HETATM   21  C   UNL     1      40.197 -14.102  -0.096  1.00  0.00     0.024 A 
HETATM   22  C   UNL     1      39.463 -14.734  -1.109  1.00  0.00     0.008 A 
HETATM   23  C   UNL     1      39.074 -14.030  -2.251  1.00  0.00    -0.062 A 
HETATM   24  C   UNL     1      38.347 -14.713  -3.371  1.00  0.00     0.048 C 
HETATM   25  C   UNL     1      39.422 -12.682  -2.355  1.00  0.00     0.008 A 
HETATM   26  C   UNL     1      40.144 -12.054  -1.333  1.00  0.00     0.024 A 
ENDBRANCH  18  20
ENDBRANCH  17  18
ENDBRANCH   1  17
TORSDOF 5
ENDMDL
MODEL 4
REMARK VINA RESULT:      -8.0      5.881      9.413
REMARK  5 active torsions:
REMARK  status: ('A' for Active; 'I' for Inactive)
REMARK    1  A    between atoms: C_5  and  N_6 
REMARK    2  A    between atoms: N_6  and  C_7 
REMARK    3  A    between atoms: C_7  and  C_8 
REMARK       I    between atoms: C_8  and  N_9 
REMARK    4  A    between atoms: N_9  and  N_10 
REMARK    5  A    between atoms: C_11  and  C_12 
ROOT
HETATM    1  C   UNL     1      41.426 -14.438   4.875  1.00  0.00     0.250 C 
HETATM    2  N   UNL     1      40.497 -14.923   3.962  1.00  0.00    -0.246 N 
HETATM    3  O   UNL     1      41.775 -13.263   4.973  1.00  0.00    -0.270 OA
HETATM    4  H   UNL     1      40.223 -15.900   3.988  1.00  0.00     0.192 HD
ENDROOT
BRANCH   2   5
HETATM    5  N   UNL     1      39.974 -14.067   3.036  1.00  0.00    -0.184 NA
HETATM    6  C   UNL     1      40.232 -14.308   1.794  1.00  0.00     0.152 C 
BRANCH   6   7
HETATM    7  C   UNL     1      39.720 -13.402   0.784  1.00  0.00     0.011 A 
HETATM    8  C   UNL     1      39.362 -13.698  -0.572  1.00  0.00     0.004 A 
HETATM    9  C   UNL     1      38.941 -12.502  -1.163  1.00  0.00     0.043 A 
HETATM   10  C   UNL     1      39.361 -14.868  -1.359  1.00  0.00     0.014 A 
HETATM   11  C   UNL     1      38.524 -12.420  -2.497  1.00  0.00     0.030 A 
HETATM   12  N   UNL     1      39.031 -11.521  -0.207  1.00  0.00    -0.364 N 
HETATM   13  C   UNL     1      38.533 -13.594  -3.253  1.00  0.00     0.002 A 
HETATM   14  C   UNL     1      38.943 -14.803  -2.695  1.00  0.00     0.001 A 
HETATM   15  H   UNL     1      38.790 -10.550  -0.352  1.00  0.00     0.165 HD
HETATM   16  C   UNL     1      39.497 -12.048   0.966  1.00  0.00     0.102 A 
ENDBRANCH   6   7
ENDBRANCH   2   5
BRANCH   1  17
HETATM   17  C   UNL     1      42.031 -15.525   5.762  1.00  0.00     0.197 C 
BRANCH  17  18
HETATM   18  N   UNL     1      43.395 -15.872   5.334  1.00  0.00    -0.284 NA
HETATM   19  H   UNL     1      43.908 -15.057   4.992  1.00  0.00     0.128 HD
BRANCH  18  20
HETATM   20  C   UNL     1      43.559 -16.947   4.441  1.00  0.00     0.008 A 
HETATM   21  C   UNL     1      43.178 -16.915   3.095  1.00  0.00     0.024 A 
HETATM   22  C   UNL     1      43.287 -18.050   2.279  1.00  0.00     0.008 A 
HETATM   23  C   UNL     1      43.749 -19.261   2.800  1.00  0.00    -0.062 A 
HETATM   24  C   UNL     1      43.806 -20.497   1.954  1.00  0.00     0.048 C 
HETATM   25  C   UNL     1      44.109 -19.312   4.149  1.00  0.00     0.008 A 
HETATM   26  C   UNL     1      44.009 -18.171   4.955  1.00  0.00     0.024 A 
ENDBRANCH  18  20
ENDBRANCH  17  18
ENDBRANCH   1  17
TORSDOF 5
ENDMDL
MODEL 5
REMARK VINA RESULT:      -7.9      7.000      9.811
REMARK  5 active torsions:
REMARK  status: ('A' for Active; 'I' for Inactive)
REMARK    1  A    between atoms: C_5  and  N_6 
REMARK    2  A    between atoms: N_6  and  C_7 
REMARK    3  A    between atoms: C_7  and  C_8 
REMARK       I    between atoms: C_8  and  N_9 
REMARK    4  A    between atoms: N_9  and  N_10 
REMARK    5  A    between atoms: C_11  and  C_12 
ROOT
HETATM    1  C   UNL     1      40.385 -14.839   0.747  1.00  0.00     0.250 C 
HETATM    2  N   UNL     1      41.401 -14.453   1.612  1.00  0.00    -0.246 N 
HETATM    3  O   UNL     1      39.752 -15.891   0.823  1.00  0.00    -0.270 OA
HETATM    4  H   UNL     1      41.833 -13.540   1.511  1.00  0.00     0.192 HD
ENDROOT
BRANCH   2   5
HETATM    5  N   UNL     1      41.805 -15.322   2.584  1.00  0.00    -0.184 NA
HETATM    6  C   UNL     1      42.964 -15.875   2.439  1.00  0.00     0.152 C 
BRANCH   6   7
HETATM    7  C   UNL     1      43.413 -16.828   3.436  1.00  0.00     0.011 A 
HETATM    8  C   UNL     1      43.539 -18.250   3.306  1.00  0.00     0.004 A 
HETATM    9  C   UNL     1      43.988 -18.743   4.536  1.00  0.00     0.043 A 
HETATM   10  C   UNL     1      43.310 -19.170   2.263  1.00  0.00     0.014 A 
HETATM   11  C   UNL     1      44.214 -20.105   4.773  1.00  0.00     0.030 A 
HETATM   12  N   UNL     1      44.136 -17.667   5.376  1.00  0.00    -0.364 N 
HETATM   13  C   UNL     1      43.979 -20.993   3.721  1.00  0.00     0.002 A 
HETATM   14  C   UNL     1      43.534 -20.536   2.482  1.00  0.00     0.001 A 
HETATM   15  H   UNL     1      44.449 -17.724   6.337  1.00  0.00     0.165 HD
HETATM   16  C   UNL     1      43.794 -16.513   4.728  1.00  0.00     0.102 A 
ENDBRANCH   6   7
ENDBRANCH   2   5
BRANCH   1  17
HETATM   17  C   UNL     1      40.124 -13.833  -0.373  1.00  0.00     0.197 C 
BRANCH  17  18
HETATM   18  N   UNL     1      41.145 -12.774  -0.393  1.00  0.00    -0.284 NA
HETATM   19  H   UNL     1      41.303 -12.376   0.534  1.00  0.00     0.128 HD
BRANCH  18  20
HETATM   20  C   UNL     1      41.014 -11.741  -1.339  1.00  0.00     0.008 A 
HETATM   21  C   UNL     1      40.602 -11.935  -2.663  1.00  0.00     0.024 A 
HETATM   22  C   UNL     1      40.578 -10.876  -3.581  1.00  0.00     0.008 A 
HETATM   23  C   UNL     1      40.999  -9.598  -3.207  1.00  0.00    -0.062 A 
HETATM   24  C   UNL     1      41.040  -8.475  -4.200  1.00  0.00     0.048 C 
HETATM   25  C   UNL     1      41.436  -9.397  -1.896  1.00  0.00     0.008 A 
HETATM   26  C   UNL     1      41.446 -10.457  -0.980  1.00  0.00     0.024 A 
ENDBRANCH  18  20
ENDBRANCH  17  18
ENDBRANCH   1  17
TORSDOF 5
ENDMDL
MODEL 6
REMARK VINA RESULT:      -7.7      6.998     10.194
REMARK  5 active torsions:
REMARK  status: ('A' for Active; 'I' for Inactive)
REMARK    1  A    between atoms: C_5  and  N_6 
REMARK    2  A    between atoms: N_6  and  C_7 
REMARK    3  A    between atoms: C_7  and  C_8 
REMARK       I    between atoms: C_8  and  N_9 
REMARK    4  A    between atoms: N_9  and  N_10 
REMARK    5  A    between atoms: C_11  and  C_12 
ROOT
HETATM    1  C   UNL     1      41.550 -13.987   2.302  1.00  0.00     0.250 C 
HETATM    2  N   UNL     1      41.650 -14.379   0.973  1.00  0.00    -0.246 N 
HETATM    3  O   UNL     1      40.740 -13.172   2.740  1.00  0.00    -0.270 OA
HETATM    4  H   UNL     1      42.310 -15.102   0.706  1.00  0.00     0.192 HD
ENDROOT
BRANCH   2   5
HETATM    5  N   UNL     1      40.854 -13.772   0.044  1.00  0.00    -0.184 NA
HETATM    6  C   UNL     1      39.875 -14.463  -0.440  1.00  0.00     0.152 C 
BRANCH   6   7
HETATM    7  C   UNL     1      39.028 -13.862  -1.452  1.00  0.00     0.011 A 
HETATM    8  C   UNL     1      38.246 -12.665  -1.354  1.00  0.00     0.004 A 
HETATM    9  C   UNL     1      37.581 -12.501  -2.574  1.00  0.00     0.043 A 
HETATM   10  C   UNL     1      38.033 -11.706  -0.344  1.00  0.00     0.014 A 
HETATM   11  C   UNL     1      36.715 -11.430  -2.829  1.00  0.00     0.030 A 
HETATM   12  N   UNL     1      37.948 -13.548  -3.382  1.00  0.00    -0.364 N 
HETATM   13  C   UNL     1      36.523 -10.494  -1.810  1.00  0.00     0.002 A 
HETATM   14  C   UNL     1      37.172 -10.626  -0.585  1.00  0.00     0.001 A 
HETATM   15  H   UNL     1      37.619 -13.689  -4.329  1.00  0.00     0.165 HD
HETATM   16  C   UNL     1      38.816 -14.372  -2.721  1.00  0.00     0.102 A 
ENDBRANCH   6   7
ENDBRANCH   2   5
BRANCH   1  17
HETATM   17  C   UNL     1      42.587 -14.645   3.210  1.00  0.00     0.197 C 
BRANCH  17  18
HETATM   18  N   UNL     1      43.264 -15.762   2.532  1.00  0.00    -0.284 NA
HETATM   19  H   UNL     1      42.849 -15.966   1.621  1.00  0.00     0.128 HD
BRANCH  18  20
HETATM   20  C   UNL     1      43.453 -16.959   3.248  1.00  0.00     0.008 A 
HETATM   21  C   UNL     1      43.732 -17.019   4.618  1.00  0.00     0.024 A 
HETATM   22  C   UNL     1      43.998 -18.239   5.255  1.00  0.00     0.008 A 
HETATM   23  C   UNL     1      44.028 -19.431   4.527  1.00  0.00    -0.062 A 
HETATM   24  C   UNL     1      44.378 -20.732   5.186  1.00  0.00     0.048 C 
HETATM   25  C   UNL     1      43.776 -19.381   3.154  1.00  0.00     0.008 A 
HETATM   26  C   UNL     1      43.498 -18.160   2.527  1.00  0.00     0.024 A 
ENDBRANCH  18  20
ENDBRANCH  17  18
ENDBRANCH   1  17
TORSDOF 5
ENDMDL
MODEL 7
REMARK VINA RESULT:      -7.6      6.276      9.779
REMARK  5 active torsions:
REMARK  status: ('A' for Active; 'I' for Inactive)
REMARK    1  A    between atoms: C_5  and  N_6 
REMARK    2  A    between atoms: N_6  and  C_7 
REMARK    3  A    between atoms: C_7  and  C_8 
REMARK       I    between atoms: C_8  and  N_9 
REMARK    4  A    between atoms: N_9  and  N_10 
REMARK    5  A    between atoms: C_11  and  C_12 
ROOT
HETATM    1  C   UNL     1      41.100 -14.121   3.487  1.00  0.00     0.250 C 
HETATM    2  N   UNL     1      40.107 -14.681   2.693  1.00  0.00    -0.246 N 
HETATM    3  O   UNL     1      41.663 -13.050   3.266  1.00  0.00    -0.270 OA
HETATM    4  H   UNL     1      39.654 -15.543   2.979  1.00  0.00     0.192 HD
ENDROOT
BRANCH   2   5
HETATM    5  N   UNL     1      39.763 -14.056   1.528  1.00  0.00    -0.184 NA
HETATM    6  C   UNL     1      40.172 -14.593   0.426  1.00  0.00     0.152 C 
BRANCH   6   7
HETATM    7  C   UNL     1      39.854 -13.939  -0.830  1.00  0.00     0.011 A 
HETATM    8  C   UNL     1      40.249 -12.635  -1.274  1.00  0.00     0.004 A 
HETATM    9  C   UNL     1      39.685 -12.436  -2.538  1.00  0.00     0.043 A 
HETATM   10  C   UNL     1      41.030 -11.599  -0.721  1.00  0.00     0.014 A 
HETATM   11  C   UNL     1      39.859 -11.255  -3.270  1.00  0.00     0.030 A 
HETATM   12  N   UNL     1      38.982 -13.572  -2.854  1.00  0.00    -0.364 N 
HETATM   13  C   UNL     1      40.637 -10.246  -2.698  1.00  0.00     0.002 A 
HETATM   14  C   UNL     1      41.217 -10.413  -1.442  1.00  0.00     0.001 A 
HETATM   15  H   UNL     1      38.468 -13.711  -3.714  1.00  0.00     0.165 HD
HETATM   16  C   UNL     1      39.076 -14.482  -1.837  1.00  0.00     0.102 A 
ENDBRANCH   6   7
ENDBRANCH   2   5
BRANCH   1  17
HETATM   17  C   UNL     1      41.480 -14.988   4.686  1.00  0.00     0.197 C 
BRANCH  17  18
HETATM   18  N   UNL     1      42.886 -15.413   4.618  1.00  0.00    -0.284 NA
HETATM   19  H   UNL     1      43.496 -14.670   4.272  1.00  0.00     0.128 HD
BRANCH  18  20
HETATM   20  C   UNL     1      43.186 -16.620   3.960  1.00  0.00     0.008 A 
HETATM   21  C   UNL     1      42.669 -16.983   2.711  1.00  0.00     0.024 A 
HETATM   22  C   UNL     1      42.936 -18.239   2.148  1.00  0.00     0.008 A 
HETATM   23  C   UNL     1      43.701 -19.181   2.840  1.00  0.00    -0.062 A 
HETATM   24  C   UNL     1      43.936 -20.551   2.277  1.00  0.00     0.048 C 
HETATM   25  C   UNL     1      44.202 -18.840   4.098  1.00  0.00     0.008 A 
HETATM   26  C   UNL     1      43.942 -17.579   4.648  1.00  0.00     0.024 A 
ENDBRANCH  18  20
ENDBRANCH  17  18
ENDBRANCH   1  17
TORSDOF 5
ENDMDL
MODEL 8
REMARK VINA RESULT:      -7.5      6.896      9.780
REMARK  5 active torsions:
REMARK  status: ('A' for Active; 'I' for Inactive)
REMARK    1  A    between atoms: C_5  and  N_6 
REMARK    2  A    between atoms: N_6  and  C_7 
REMARK    3  A    between atoms: C_7  and  C_8 
REMARK       I    between atoms: C_8  and  N_9 
REMARK    4  A    between atoms: N_9  and  N_10 
REMARK    5  A    between atoms: C_11  and  C_12 
ROOT
HETATM    1  C   UNL     1      40.820 -14.482   0.679  1.00  0.00     0.250 C 
HETATM    2  N   UNL     1      42.148 -14.379   1.076  1.00  0.00    -0.246 N 
HETATM    3  O   UNL     1      40.083 -15.438   0.916  1.00  0.00    -0.270 OA
HETATM    4  H   UNL     1      42.668 -13.528   0.888  1.00  0.00     0.192 HD
ENDROOT
BRANCH   2   5
HETATM    5  N   UNL     1      42.731 -15.438   1.710  1.00  0.00    -0.184 NA
HETATM    6  C   UNL     1      42.614 -15.496   2.996  1.00  0.00     0.152 C 
BRANCH   6   7
HETATM    7  C   UNL     1      43.248 -16.589   3.707  1.00  0.00     0.011 A 
HETATM    8  C   UNL     1      43.342 -17.964   3.314  1.00  0.00     0.004 A 
HETATM    9  C   UNL     1      44.023 -18.643   4.330  1.00  0.00     0.043 A 
HETATM   10  C   UNL     1      42.910 -18.701   2.192  1.00  0.00     0.014 A 
HETATM   11  C   UNL     1      44.288 -20.017   4.280  1.00  0.00     0.030 A 
HETATM   12  N   UNL     1      44.336 -17.721   5.297  1.00  0.00    -0.364 N 
HETATM   13  C   UNL     1      43.848 -20.723   3.158  1.00  0.00     0.002 A 
HETATM   14  C   UNL     1      43.170 -20.077   2.126  1.00  0.00     0.001 A 
HETATM   15  H   UNL     1      44.833 -17.929   6.154  1.00  0.00     0.165 HD
HETATM   16  C   UNL     1      43.877 -16.484   4.936  1.00  0.00     0.102 A 
ENDBRANCH   6   7
ENDBRANCH   2   5
BRANCH   1  17
HETATM   17  C   UNL     1      40.334 -13.285  -0.136  1.00  0.00     0.197 C 
BRANCH  17  18
HETATM   18  N   UNL     1      39.097 -12.720   0.423  1.00  0.00    -0.284 NA
HETATM   19  H   UNL     1      38.566 -13.411   0.956  1.00  0.00     0.128 HD
BRANCH  18  20
HETATM   20  C   UNL     1      38.235 -12.020  -0.441  1.00  0.00     0.008 A 
HETATM   21  C   UNL     1      38.192 -12.204  -1.828  1.00  0.00     0.024 A 
HETATM   22  C   UNL     1      37.373 -11.412  -2.644  1.00  0.00     0.008 A 
HETATM   23  C   UNL     1      36.599 -10.387  -2.096  1.00  0.00    -0.062 A 
HETATM   24  C   UNL     1      35.771  -9.490  -2.968  1.00  0.00     0.048 C 
HETATM   25  C   UNL     1      36.652 -10.176  -0.716  1.00  0.00     0.008 A 
HETATM   26  C   UNL     1      37.463 -10.980   0.095  1.00  0.00     0.024 A 
ENDBRANCH  18  20
ENDBRANCH  17  18
ENDBRANCH   1  17
TORSDOF 5
ENDMDL
MODEL 9
REMARK VINA RESULT:      -7.4      2.412      9.920
REMARK  5 active torsions:
REMARK  status: ('A' for Active; 'I' for Inactive)
REMARK    1  A    between atoms: C_5  and  N_6 
REMARK    2  A    between atoms: N_6  and  C_7 
REMARK    3  A    between atoms: C_7  and  C_8 
REMARK       I    between atoms: C_8  and  N_9 
REMARK    4  A    between atoms: N_9  and  N_10 
REMARK    5  A    between atoms: C_11  and  C_12 
ROOT
HETATM    1  C   UNL     1      41.292 -13.651   5.317  1.00  0.00     0.250 C 
HETATM    2  N   UNL     1      41.609 -12.327   5.038  1.00  0.00    -0.246 N 
HETATM    3  O   UNL     1      40.799 -14.054   6.369  1.00  0.00    -0.270 OA
HETATM    4  H   UNL     1      41.960 -12.073   4.120  1.00  0.00     0.192 HD
ENDROOT
BRANCH   2   5
HETATM    5  N   UNL     1      41.445 -11.390   6.017  1.00  0.00    -0.184 NA
HETATM    6  C   UNL     1      42.509 -10.815   6.470  1.00  0.00     0.152 C 
BRANCH   6   7
HETATM    7  C   UNL     1      42.377  -9.837   7.533  1.00  0.00     0.011 A 
HETATM    8  C   UNL     1      43.150  -9.726   8.735  1.00  0.00     0.004 A 
HETATM    9  C   UNL     1      42.640  -8.644   9.461  1.00  0.00     0.043 A 
HETATM   10  C   UNL     1      44.233 -10.444   9.281  1.00  0.00     0.014 A 
HETATM   11  C   UNL     1      43.156  -8.251  10.702  1.00  0.00     0.030 A 
HETATM   12  N   UNL     1      41.606  -8.115   8.729  1.00  0.00    -0.364 N 
HETATM   13  C   UNL     1      44.229  -8.980  11.219  1.00  0.00     0.002 A 
HETATM   14  C   UNL     1      44.763 -10.061  10.521  1.00  0.00     0.001 A 
HETATM   15  H   UNL     1      41.048  -7.318   9.011  1.00  0.00     0.165 HD
HETATM   16  C   UNL     1      41.437  -8.821   7.571  1.00  0.00     0.102 A 
ENDBRANCH   6   7
ENDBRANCH   2   5
BRANCH   1  17
HETATM   17  C   UNL     1      41.649 -14.613   4.185  1.00  0.00     0.197 C 
BRANCH  17  18
HETATM   18  N   UNL     1      42.950 -15.258   4.418  1.00  0.00    -0.284 NA
HETATM   19  H   UNL     1      43.730 -14.669   4.118  1.00  0.00     0.128 HD
BRANCH  18  20
HETATM   20  C   UNL     1      43.137 -16.571   3.946  1.00  0.00     0.008 A 
HETATM   21  C   UNL     1      43.942 -17.526   4.577  1.00  0.00     0.024 A 
HETATM   22  C   UNL     1      44.158 -18.789   4.009  1.00  0.00     0.008 A 
HETATM   23  C   UNL     1      43.601 -19.118   2.771  1.00  0.00    -0.062 A 
HETATM   24  C   UNL     1      43.880 -20.441   2.123  1.00  0.00     0.048 C 
HETATM   25  C   UNL     1      42.815 -18.165   2.119  1.00  0.00     0.008 A 
HETATM   26  C   UNL     1      42.593 -16.909   2.699  1.00  0.00     0.024 A 
ENDBRANCH  18  20
ENDBRANCH  17  18
ENDBRANCH   1  17
TORSDOF 5
ENDMDL
MODEL 10
REMARK VINA RESULT:      -7.2      2.166      2.416
REMARK  5 active torsions:
REMARK  status: ('A' for Active; 'I' for Inactive)
REMARK    1  A    between atoms: C_5  and  N_6 
REMARK    2  A    between atoms: N_6  and  C_7 
REMARK    3  A    between atoms: C_7  and  C_8 
REMARK       I    between atoms: C_8  and  N_9 
REMARK    4  A    between atoms: N_9  and  N_10 
REMARK    5  A    between atoms: C_11  and  C_12 
ROOT
HETATM    1  C   UNL     1      43.000 -11.047   7.096  1.00  0.00     0.250 C 
HETATM    2  N   UNL     1      43.223 -12.416   7.017  1.00  0.00    -0.246 N 
HETATM    3  O   UNL     1      41.992 -10.469   6.691  1.00  0.00    -0.270 OA
HETATM    4  H   UNL     1      44.059 -12.819   7.428  1.00  0.00     0.192 HD
ENDROOT
BRANCH   2   5
HETATM    5  N   UNL     1      42.306 -13.198   6.374  1.00  0.00    -0.184 NA
HETATM    6  C   UNL     1      42.712 -13.861   5.342  1.00  0.00     0.152 C 
BRANCH   6   7
HETATM    7  C   UNL     1      41.758 -14.676   4.615  1.00  0.00     0.011 A 
HETATM    8  C   UNL     1      41.415 -14.609   3.225  1.00  0.00     0.004 A 
HETATM    9  C   UNL     1      40.434 -15.577   2.990  1.00  0.00     0.043 A 
HETATM   10  C   UNL     1      41.841 -13.814   2.141  1.00  0.00     0.014 A 
HETATM   11  C   UNL     1      39.857 -15.785   1.731  1.00  0.00     0.030 A 
HETATM   12  N   UNL     1      40.194 -16.212   4.183  1.00  0.00    -0.364 N 
HETATM   13  C   UNL     1      40.298 -14.984   0.675  1.00  0.00     0.002 A 
HETATM   14  C   UNL     1      41.276 -14.012   0.874  1.00  0.00     0.001 A 
HETATM   15  H   UNL     1      39.528 -16.962   4.314  1.00  0.00     0.165 HD
HETATM   16  C   UNL     1      40.982 -15.680   5.167  1.00  0.00     0.102 A 
ENDBRANCH   6   7
ENDBRANCH   2   5
BRANCH   1  17
HETATM   17  C   UNL     1      44.163 -10.277   7.718  1.00  0.00     0.197 C 
BRANCH  17  18
HETATM   18  N   UNL     1      44.583 -10.875   8.995  1.00  0.00    -0.284 NA
HETATM   19  H   UNL     1      44.417 -11.883   9.019  1.00  0.00     0.128 HD
BRANCH  18  20
HETATM   20  C   UNL     1      44.122 -10.288  10.188  1.00  0.00     0.008 A 
HETATM   21  C   UNL     1      43.615 -11.011  11.274  1.00  0.00     0.024 A 
HETATM   22  C   UNL     1      43.089 -10.363  12.400  1.00  0.00     0.008 A 
HETATM   23  C   UNL     1      43.024  -8.969  12.454  1.00  0.00    -0.062 A 
HETATM   24  C   UNL     1      42.402  -8.267  13.624  1.00  0.00     0.048 C 
HETATM   25  C   UNL     1      43.504  -8.236  11.366  1.00  0.00     0.008 A 
HETATM   26  C   UNL     1      44.039  -8.890  10.250  1.00  0.00     0.024 A 
ENDBRANCH  18  20
ENDBRANCH  17  18
ENDBRANCH   1  17
TORSDOF 5
ENDMDL
