MODEL 1
REMARK VINA RESULT:      -8.7      0.000      0.000
REMARK  10 active torsions:
REMARK  status: ('A' for Active; 'I' for Inactive)
REMARK    1  A    between atoms: C_6  and  C_7 
REMARK    2  A    between atoms: C_7  and  C_8 
REMARK       I    between atoms: C_8  and  N_9 
REMARK    3  A    between atoms: N_9  and  C_10 
REMARK    4  A    between atoms: C_10  and  C_11 
REMARK    5  A    between atoms: C_11  and  N_12 
REMARK    6  A    between atoms: C_17  and  C_18 
REMARK    7  A    between atoms: C_27  and  C_28 
REMARK    8  A    between atoms: C_28  and  O_29 
REMARK    9  A    between atoms: O_29  and  C_30 
REMARK   10  A    between atoms: C_30  and  C_31 
ROOT
HETATM    1  C   UNL     1      39.973 -16.078   6.717  1.00  0.00     0.071 C 
HETATM    2  C   UNL     1      40.407 -14.816   6.004  1.00  0.00     0.048 C 
HETATM    3  N   UNL     1      39.525 -13.762   6.190  1.00  0.00    -0.229 NA
HETATM    4  C   UNL     1      39.982 -12.577   5.973  1.00  0.00     0.170 C 
HETATM    5  N   UNL     1      41.310 -12.272   5.223  1.00  0.00    -0.318 N 
HETATM    6  C   UNL     1      41.637 -11.026   5.309  1.00  0.00     0.011 C 
HETATM    7  C   UNL     1      41.805 -13.442   4.469  1.00  0.00     0.168 C 
HETATM    8  S   UNL     1      39.218 -11.119   6.506  1.00  0.00    -0.086 SA
HETATM    9  C   UNL     1      40.758 -10.188   6.208  1.00  0.00     0.135 C 
HETATM   10  C   UNL     1      41.594 -14.638   5.375  1.00  0.00     0.069 C 
ENDROOT
BRANCH   6  11
HETATM   11  C   UNL     1      42.800 -10.457   4.556  1.00  0.00     0.156 C 
BRANCH  11  12
HETATM   12  C   UNL     1      44.150 -11.049   4.901  1.00  0.00     0.223 C 
HETATM   13  N   UNL     1      44.389 -11.124   6.251  1.00  0.00    -0.359 N 
HETATM   14  H   UNL     1      43.700 -10.711   6.875  1.00  0.00     0.162 HD
HETATM   15  O   UNL     1      44.952 -11.402   4.044  1.00  0.00    -0.273 OA
BRANCH  13  16
HETATM   16  C   UNL     1      45.689 -11.375   6.873  1.00  0.00     0.150 C 
BRANCH  16  17
HETATM   17  C   UNL     1      46.183 -10.356   7.918  1.00  0.00     0.253 C 
BRANCH  17  18
HETATM   18  N   UNL     1      45.079  -9.796   8.790  1.00  0.00    -0.077 N 
HETATM   19  H   UNL     1      44.187 -10.214   8.458  1.00  0.00     0.279 HD
HETATM   20  C   UNL     1      45.203 -10.145  10.248  1.00  0.00     0.269 C 
HETATM   21  C   UNL     1      44.964  -8.307   8.610  1.00  0.00     0.269 C 
ENDBRANCH  17  18
ENDBRANCH  16  17
ENDBRANCH  13  16
ENDBRANCH  11  12
ENDBRANCH   6  11
BRANCH   7  22
HETATM   22  C   UNL     1      41.121 -13.580   3.086  1.00  0.00    -0.009 A 
HETATM   23  C   UNL     1      41.724 -14.308   2.033  1.00  0.00     0.042 A 
HETATM   24 CL   UNL     1      43.278 -15.041   2.178  1.00  0.00    -0.084 Cl
HETATM   25  C   UNL     1      41.093 -14.456   0.789  1.00  0.00     0.024 A 
HETATM   26  C   UNL     1      39.862 -13.859   0.546  1.00  0.00     0.002 A 
HETATM   27  C   UNL     1      39.258 -13.109   1.543  1.00  0.00     0.001 A 
HETATM   28  C   UNL     1      39.875 -12.970   2.792  1.00  0.00     0.011 A 
ENDBRANCH   7  22
BRANCH  10  29
HETATM   29  C   UNL     1      42.865 -15.295   5.817  1.00  0.00     0.294 C 
HETATM   30  O   UNL     1      43.560 -14.809   6.699  1.00  0.00    -0.259 OA
BRANCH  29  31
HETATM   31  O   UNL     1      42.910 -16.576   5.400  1.00  0.00    -0.313 OA
BRANCH  31  32
HETATM   32  C   UNL     1      44.208 -17.137   5.150  1.00  0.00     0.217 C 
BRANCH  32  33
HETATM   33  C   UNL     1      44.088 -18.454   4.406  1.00  0.00    -0.034 A 
HETATM   34  C   UNL     1      44.165 -19.695   5.063  1.00  0.00     0.009 A 
HETATM   35  C   UNL     1      44.003 -20.893   4.363  1.00  0.00     0.001 A 
HETATM   36  C   UNL     1      43.720 -20.866   3.001  1.00  0.00     0.000 A 
HETATM   37  C   UNL     1      43.597 -19.645   2.343  1.00  0.00     0.001 A 
HETATM   38  C   UNL     1      43.791 -18.447   3.036  1.00  0.00     0.009 A 
ENDBRANCH  32  33
ENDBRANCH  31  32
ENDBRANCH  29  31
ENDBRANCH  10  29
TORSDOF 10
ENDMDL
MODEL 2
REMARK VINA RESULT:      -8.6      2.442      3.764
REMARK  10 active torsions:
REMARK  status: ('A' for Active; 'I' for Inactive)
REMARK    1  A    between atoms: C_6  and  C_7 
REMARK    2  A    between atoms: C_7  and  C_8 
REMARK       I    between atoms: C_8  and  N_9 
REMARK    3  A    between atoms: N_9  and  C_10 
REMARK    4  A    between atoms: C_10  and  C_11 
REMARK    5  A    between atoms: C_11  and  N_12 
REMARK    6  A    between atoms: C_17  and  C_18 
REMARK    7  A    between atoms: C_27  and  C_28 
REMARK    8  A    between atoms: C_28  and  O_29 
REMARK    9  A    between atoms: O_29  and  C_30 
REMARK   10  A    between atoms: C_30  and  C_31 
ROOT
HETATM    1  C   UNL     1      39.775 -15.855   2.509  1.00  0.00     0.071 C 
HETATM    2  C   UNL     1      40.533 -14.997   3.498  1.00  0.00     0.048 C 
HETATM    3  N   UNL     1      40.460 -15.481   4.796  1.00  0.00    -0.229 NA
HETATM    4  C   UNL     1      41.365 -15.074   5.618  1.00  0.00     0.170 C 
HETATM    5  N   UNL     1      42.307 -13.863   5.359  1.00  0.00    -0.318 N 
HETATM    6  C   UNL     1      43.244 -13.784   6.243  1.00  0.00     0.011 C 
HETATM    7  C   UNL     1      41.823 -13.008   4.256  1.00  0.00     0.168 C 
HETATM    8  S   UNL     1      41.714 -15.821   7.139  1.00  0.00    -0.086 SA
HETATM    9  C   UNL     1      43.303 -14.930   7.226  1.00  0.00     0.135 C 
HETATM   10  C   UNL     1      41.339 -13.956   3.179  1.00  0.00     0.069 C 
ENDROOT
BRANCH   6  11
HETATM   11  C   UNL     1      44.194 -12.627   6.291  1.00  0.00     0.156 C 
BRANCH  11  12
HETATM   12  C   UNL     1      43.885 -11.576   7.335  1.00  0.00     0.223 C 
HETATM   13  N   UNL     1      43.067 -10.572   6.878  1.00  0.00    -0.359 N 
HETATM   14  H   UNL     1      42.820 -10.576   5.891  1.00  0.00     0.162 HD
HETATM   15  O   UNL     1      44.348 -11.617   8.469  1.00  0.00    -0.273 OA
BRANCH  13  16
HETATM   16  C   UNL     1      42.832  -9.292   7.549  1.00  0.00     0.150 C 
BRANCH  16  17
HETATM   17  C   UNL     1      41.728  -9.246   8.622  1.00  0.00     0.253 C 
BRANCH  17  18
HETATM   18  N   UNL     1      42.197  -9.679   9.995  1.00  0.00    -0.077 N 
HETATM   19  H   UNL     1      42.443 -10.687   9.931  1.00  0.00     0.279 HD
HETATM   20  C   UNL     1      43.430  -8.965  10.483  1.00  0.00     0.269 C 
HETATM   21  C   UNL     1      41.084  -9.558  11.000  1.00  0.00     0.269 C 
ENDBRANCH  17  18
ENDBRANCH  16  17
ENDBRANCH  13  16
ENDBRANCH  11  12
ENDBRANCH   6  11
BRANCH   7  22
HETATM   22  C   UNL     1      40.746 -11.997   4.727  1.00  0.00    -0.009 A 
HETATM   23  C   UNL     1      40.550 -10.763   4.063  1.00  0.00     0.042 A 
HETATM   24 CL   UNL     1      41.523 -10.257   2.731  1.00  0.00    -0.084 Cl
HETATM   25  C   UNL     1      39.559  -9.860   4.472  1.00  0.00     0.024 A 
HETATM   26  C   UNL     1      38.754 -10.144   5.569  1.00  0.00     0.002 A 
HETATM   27  C   UNL     1      38.941 -11.328   6.265  1.00  0.00     0.001 A 
HETATM   28  C   UNL     1      39.919 -12.241   5.853  1.00  0.00     0.011 A 
ENDBRANCH   7  22
BRANCH  10  29
HETATM   29  C   UNL     1      42.137 -13.892   1.913  1.00  0.00     0.294 C 
HETATM   30  O   UNL     1      41.940 -13.020   1.078  1.00  0.00    -0.259 OA
BRANCH  29  31
HETATM   31  O   UNL     1      43.253 -14.641   2.015  1.00  0.00    -0.313 OA
BRANCH  31  32
HETATM   32  C   UNL     1      43.217 -15.952   1.429  1.00  0.00     0.217 C 
BRANCH  32  33
HETATM   33  C   UNL     1      43.542 -17.012   2.466  1.00  0.00    -0.034 A 
HETATM   34  C   UNL     1      43.825 -16.688   3.804  1.00  0.00     0.009 A 
HETATM   35  C   UNL     1      44.073 -17.685   4.750  1.00  0.00     0.001 A 
HETATM   36  C   UNL     1      44.001 -19.025   4.380  1.00  0.00     0.000 A 
HETATM   37  C   UNL     1      43.679 -19.364   3.068  1.00  0.00     0.001 A 
HETATM   38  C   UNL     1      43.461 -18.366   2.114  1.00  0.00     0.009 A 
ENDBRANCH  32  33
ENDBRANCH  31  32
ENDBRANCH  29  31
ENDBRANCH  10  29
TORSDOF 10
ENDMDL
MODEL 3
REMARK VINA RESULT:      -8.1      2.272      4.125
REMARK  10 active torsions:
REMARK  status: ('A' for Active; 'I' for Inactive)
REMARK    1  A    between atoms: C_6  and  C_7 
REMARK    2  A    between atoms: C_7  and  C_8 
REMARK       I    between atoms: C_8  and  N_9 
REMARK    3  A    between atoms: N_9  and  C_10 
REMARK    4  A    between atoms: C_10  and  C_11 
REMARK    5  A    between atoms: C_11  and  N_12 
REMARK    6  A    between atoms: C_17  and  C_18 
REMARK    7  A    between atoms: C_27  and  C_28 
REMARK    8  A    between atoms: C_28  and  O_29 
REMARK    9  A    between atoms: O_29  and  C_30 
REMARK   10  A    between atoms: C_30  and  C_31 
ROOT
HETATM    1  C   UNL     1      40.704 -16.261   6.771  1.00  0.00     0.071 C 
HETATM    2  C   UNL     1      40.885 -14.985   5.980  1.00  0.00     0.048 C 
HETATM    3  N   UNL     1      39.855 -14.078   6.178  1.00  0.00    -0.229 NA
HETATM    4  C   UNL     1      40.100 -12.847   5.884  1.00  0.00     0.170 C 
HETATM    5  N   UNL     1      41.316 -12.372   5.038  1.00  0.00    -0.318 N 
HETATM    6  C   UNL     1      41.440 -11.087   5.051  1.00  0.00     0.011 C 
HETATM    7  C   UNL     1      41.952 -13.485   4.304  1.00  0.00     0.168 C 
HETATM    8  S   UNL     1      39.139 -11.505   6.402  1.00  0.00    -0.086 SA
HETATM    9  C   UNL     1      40.488 -10.356   5.969  1.00  0.00     0.135 C 
HETATM   10  C   UNL     1      41.990 -14.651   5.270  1.00  0.00     0.069 C 
ENDROOT
BRANCH   6  11
HETATM   11  C   UNL     1      42.450 -10.379   4.203  1.00  0.00     0.156 C 
BRANCH  11  12
HETATM   12  C   UNL     1      42.039 -10.141   2.765  1.00  0.00     0.223 C 
HETATM   13  N   UNL     1      41.153  -9.104   2.611  1.00  0.00    -0.359 N 
HETATM   14  H   UNL     1      40.796  -8.659   3.453  1.00  0.00     0.162 HD
HETATM   15  O   UNL     1      42.449 -10.833   1.839  1.00  0.00    -0.273 OA
BRANCH  13  16
HETATM   16  C   UNL     1      40.367  -8.825   1.408  1.00  0.00     0.150 C 
BRANCH  16  17
HETATM   17  C   UNL     1      39.933 -10.029   0.550  1.00  0.00     0.253 C 
BRANCH  17  18
HETATM   18  N   UNL     1      40.652 -10.119  -0.780  1.00  0.00    -0.077 N 
HETATM   19  H   UNL     1      41.569  -9.642  -0.663  1.00  0.00     0.279 HD
HETATM   20  C   UNL     1      40.950 -11.523  -1.231  1.00  0.00     0.269 C 
HETATM   21  C   UNL     1      39.896  -9.370  -1.844  1.00  0.00     0.269 C 
ENDBRANCH  17  18
ENDBRANCH  16  17
ENDBRANCH  13  16
ENDBRANCH  11  12
ENDBRANCH   6  11
BRANCH   7  22
HETATM   22  C   UNL     1      41.223 -13.802   2.973  1.00  0.00    -0.009 A 
HETATM   23  C   UNL     1      41.887 -14.445   1.902  1.00  0.00     0.042 A 
HETATM   24 CL   UNL     1      43.558 -14.869   1.961  1.00  0.00    -0.084 Cl
HETATM   25  C   UNL     1      41.220 -14.756   0.708  1.00  0.00     0.024 A 
HETATM   26  C   UNL     1      39.886 -14.409   0.532  1.00  0.00     0.002 A 
HETATM   27  C   UNL     1      39.214 -13.746   1.548  1.00  0.00     0.001 A 
HETATM   28  C   UNL     1      39.869 -13.447   2.748  1.00  0.00     0.011 A 
ENDBRANCH   7  22
BRANCH  10  29
HETATM   29  C   UNL     1      43.374 -15.072   5.657  1.00  0.00     0.294 C 
HETATM   30  O   UNL     1      43.862 -14.748   6.731  1.00  0.00    -0.259 OA
BRANCH  29  31
HETATM   31  O   UNL     1      43.799 -16.087   4.878  1.00  0.00    -0.313 OA
BRANCH  31  32
HETATM   32  C   UNL     1      44.039 -17.349   5.520  1.00  0.00     0.217 C 
BRANCH  32  33
HETATM   33  C   UNL     1      43.934 -18.487   4.522  1.00  0.00    -0.034 A 
HETATM   34  C   UNL     1      44.098 -19.831   4.899  1.00  0.00     0.009 A 
HETATM   35  C   UNL     1      43.948 -20.864   3.970  1.00  0.00     0.001 A 
HETATM   36  C   UNL     1      43.591 -20.569   2.658  1.00  0.00     0.000 A 
HETATM   37  C   UNL     1      43.381 -19.246   2.278  1.00  0.00     0.001 A 
HETATM   38  C   UNL     1      43.562 -18.210   3.199  1.00  0.00     0.009 A 
ENDBRANCH  32  33
ENDBRANCH  31  32
ENDBRANCH  29  31
ENDBRANCH  10  29
TORSDOF 10
ENDMDL
MODEL 4
REMARK VINA RESULT:      -8.0      1.454      1.884
REMARK  10 active torsions:
REMARK  status: ('A' for Active; 'I' for Inactive)
REMARK    1  A    between atoms: C_6  and  C_7 
REMARK    2  A    between atoms: C_7  and  C_8 
REMARK       I    between atoms: C_8  and  N_9 
REMARK    3  A    between atoms: N_9  and  C_10 
REMARK    4  A    between atoms: C_10  and  C_11 
REMARK    5  A    between atoms: C_11  and  N_12 
REMARK    6  A    between atoms: C_17  and  C_18 
REMARK    7  A    between atoms: C_27  and  C_28 
REMARK    8  A    between atoms: C_28  and  O_29 
REMARK    9  A    between atoms: O_29  and  C_30 
REMARK   10  A    between atoms: C_30  and  C_31 
ROOT
HETATM    1  C   UNL     1      39.922 -16.130   6.880  1.00  0.00     0.071 C 
HETATM    2  C   UNL     1      40.489 -14.822   6.374  1.00  0.00     0.048 C 
HETATM    3  N   UNL     1      39.555 -13.796   6.372  1.00  0.00    -0.229 NA
HETATM    4  C   UNL     1      40.016 -12.593   6.346  1.00  0.00     0.170 C 
HETATM    5  N   UNL     1      41.485 -12.222   5.993  1.00  0.00    -0.318 N 
HETATM    6  C   UNL     1      41.738 -10.978   6.227  1.00  0.00     0.011 C 
HETATM    7  C   UNL     1      42.199 -13.338   5.340  1.00  0.00     0.168 C 
HETATM    8  S   UNL     1      39.092 -11.181   6.729  1.00  0.00    -0.086 SA
HETATM    9  C   UNL     1      40.625 -10.208   6.901  1.00  0.00     0.135 C 
HETATM   10  C   UNL     1      41.793 -14.587   6.094  1.00  0.00     0.069 C 
ENDROOT
BRANCH   6  11
HETATM   11  C   UNL     1      43.039 -10.346   5.842  1.00  0.00     0.156 C 
BRANCH  11  12
HETATM   12  C   UNL     1      44.217 -10.691   6.729  1.00  0.00     0.223 C 
HETATM   13  N   UNL     1      44.077 -10.253   8.023  1.00  0.00    -0.359 N 
HETATM   14  H   UNL     1      43.265  -9.681   8.242  1.00  0.00     0.162 HD
HETATM   15  O   UNL     1      45.205 -11.285   6.312  1.00  0.00    -0.273 OA
BRANCH  13  16
HETATM   16  C   UNL     1      45.147 -10.182   9.018  1.00  0.00     0.150 C 
BRANCH  16  17
HETATM   17  C   UNL     1      44.759  -9.757  10.447  1.00  0.00     0.253 C 
BRANCH  17  18
HETATM   18  N   UNL     1      43.297  -9.390  10.596  1.00  0.00    -0.077 N 
HETATM   19  H   UNL     1      42.808  -9.735   9.746  1.00  0.00     0.279 HD
HETATM   20  C   UNL     1      42.614 -10.028  11.775  1.00  0.00     0.269 C 
HETATM   21  C   UNL     1      43.125  -7.895  10.629  1.00  0.00     0.269 C 
ENDBRANCH  17  18
ENDBRANCH  16  17
ENDBRANCH  13  16
ENDBRANCH  11  12
ENDBRANCH   6  11
BRANCH   7  22
HETATM   22  C   UNL     1      41.911 -13.407   3.819  1.00  0.00    -0.009 A 
HETATM   23  C   UNL     1      42.751 -12.766   2.878  1.00  0.00     0.042 A 
HETATM   24 CL   UNL     1      44.112 -11.813   3.341  1.00  0.00    -0.084 Cl
HETATM   25  C   UNL     1      42.506 -12.850   1.500  1.00  0.00     0.024 A 
HETATM   26  C   UNL     1      41.405 -13.547   1.019  1.00  0.00     0.002 A 
HETATM   27  C   UNL     1      40.540 -14.159   1.915  1.00  0.00     0.001 A 
HETATM   28  C   UNL     1      40.787 -14.091   3.291  1.00  0.00     0.011 A 
ENDBRANCH   7  22
BRANCH  10  29
HETATM   29  C   UNL     1      42.922 -15.247   6.825  1.00  0.00     0.294 C 
HETATM   30  O   UNL     1      42.841 -15.513   8.016  1.00  0.00    -0.259 OA
BRANCH  29  31
HETATM   31  O   UNL     1      43.796 -15.796   5.957  1.00  0.00    -0.313 OA
BRANCH  31  32
HETATM   32  C   UNL     1      43.952 -17.223   6.002  1.00  0.00     0.217 C 
BRANCH  32  33
HETATM   33  C   UNL     1      43.624 -17.840   4.655  1.00  0.00    -0.034 A 
HETATM   34  C   UNL     1      42.944 -17.129   3.651  1.00  0.00     0.009 A 
HETATM   35  C   UNL     1      42.697 -17.703   2.401  1.00  0.00     0.001 A 
HETATM   36  C   UNL     1      43.163 -18.985   2.124  1.00  0.00     0.000 A 
HETATM   37  C   UNL     1      43.876 -19.687   3.092  1.00  0.00     0.001 A 
HETATM   38  C   UNL     1      44.096 -19.125   4.353  1.00  0.00     0.009 A 
ENDBRANCH  32  33
ENDBRANCH  31  32
ENDBRANCH  29  31
ENDBRANCH  10  29
TORSDOF 10
ENDMDL
MODEL 5
REMARK VINA RESULT:      -7.9      2.992      5.305
REMARK  10 active torsions:
REMARK  status: ('A' for Active; 'I' for Inactive)
REMARK    1  A    between atoms: C_6  and  C_7 
REMARK    2  A    between atoms: C_7  and  C_8 
REMARK       I    between atoms: C_8  and  N_9 
REMARK    3  A    between atoms: N_9  and  C_10 
REMARK    4  A    between atoms: C_10  and  C_11 
REMARK    5  A    between atoms: C_11  and  N_12 
REMARK    6  A    between atoms: C_17  and  C_18 
REMARK    7  A    between atoms: C_27  and  C_28 
REMARK    8  A    between atoms: C_28  and  O_29 
REMARK    9  A    between atoms: O_29  and  C_30 
REMARK   10  A    between atoms: C_30  and  C_31 
ROOT
HETATM    1  C   UNL     1      42.498 -10.982   2.637  1.00  0.00     0.071 C 
HETATM    2  C   UNL     1      42.031 -10.623   4.030  1.00  0.00     0.048 C 
HETATM    3  N   UNL     1      41.669  -9.289   4.148  1.00  0.00    -0.229 NA
HETATM    4  C   UNL     1      40.905  -8.981   5.140  1.00  0.00     0.170 C 
HETATM    5  N   UNL     1      40.637  -9.904   6.362  1.00  0.00    -0.318 N 
HETATM    6  C   UNL     1      39.692  -9.448   7.113  1.00  0.00     0.011 C 
HETATM    7  C   UNL     1      41.620 -11.003   6.456  1.00  0.00     0.168 C 
HETATM    8  S   UNL     1      40.018  -7.501   5.270  1.00  0.00    -0.086 SA
HETATM    9  C   UNL     1      38.980  -8.224   6.584  1.00  0.00     0.135 C 
HETATM   10  C   UNL     1      41.820 -11.502   5.039  1.00  0.00     0.069 C 
ENDROOT
BRANCH   6  11
HETATM   11  C   UNL     1      39.341 -10.084   8.423  1.00  0.00     0.156 C 
BRANCH  11  12
HETATM   12  C   UNL     1      39.979  -9.454   9.642  1.00  0.00     0.223 C 
HETATM   13  N   UNL     1      39.920 -10.244  10.764  1.00  0.00    -0.359 N 
HETATM   14  H   UNL     1      39.395 -11.113  10.701  1.00  0.00     0.162 HD
HETATM   15  O   UNL     1      40.478  -8.334   9.622  1.00  0.00    -0.273 OA
BRANCH  13  16
HETATM   16  C   UNL     1      40.185  -9.802  12.133  1.00  0.00     0.150 C 
BRANCH  16  17
HETATM   17  C   UNL     1      41.619  -9.973  12.669  1.00  0.00     0.253 C 
BRANCH  17  18
HETATM   18  N   UNL     1      42.691  -9.662  11.645  1.00  0.00    -0.077 N 
HETATM   19  H   UNL     1      42.212  -9.539  10.730  1.00  0.00     0.279 HD
HETATM   20  C   UNL     1      43.450  -8.390  11.909  1.00  0.00     0.269 C 
HETATM   21  C   UNL     1      43.637 -10.822  11.497  1.00  0.00     0.269 C 
ENDBRANCH  17  18
ENDBRANCH  16  17
ENDBRANCH  13  16
ENDBRANCH  11  12
ENDBRANCH   6  11
BRANCH   7  22
HETATM   22  C   UNL     1      42.931 -10.559   7.151  1.00  0.00    -0.009 A 
HETATM   23  C   UNL     1      43.963 -11.483   7.442  1.00  0.00     0.042 A 
HETATM   24 CL   UNL     1      43.824 -13.169   7.110  1.00  0.00    -0.084 Cl
HETATM   25  C   UNL     1      45.161 -11.077   8.047  1.00  0.00     0.024 A 
HETATM   26  C   UNL     1      45.356  -9.749   8.408  1.00  0.00     0.002 A 
HETATM   27  C   UNL     1      44.352  -8.823   8.169  1.00  0.00     0.001 A 
HETATM   28  C   UNL     1      43.160  -9.218   7.552  1.00  0.00     0.011 A 
ENDBRANCH   7  22
BRANCH  10  29
HETATM   29  C   UNL     1      41.352 -12.908   4.820  1.00  0.00     0.294 C 
HETATM   30  O   UNL     1      40.163 -13.193   4.837  1.00  0.00    -0.259 OA
BRANCH  29  31
HETATM   31  O   UNL     1      42.330 -13.655   4.270  1.00  0.00    -0.313 OA
BRANCH  31  32
HETATM   32  C   UNL     1      41.926 -14.720   3.395  1.00  0.00     0.217 C 
BRANCH  32  33
HETATM   33  C   UNL     1      42.770 -15.958   3.632  1.00  0.00    -0.034 A 
HETATM   34  C   UNL     1      43.402 -16.209   4.863  1.00  0.00     0.009 A 
HETATM   35  C   UNL     1      44.134 -17.381   5.071  1.00  0.00     0.001 A 
HETATM   36  C   UNL     1      44.211 -18.338   4.065  1.00  0.00     0.000 A 
HETATM   37  C   UNL     1      43.554 -18.125   2.855  1.00  0.00     0.001 A 
HETATM   38  C   UNL     1      42.848 -16.939   2.634  1.00  0.00     0.009 A 
ENDBRANCH  32  33
ENDBRANCH  31  32
ENDBRANCH  29  31
ENDBRANCH  10  29
TORSDOF 10
ENDMDL
MODEL 6
REMARK VINA RESULT:      -7.9      3.302      4.978
REMARK  10 active torsions:
REMARK  status: ('A' for Active; 'I' for Inactive)
REMARK    1  A    between atoms: C_6  and  C_7 
REMARK    2  A    between atoms: C_7  and  C_8 
REMARK       I    between atoms: C_8  and  N_9 
REMARK    3  A    between atoms: N_9  and  C_10 
REMARK    4  A    between atoms: C_10  and  C_11 
REMARK    5  A    between atoms: C_11  and  N_12 
REMARK    6  A    between atoms: C_17  and  C_18 
REMARK    7  A    between atoms: C_27  and  C_28 
REMARK    8  A    between atoms: C_28  and  O_29 
REMARK    9  A    between atoms: O_29  and  C_30 
REMARK   10  A    between atoms: C_30  and  C_31 
ROOT
HETATM    1  C   UNL     1      41.512 -11.893   1.189  1.00  0.00     0.071 C 
HETATM    2  C   UNL     1      41.281 -11.519   2.636  1.00  0.00     0.048 C 
HETATM    3  N   UNL     1      41.412 -10.158   2.868  1.00  0.00    -0.229 NA
HETATM    4  C   UNL     1      40.861  -9.695   3.937  1.00  0.00     0.170 C 
HETATM    5  N   UNL     1      40.360 -10.575   5.119  1.00  0.00    -0.318 N 
HETATM    6  C   UNL     1      39.678  -9.890   5.974  1.00  0.00     0.011 C 
HETATM    7  C   UNL     1      40.904 -11.947   5.060  1.00  0.00     0.168 C 
HETATM    8  S   UNL     1      40.553  -8.019   4.234  1.00  0.00    -0.086 SA
HETATM    9  C   UNL     1      39.406  -8.456   5.583  1.00  0.00     0.135 C 
HETATM   10  C   UNL     1      40.836 -12.358   3.603  1.00  0.00     0.069 C 
ENDROOT
BRANCH   6  11
HETATM   11  C   UNL     1      39.205 -10.480   7.266  1.00  0.00     0.156 C 
BRANCH  11  12
HETATM   12  C   UNL     1      39.500  -9.657   8.502  1.00  0.00     0.223 C 
HETATM   13  N   UNL     1      40.841  -9.478   8.736  1.00  0.00    -0.359 N 
HETATM   14  H   UNL     1      41.495  -9.968   8.130  1.00  0.00     0.162 HD
HETATM   15  O   UNL     1      38.616  -9.219   9.229  1.00  0.00    -0.273 OA
BRANCH  13  16
HETATM   16  C   UNL     1      41.432  -8.987   9.981  1.00  0.00     0.150 C 
BRANCH  16  17
HETATM   17  C   UNL     1      41.229  -9.841  11.247  1.00  0.00     0.253 C 
BRANCH  17  18
HETATM   18  N   UNL     1      39.946  -9.534  11.989  1.00  0.00    -0.077 N 
HETATM   19  H   UNL     1      39.209  -9.376  11.272  1.00  0.00     0.279 HD
HETATM   20  C   UNL     1      39.456 -10.650  12.872  1.00  0.00     0.269 C 
HETATM   21  C   UNL     1      40.079  -8.257  12.774  1.00  0.00     0.269 C 
ENDBRANCH  17  18
ENDBRANCH  16  17
ENDBRANCH  13  16
ENDBRANCH  11  12
ENDBRANCH   6  11
BRANCH   7  22
HETATM   22  C   UNL     1      42.326 -12.040   5.668  1.00  0.00    -0.009 A 
HETATM   23  C   UNL     1      42.763 -13.200   6.351  1.00  0.00     0.042 A 
HETATM   24 CL   UNL     1      41.743 -14.565   6.616  1.00  0.00    -0.084 Cl
HETATM   25  C   UNL     1      44.059 -13.295   6.878  1.00  0.00     0.024 A 
HETATM   26  C   UNL     1      44.946 -12.232   6.769  1.00  0.00     0.002 A 
HETATM   27  C   UNL     1      44.540 -11.066   6.137  1.00  0.00     0.001 A 
HETATM   28  C   UNL     1      43.253 -10.970   5.595  1.00  0.00     0.011 A 
ENDBRANCH   7  22
BRANCH  10  29
HETATM   29  C   UNL     1      39.897 -13.494   3.337  1.00  0.00     0.294 C 
HETATM   30  O   UNL     1      38.863 -13.332   2.704  1.00  0.00    -0.259 OA
BRANCH  29  31
HETATM   31  O   UNL     1      40.507 -14.677   3.552  1.00  0.00    -0.313 OA
BRANCH  31  32
HETATM   32  C   UNL     1      41.200 -15.266   2.440  1.00  0.00     0.217 C 
BRANCH  32  33
HETATM   33  C   UNL     1      42.150 -16.350   2.914  1.00  0.00    -0.034 A 
HETATM   34  C   UNL     1      42.302 -17.566   2.225  1.00  0.00     0.009 A 
HETATM   35  C   UNL     1      43.219 -18.529   2.654  1.00  0.00     0.001 A 
HETATM   36  C   UNL     1      44.028 -18.271   3.757  1.00  0.00     0.000 A 
HETATM   37  C   UNL     1      43.921 -17.054   4.425  1.00  0.00     0.001 A 
HETATM   38  C   UNL     1      42.981 -16.103   4.015  1.00  0.00     0.009 A 
ENDBRANCH  32  33
ENDBRANCH  31  32
ENDBRANCH  29  31
ENDBRANCH  10  29
TORSDOF 10
ENDMDL
MODEL 7
REMARK VINA RESULT:      -7.7      2.553      4.489
REMARK  10 active torsions:
REMARK  status: ('A' for Active; 'I' for Inactive)
REMARK    1  A    between atoms: C_6  and  C_7 
REMARK    2  A    between atoms: C_7  and  C_8 
REMARK       I    between atoms: C_8  and  N_9 
REMARK    3  A    between atoms: N_9  and  C_10 
REMARK    4  A    between atoms: C_10  and  C_11 
REMARK    5  A    between atoms: C_11  and  N_12 
REMARK    6  A    between atoms: C_17  and  C_18 
REMARK    7  A    between atoms: C_27  and  C_28 
REMARK    8  A    between atoms: C_28  and  O_29 
REMARK    9  A    between atoms: O_29  and  C_30 
REMARK   10  A    between atoms: C_30  and  C_31 
ROOT
HETATM    1  C   UNL     1      43.400 -14.154   1.923  1.00  0.00     0.071 C 
HETATM    2  C   UNL     1      42.594 -13.392   2.951  1.00  0.00     0.048 C 
HETATM    3  N   UNL     1      42.172 -12.152   2.494  1.00  0.00    -0.229 NA
HETATM    4  C   UNL     1      41.178 -11.612   3.112  1.00  0.00     0.170 C 
HETATM    5  N   UNL     1      40.646 -12.080   4.497  1.00  0.00    -0.318 N 
HETATM    6  C   UNL     1      39.532 -11.507   4.804  1.00  0.00     0.011 C 
HETATM    7  C   UNL     1      41.609 -12.955   5.196  1.00  0.00     0.168 C 
HETATM    8  S   UNL     1      40.242 -10.294   2.497  1.00  0.00    -0.086 SA
HETATM    9  C   UNL     1      38.935 -10.635   3.723  1.00  0.00     0.135 C 
HETATM   10  C   UNL     1      42.168 -13.886   4.139  1.00  0.00     0.069 C 
ENDROOT
BRANCH   6  11
HETATM   11  C   UNL     1      38.889 -11.687   6.144  1.00  0.00     0.156 C 
BRANCH  11  12
HETATM   12  C   UNL     1      38.942 -10.480   7.058  1.00  0.00     0.223 C 
HETATM   13  N   UNL     1      39.177 -10.797   8.373  1.00  0.00    -0.359 N 
HETATM   14  H   UNL     1      39.206 -11.783   8.623  1.00  0.00     0.162 HD
HETATM   15  O   UNL     1      38.768  -9.337   6.651  1.00  0.00    -0.273 OA
BRANCH  13  16
HETATM   16  C   UNL     1      38.998  -9.895   9.512  1.00  0.00     0.150 C 
BRANCH  16  17
HETATM   17  C   UNL     1      40.257  -9.502  10.309  1.00  0.00     0.253 C 
BRANCH  17  18
HETATM   18  N   UNL     1      41.515  -9.446   9.469  1.00  0.00    -0.077 N 
HETATM   19  H   UNL     1      41.437 -10.195   8.752  1.00  0.00     0.279 HD
HETATM   20  C   UNL     1      41.706  -8.153   8.723  1.00  0.00     0.269 C 
HETATM   21  C   UNL     1      42.726  -9.759  10.305  1.00  0.00     0.269 C 
ENDBRANCH  17  18
ENDBRANCH  16  17
ENDBRANCH  13  16
ENDBRANCH  11  12
ENDBRANCH   6  11
BRANCH   7  22
HETATM   22  C   UNL     1      42.695 -12.146   5.950  1.00  0.00    -0.009 A 
HETATM   23  C   UNL     1      43.605 -12.775   6.833  1.00  0.00     0.042 A 
HETATM   24 CL   UNL     1      43.543 -14.462   7.189  1.00  0.00    -0.084 Cl
HETATM   25  C   UNL     1      44.604 -12.048   7.496  1.00  0.00     0.024 A 
HETATM   26  C   UNL     1      44.710 -10.673   7.324  1.00  0.00     0.002 A 
HETATM   27  C   UNL     1      43.813 -10.019   6.493  1.00  0.00     0.001 A 
HETATM   28  C   UNL     1      42.822 -10.741   5.817  1.00  0.00     0.011 A 
ENDBRANCH   7  22
BRANCH  10  29
HETATM   29  C   UNL     1      41.812 -15.325   4.350  1.00  0.00     0.294 C 
HETATM   30  O   UNL     1      40.710 -15.655   4.766  1.00  0.00    -0.259 OA
BRANCH  29  31
HETATM   31  O   UNL     1      42.678 -16.130   3.703  1.00  0.00    -0.313 OA
BRANCH  31  32
HETATM   32  C   UNL     1      43.651 -16.821   4.504  1.00  0.00     0.217 C 
BRANCH  32  33
HETATM   33  C   UNL     1      43.695 -18.294   4.140  1.00  0.00    -0.034 A 
HETATM   34  C   UNL     1      43.540 -18.743   2.817  1.00  0.00     0.009 A 
HETATM   35  C   UNL     1      43.634 -20.101   2.501  1.00  0.00     0.001 A 
HETATM   36  C   UNL     1      43.924 -21.026   3.499  1.00  0.00     0.000 A 
HETATM   37  C   UNL     1      44.123 -20.593   4.808  1.00  0.00     0.001 A 
HETATM   38  C   UNL     1      43.999 -19.238   5.130  1.00  0.00     0.009 A 
ENDBRANCH  32  33
ENDBRANCH  31  32
ENDBRANCH  29  31
ENDBRANCH  10  29
TORSDOF 10
ENDMDL
MODEL 8
REMARK VINA RESULT:      -7.6      3.046      7.646
REMARK  10 active torsions:
REMARK  status: ('A' for Active; 'I' for Inactive)
REMARK    1  A    between atoms: C_6  and  C_7 
REMARK    2  A    between atoms: C_7  and  C_8 
REMARK       I    between atoms: C_8  and  N_9 
REMARK    3  A    between atoms: N_9  and  C_10 
REMARK    4  A    between atoms: C_10  and  C_11 
REMARK    5  A    between atoms: C_11  and  N_12 
REMARK    6  A    between atoms: C_17  and  C_18 
REMARK    7  A    between atoms: C_27  and  C_28 
REMARK    8  A    between atoms: C_28  and  O_29 
REMARK    9  A    between atoms: O_29  and  C_30 
REMARK   10  A    between atoms: C_30  and  C_31 
ROOT
HETATM    1  C   UNL     1      40.495  -9.199   9.186  1.00  0.00     0.071 C 
HETATM    2  C   UNL     1      40.751  -9.772   7.809  1.00  0.00     0.048 C 
HETATM    3  N   UNL     1      39.596  -9.881   7.049  1.00  0.00    -0.229 NA
HETATM    4  C   UNL     1      39.749  -9.972   5.772  1.00  0.00     0.170 C 
HETATM    5  N   UNL     1      41.099 -10.291   5.069  1.00  0.00    -0.318 N 
HETATM    6  C   UNL     1      41.026 -10.134   3.790  1.00  0.00     0.011 C 
HETATM    7  C   UNL     1      42.100 -10.837   6.008  1.00  0.00     0.168 C 
HETATM    8  S   UNL     1      38.487  -9.724   4.615  1.00  0.00    -0.086 SA
HETATM    9  C   UNL     1      39.723  -9.560   3.284  1.00  0.00     0.135 C 
HETATM   10  C   UNL     1      41.972 -10.015   7.274  1.00  0.00     0.069 C 
ENDROOT
BRANCH   6  11
HETATM   11  C   UNL     1      42.152 -10.510   2.878  1.00  0.00     0.156 C 
BRANCH  11  12
HETATM   12  C   UNL     1      42.009 -11.850   2.188  1.00  0.00     0.223 C 
HETATM   13  N   UNL     1      42.640 -12.877   2.846  1.00  0.00    -0.359 N 
HETATM   14  H   UNL     1      43.200 -12.641   3.662  1.00  0.00     0.162 HD
HETATM   15  O   UNL     1      41.405 -11.986   1.131  1.00  0.00    -0.273 OA
BRANCH  13  16
HETATM   16  C   UNL     1      42.921 -14.201   2.289  1.00  0.00     0.150 C 
BRANCH  16  17
HETATM   17  C   UNL     1      43.183 -15.348   3.284  1.00  0.00     0.253 C 
BRANCH  17  18
HETATM   18  N   UNL     1      42.118 -16.424   3.265  1.00  0.00    -0.077 N 
HETATM   19  H   UNL     1      42.039 -16.792   4.234  1.00  0.00     0.279 HD
HETATM   20  C   UNL     1      40.749 -15.935   2.877  1.00  0.00     0.269 C 
HETATM   21  C   UNL     1      42.539 -17.572   2.389  1.00  0.00     0.269 C 
ENDBRANCH  17  18
ENDBRANCH  16  17
ENDBRANCH  13  16
ENDBRANCH  11  12
ENDBRANCH   6  11
BRANCH   7  22
HETATM   22  C   UNL     1      41.923 -12.360   6.234  1.00  0.00    -0.009 A 
HETATM   23  C   UNL     1      43.015 -13.186   6.592  1.00  0.00     0.042 A 
HETATM   24 CL   UNL     1      44.625 -12.587   6.744  1.00  0.00    -0.084 Cl
HETATM   25  C   UNL     1      42.850 -14.559   6.822  1.00  0.00     0.024 A 
HETATM   26  C   UNL     1      41.604 -15.156   6.673  1.00  0.00     0.002 A 
HETATM   27  C   UNL     1      40.519 -14.384   6.289  1.00  0.00     0.001 A 
HETATM   28  C   UNL     1      40.673 -13.010   6.072  1.00  0.00     0.011 A 
ENDBRANCH   7  22
BRANCH  10  29
HETATM   29  C   UNL     1      43.186  -9.196   7.590  1.00  0.00     0.294 C 
HETATM   30  O   UNL     1      43.191  -7.982   7.443  1.00  0.00    -0.259 OA
BRANCH  29  31
HETATM   31  O   UNL     1      44.048  -9.897   8.354  1.00  0.00    -0.313 OA
BRANCH  31  32
HETATM   32  C   UNL     1      44.686  -9.195   9.432  1.00  0.00     0.217 C 
BRANCH  32  33
HETATM   33  C   UNL     1      43.868  -9.309  10.705  1.00  0.00    -0.034 A 
HETATM   34  C   UNL     1      43.578 -10.550  11.299  1.00  0.00     0.009 A 
HETATM   35  C   UNL     1      42.865 -10.626  12.498  1.00  0.00     0.001 A 
HETATM   36  C   UNL     1      42.465  -9.459  13.141  1.00  0.00     0.000 A 
HETATM   37  C   UNL     1      42.782  -8.221  12.589  1.00  0.00     0.001 A 
HETATM   38  C   UNL     1      43.469  -8.144  11.373  1.00  0.00     0.009 A 
ENDBRANCH  32  33
ENDBRANCH  31  32
ENDBRANCH  29  31
ENDBRANCH  10  29
TORSDOF 10
ENDMDL
MODEL 9
REMARK VINA RESULT:      -7.6     16.089     18.150
REMARK  10 active torsions:
REMARK  status: ('A' for Active; 'I' for Inactive)
REMARK    1  A    between atoms: C_6  and  C_7 
REMARK    2  A    between atoms: C_7  and  C_8 
REMARK       I    between atoms: C_8  and  N_9 
REMARK    3  A    between atoms: N_9  and  C_10 
REMARK    4  A    between atoms: C_10  and  C_11 
REMARK    5  A    between atoms: C_11  and  N_12 
REMARK    6  A    between atoms: C_17  and  C_18 
REMARK    7  A    between atoms: C_27  and  C_28 
REMARK    8  A    between atoms: C_28  and  O_29 
REMARK    9  A    between atoms: O_29  and  C_30 
REMARK   10  A    between atoms: C_30  and  C_31 
ROOT
HETATM    1  C   UNL     1      49.169 -30.834  -0.282  1.00  0.00     0.071 C 
HETATM    2  C   UNL     1      47.658 -30.847  -0.215  1.00  0.00     0.048 C 
HETATM    3  N   UNL     1      47.147 -32.075   0.177  1.00  0.00    -0.229 NA
HETATM    4  C   UNL     1      45.945 -32.082   0.642  1.00  0.00     0.170 C 
HETATM    5  N   UNL     1      44.938 -30.905   0.492  1.00  0.00    -0.318 N 
HETATM    6  C   UNL     1      43.879 -31.083   1.206  1.00  0.00     0.011 C 
HETATM    7  C   UNL     1      45.363 -29.938  -0.541  1.00  0.00     0.168 C 
HETATM    8  S   UNL     1      45.249 -33.386   1.541  1.00  0.00    -0.086 SA
HETATM    9  C   UNL     1      43.906 -32.292   2.112  1.00  0.00     0.135 C 
HETATM   10  C   UNL     1      46.857 -29.763  -0.355  1.00  0.00     0.069 C 
ENDROOT
BRANCH   6  11
HETATM   11  C   UNL     1      42.703 -30.159   1.127  1.00  0.00     0.156 C 
BRANCH  11  12
HETATM   12  C   UNL     1      41.544 -30.502   2.038  1.00  0.00     0.223 C 
HETATM   13  N   UNL     1      41.725 -30.093   3.336  1.00  0.00    -0.359 N 
HETATM   14  H   UNL     1      42.625 -29.688   3.582  1.00  0.00     0.162 HD
HETATM   15  O   UNL     1      40.554 -31.109   1.645  1.00  0.00    -0.273 OA
BRANCH  13  16
HETATM   16  C   UNL     1      40.929 -30.526   4.486  1.00  0.00     0.150 C 
BRANCH  16  17
HETATM   17  C   UNL     1      41.405 -31.779   5.246  1.00  0.00     0.253 C 
BRANCH  17  18
HETATM   18  N   UNL     1      42.601 -31.530   6.140  1.00  0.00    -0.077 N 
HETATM   19  H   UNL     1      42.951 -30.575   5.922  1.00  0.00     0.279 HD
HETATM   20  C   UNL     1      42.290 -31.549   7.612  1.00  0.00     0.269 C 
HETATM   21  C   UNL     1      43.713 -32.492   5.821  1.00  0.00     0.269 C 
ENDBRANCH  17  18
ENDBRANCH  16  17
ENDBRANCH  13  16
ENDBRANCH  11  12
ENDBRANCH   6  11
BRANCH   7  22
HETATM   22  C   UNL     1      44.962 -30.389  -1.968  1.00  0.00    -0.009 A 
HETATM   23  C   UNL     1      44.862 -29.465  -3.034  1.00  0.00     0.042 A 
HETATM   24 CL   UNL     1      45.114 -27.771  -2.826  1.00  0.00    -0.084 Cl
HETATM   25  C   UNL     1      44.524 -29.876  -4.332  1.00  0.00     0.024 A 
HETATM   26  C   UNL     1      44.247 -31.211  -4.600  1.00  0.00     0.002 A 
HETATM   27  C   UNL     1      44.301 -32.139  -3.571  1.00  0.00     0.001 A 
HETATM   28  C   UNL     1      44.652 -31.738  -2.277  1.00  0.00     0.011 A 
ENDBRANCH   7  22
BRANCH  10  29
HETATM   29  C   UNL     1      47.257 -28.384   0.071  1.00  0.00     0.294 C 
HETATM   30  O   UNL     1      47.627 -27.548  -0.742  1.00  0.00    -0.259 OA
BRANCH  29  31
HETATM   31  O   UNL     1      46.814 -28.123   1.317  1.00  0.00    -0.313 OA
BRANCH  31  32
HETATM   32  C   UNL     1      47.807 -27.947   2.340  1.00  0.00     0.217 C 
BRANCH  32  33
HETATM   33  C   UNL     1      47.983 -29.223   3.142  1.00  0.00    -0.034 A 
HETATM   34  C   UNL     1      49.222 -29.601   3.687  1.00  0.00     0.009 A 
HETATM   35  C   UNL     1      49.348 -30.756   4.463  1.00  0.00     0.001 A 
HETATM   36  C   UNL     1      48.225 -31.530   4.739  1.00  0.00     0.000 A 
HETATM   37  C   UNL     1      46.981 -31.147   4.243  1.00  0.00     0.001 A 
HETATM   38  C   UNL     1      46.861 -30.008   3.441  1.00  0.00     0.009 A 
ENDBRANCH  32  33
ENDBRANCH  31  32
ENDBRANCH  29  31
ENDBRANCH  10  29
TORSDOF 10
ENDMDL
MODEL 10
REMARK VINA RESULT:      -7.4     16.840     19.634
REMARK  10 active torsions:
REMARK  status: ('A' for Active; 'I' for Inactive)
REMARK    1  A    between atoms: C_6  and  C_7 
REMARK    2  A    between atoms: C_7  and  C_8 
REMARK       I    between atoms: C_8  and  N_9 
REMARK    3  A    between atoms: N_9  and  C_10 
REMARK    4  A    between atoms: C_10  and  C_11 
REMARK    5  A    between atoms: C_11  and  N_12 
REMARK    6  A    between atoms: C_17  and  C_18 
REMARK    7  A    between atoms: C_27  and  C_28 
REMARK    8  A    between atoms: C_28  and  O_29 
REMARK    9  A    between atoms: O_29  and  C_30 
REMARK   10  A    between atoms: C_30  and  C_31 
ROOT
HETATM    1  C   UNL     1      44.714 -30.939   3.341  1.00  0.00     0.071 C 
HETATM    2  C   UNL     1      46.073 -30.951   2.677  1.00  0.00     0.048 C 
HETATM    3  N   UNL     1      47.008 -30.181   3.351  1.00  0.00    -0.229 NA
HETATM    4  C   UNL     1      48.249 -30.434   3.112  1.00  0.00     0.170 C 
HETATM    5  N   UNL     1      48.757 -31.287   1.914  1.00  0.00    -0.318 N 
HETATM    6  C   UNL     1      50.017 -31.550   2.009  1.00  0.00     0.011 C 
HETATM    7  C   UNL     1      47.717 -31.469   0.881  1.00  0.00     0.168 C 
HETATM    8  S   UNL     1      49.566 -29.898   4.098  1.00  0.00    -0.086 SA
HETATM    9  C   UNL     1      50.675 -31.104   3.294  1.00  0.00     0.135 C 
HETATM   10  C   UNL     1      46.429 -31.736   1.632  1.00  0.00     0.069 C 
ENDROOT
BRANCH   6  11
HETATM   11  C   UNL     1      50.769 -32.239   0.913  1.00  0.00     0.156 C 
BRANCH  11  12
HETATM   12  C   UNL     1      51.195 -31.352  -0.239  1.00  0.00     0.223 C 
HETATM   13  N   UNL     1      51.799 -32.036  -1.264  1.00  0.00    -0.359 N 
HETATM   14  H   UNL     1      51.979 -33.029  -1.128  1.00  0.00     0.162 HD
HETATM   15  O   UNL     1      51.030 -30.138  -0.232  1.00  0.00    -0.273 OA
BRANCH  13  16
HETATM   16  C   UNL     1      52.562 -31.434  -2.358  1.00  0.00     0.150 C 
BRANCH  16  17
HETATM   17  C   UNL     1      52.940 -32.342  -3.544  1.00  0.00     0.253 C 
BRANCH  17  18
HETATM   18  N   UNL     1      54.371 -32.170  -4.009  1.00  0.00    -0.077 N 
HETATM   19  H   UNL     1      54.767 -31.364  -3.485  1.00  0.00     0.279 HD
HETATM   20  C   UNL     1      55.262 -33.348  -3.724  1.00  0.00     0.269 C 
HETATM   21  C   UNL     1      54.416 -31.813  -5.470  1.00  0.00     0.269 C 
ENDBRANCH  17  18
ENDBRANCH  16  17
ENDBRANCH  13  16
ENDBRANCH  11  12
ENDBRANCH   6  11
BRANCH   7  22
HETATM   22  C   UNL     1      47.634 -30.261  -0.087  1.00  0.00    -0.009 A 
HETATM   23  C   UNL     1      47.731 -30.429  -1.489  1.00  0.00     0.042 A 
HETATM   24 CL   UNL     1      48.009 -31.964  -2.226  1.00  0.00    -0.084 Cl
HETATM   25  C   UNL     1      47.630 -29.340  -2.366  1.00  0.00     0.024 A 
HETATM   26  C   UNL     1      47.461 -28.051  -1.876  1.00  0.00     0.002 A 
HETATM   27  C   UNL     1      47.397 -27.845  -0.506  1.00  0.00     0.001 A 
HETATM   28  C   UNL     1      47.482 -28.929   0.375  1.00  0.00     0.011 A 
ENDBRANCH   7  22
BRANCH  10  29
HETATM   29  C   UNL     1      45.870 -33.108   1.406  1.00  0.00     0.294 C 
HETATM   30  O   UNL     1      45.668 -33.875   2.337  1.00  0.00    -0.259 OA
BRANCH  29  31
HETATM   31  O   UNL     1      45.318 -33.201   0.179  1.00  0.00    -0.313 OA
BRANCH  31  32
HETATM   32  C   UNL     1      44.026 -32.602  -0.004  1.00  0.00     0.217 C 
BRANCH  32  33
HETATM   33  C   UNL     1      44.098 -31.469  -1.011  1.00  0.00    -0.034 A 
HETATM   34  C   UNL     1      44.137 -31.700  -2.397  1.00  0.00     0.009 A 
HETATM   35  C   UNL     1      44.155 -30.639  -3.305  1.00  0.00     0.001 A 
HETATM   36  C   UNL     1      44.092 -29.328  -2.840  1.00  0.00     0.000 A 
HETATM   37  C   UNL     1      44.009 -29.082  -1.472  1.00  0.00     0.001 A 
HETATM   38  C   UNL     1      44.023 -30.143  -0.561  1.00  0.00     0.009 A 
ENDBRANCH  32  33
ENDBRANCH  31  32
ENDBRANCH  29  31
ENDBRANCH  10  29
TORSDOF 10
ENDMDL
