MODEL 1
REMARK VINA RESULT:      -8.8      0.000      0.000
REMARK  5 active torsions:
REMARK  status: ('A' for Active; 'I' for Inactive)
REMARK    1  A    between atoms: C_2  and  C_3 
REMARK    2  A    between atoms: C_7  and  C_8 
REMARK    3  A    between atoms: C_8  and  N_9 
REMARK       I    between atoms: N_9  and  C_10 
REMARK       I    between atoms: C_10  and  N_11 
REMARK    4  A    between atoms: N_11  and  C_12 
REMARK    5  A    between atoms: C_14  and  C_15 
ROOT
HETATM    1  N   UNL     1      41.517 -13.570   2.767  1.00  0.00    -0.333 N 
HETATM    2  C   UNL     1      41.620 -14.874   3.248  1.00  0.00     0.322 C 
HETATM    3  N   UNL     1      42.882 -15.413   3.151  1.00  0.00    -0.309 N 
HETATM    4  O   UNL     1      40.632 -15.466   3.677  1.00  0.00    -0.247 OA
HETATM    5  C   UNL     1      42.619 -12.617   2.682  1.00  0.00     0.155 C 
HETATM    6  H   UNL     1      43.504 -14.932   2.521  1.00  0.00     0.170 HD
ENDROOT
BRANCH   1   7
HETATM    7  C   UNL     1      40.186 -13.058   2.471  1.00  0.00     0.185 C 
BRANCH   7   8
HETATM    8  C   UNL     1      39.804 -13.377   1.075  1.00  0.00     0.047 A 
HETATM    9  N   UNL     1      39.834 -14.654   0.592  1.00  0.00    -0.280 N 
HETATM   10  N   UNL     1      39.479 -14.745  -0.701  1.00  0.00    -0.178 NA
HETATM   11  H   UNL     1      40.081 -15.502   1.101  1.00  0.00     0.189 HD
HETATM   12  C   UNL     1      39.226 -13.482  -1.070  1.00  0.00     0.064 A 
HETATM   13  C   UNL     1      39.413 -12.589   0.017  1.00  0.00     0.058 A 
BRANCH  12  14
HETATM   14  C   UNL     1      38.810 -13.129  -2.491  1.00  0.00    -0.005 C 
HETATM   15  C   UNL     1      38.583 -14.380  -3.365  1.00  0.00     0.021 C 
HETATM   16  C   UNL     1      39.908 -12.275  -3.158  1.00  0.00     0.021 C 
HETATM   17  C   UNL     1      37.496 -12.320  -2.469  1.00  0.00     0.021 C 
ENDBRANCH  12  14
ENDBRANCH   7   8
ENDBRANCH   1   7
BRANCH   3  18
HETATM   18  C   UNL     1      43.320 -16.681   3.587  1.00  0.00     0.037 A 
HETATM   19  C   UNL     1      43.221 -17.847   2.824  1.00  0.00     0.045 A 
HETATM   20  C   UNL     1      43.685 -19.078   3.325  1.00  0.00     0.050 A 
HETATM   21  C   UNL     1      44.258 -19.124   4.604  1.00  0.00     0.016 A 
HETATM   22  C   UNL     1      44.348 -17.968   5.375  1.00  0.00     0.003 A 
HETATM   23  C   UNL     1      43.877 -16.756   4.870  1.00  0.00     0.029 A 
BRANCH  20  24
HETATM   24  C   UNL     1      43.608 -20.326   2.482  1.00  0.00     0.417 C 
HETATM   25  F   UNL     1      44.489 -20.340   1.444  1.00  0.00    -0.166 F 
HETATM   26  F   UNL     1      43.856 -21.455   3.202  1.00  0.00    -0.166 F 
HETATM   27  F   UNL     1      42.378 -20.509   1.922  1.00  0.00    -0.166 F 
ENDBRANCH  20  24
ENDBRANCH   3  18
TORSDOF 5
ENDMDL
MODEL 2
REMARK VINA RESULT:      -8.0      5.366      8.220
REMARK  5 active torsions:
REMARK  status: ('A' for Active; 'I' for Inactive)
REMARK    1  A    between atoms: C_2  and  C_3 
REMARK    2  A    between atoms: C_7  and  C_8 
REMARK    3  A    between atoms: C_8  and  N_9 
REMARK       I    between atoms: N_9  and  C_10 
REMARK       I    between atoms: C_10  and  N_11 
REMARK    4  A    between atoms: N_11  and  C_12 
REMARK    5  A    between atoms: C_14  and  C_15 
ROOT
HETATM    1  N   UNL     1      41.356 -11.447   5.987  1.00  0.00    -0.333 N 
HETATM    2  C   UNL     1      42.338 -12.371   5.634  1.00  0.00     0.322 C 
HETATM    3  N   UNL     1      41.946 -13.684   5.760  1.00  0.00    -0.309 N 
HETATM    4  O   UNL     1      43.455 -11.999   5.284  1.00  0.00    -0.247 OA
HETATM    5  C   UNL     1      39.919 -11.695   5.960  1.00  0.00     0.155 C 
HETATM    6  H   UNL     1      41.128 -13.833   6.329  1.00  0.00     0.170 HD
ENDROOT
BRANCH   1   7
HETATM    7  C   UNL     1      41.778 -10.078   6.257  1.00  0.00     0.185 C 
BRANCH   7   8
HETATM    8  C   UNL     1      42.108  -9.908   7.691  1.00  0.00     0.047 A 
HETATM    9  N   UNL     1      41.178  -9.488   8.600  1.00  0.00    -0.280 N 
HETATM   10  N   UNL     1      41.666  -9.368   9.846  1.00  0.00    -0.178 NA
HETATM   11  H   UNL     1      40.197  -9.276   8.428  1.00  0.00     0.189 HD
HETATM   12  C   UNL     1      42.958  -9.708   9.737  1.00  0.00     0.064 A 
HETATM   13  C   UNL     1      43.277 -10.060   8.399  1.00  0.00     0.058 A 
BRANCH  12  14
HETATM   14  C   UNL     1      43.900  -9.682  10.932  1.00  0.00    -0.005 C 
HETATM   15  C   UNL     1      43.630  -8.483  11.866  1.00  0.00     0.021 C 
HETATM   16  C   UNL     1      45.360  -9.586  10.443  1.00  0.00     0.021 C 
HETATM   17  C   UNL     1      43.736 -10.974  11.759  1.00  0.00     0.021 C 
ENDBRANCH  12  14
ENDBRANCH   7   8
ENDBRANCH   1   7
BRANCH   3  18
HETATM   18  C   UNL     1      42.684 -14.844   5.442  1.00  0.00     0.037 A 
HETATM   19  C   UNL     1      42.600 -15.512   4.219  1.00  0.00     0.045 A 
HETATM   20  C   UNL     1      43.372 -16.664   3.972  1.00  0.00     0.050 A 
HETATM   21  C   UNL     1      44.237 -17.134   4.970  1.00  0.00     0.016 A 
HETATM   22  C   UNL     1      44.316 -16.480   6.196  1.00  0.00     0.003 A 
HETATM   23  C   UNL     1      43.539 -15.345   6.431  1.00  0.00     0.029 A 
BRANCH  20  24
HETATM   24  C   UNL     1      43.303 -17.359   2.636  1.00  0.00     0.417 C 
HETATM   25  F   UNL     1      43.698 -16.579   1.592  1.00  0.00    -0.166 F 
HETATM   26  F   UNL     1      44.086 -18.473   2.590  1.00  0.00    -0.166 F 
HETATM   27  F   UNL     1      42.044 -17.780   2.324  1.00  0.00    -0.166 F 
ENDBRANCH  20  24
ENDBRANCH   3  18
TORSDOF 5
ENDMDL
MODEL 3
REMARK VINA RESULT:      -7.9      4.400      7.333
REMARK  5 active torsions:
REMARK  status: ('A' for Active; 'I' for Inactive)
REMARK    1  A    between atoms: C_2  and  C_3 
REMARK    2  A    between atoms: C_7  and  C_8 
REMARK    3  A    between atoms: C_8  and  N_9 
REMARK       I    between atoms: N_9  and  C_10 
REMARK       I    between atoms: C_10  and  N_11 
REMARK    4  A    between atoms: N_11  and  C_12 
REMARK    5  A    between atoms: C_14  and  C_15 
ROOT
HETATM    1  N   UNL     1      41.777 -13.194   5.257  1.00  0.00    -0.333 N 
HETATM    2  C   UNL     1      42.453 -14.140   4.490  1.00  0.00     0.322 C 
HETATM    3  N   UNL     1      42.245 -15.441   4.888  1.00  0.00    -0.309 N 
HETATM    4  O   UNL     1      43.191 -13.794   3.571  1.00  0.00    -0.247 OA
HETATM    5  C   UNL     1      40.561 -13.446   6.022  1.00  0.00     0.155 C 
HETATM    6  H   UNL     1      41.867 -15.548   5.816  1.00  0.00     0.170 HD
ENDROOT
BRANCH   1   7
HETATM    7  C   UNL     1      42.220 -11.808   5.171  1.00  0.00     0.185 C 
BRANCH   7   8
HETATM    8  C   UNL     1      42.906 -11.403   6.420  1.00  0.00     0.047 A 
HETATM    9  N   UNL     1      43.656 -12.281   7.149  1.00  0.00    -0.280 N 
HETATM   10  N   UNL     1      44.181 -11.740   8.262  1.00  0.00    -0.178 NA
HETATM   11  H   UNL     1      43.851 -13.257   6.931  1.00  0.00     0.189 HD
HETATM   12  C   UNL     1      43.742 -10.474   8.260  1.00  0.00     0.064 A 
HETATM   13  C   UNL     1      42.941 -10.217   7.117  1.00  0.00     0.058 A 
BRANCH  12  14
HETATM   14  C   UNL     1      44.088  -9.502   9.379  1.00  0.00    -0.005 C 
HETATM   15  C   UNL     1      45.229 -10.024  10.278  1.00  0.00     0.021 C 
HETATM   16  C   UNL     1      42.849  -9.269  10.268  1.00  0.00     0.021 C 
HETATM   17  C   UNL     1      44.534  -8.151   8.783  1.00  0.00     0.021 C 
ENDBRANCH  12  14
ENDBRANCH   7   8
ENDBRANCH   1   7
BRANCH   3  18
HETATM   18  C   UNL     1      42.745 -16.620   4.296  1.00  0.00     0.037 A 
HETATM   19  C   UNL     1      43.136 -17.751   5.017  1.00  0.00     0.045 A 
HETATM   20  C   UNL     1      43.622 -18.895   4.355  1.00  0.00     0.050 A 
HETATM   21  C   UNL     1      43.704 -18.892   2.956  1.00  0.00     0.016 A 
HETATM   22  C   UNL     1      43.329 -17.764   2.232  1.00  0.00     0.003 A 
HETATM   23  C   UNL     1      42.857 -16.633   2.900  1.00  0.00     0.029 A 
BRANCH  20  24
HETATM   24  C   UNL     1      44.008 -20.125   5.137  1.00  0.00     0.417 C 
HETATM   25  F   UNL     1      45.345 -20.380   5.129  1.00  0.00    -0.166 F 
HETATM   26  F   UNL     1      43.648 -20.040   6.448  1.00  0.00    -0.166 F 
HETATM   27  F   UNL     1      43.415 -21.259   4.664  1.00  0.00    -0.166 F 
ENDBRANCH  20  24
ENDBRANCH   3  18
TORSDOF 5
ENDMDL
MODEL 4
REMARK VINA RESULT:      -7.9      1.938      2.604
REMARK  5 active torsions:
REMARK  status: ('A' for Active; 'I' for Inactive)
REMARK    1  A    between atoms: C_2  and  C_3 
REMARK    2  A    between atoms: C_7  and  C_8 
REMARK    3  A    between atoms: C_8  and  N_9 
REMARK       I    between atoms: N_9  and  C_10 
REMARK       I    between atoms: C_10  and  N_11 
REMARK    4  A    between atoms: N_11  and  C_12 
REMARK    5  A    between atoms: C_14  and  C_15 
ROOT
HETATM    1  N   UNL     1      41.075 -13.854   1.375  1.00  0.00    -0.333 N 
HETATM    2  C   UNL     1      41.286 -15.149   1.845  1.00  0.00     0.322 C 
HETATM    3  N   UNL     1      42.530 -15.352   2.396  1.00  0.00    -0.309 N 
HETATM    4  O   UNL     1      40.420 -16.012   1.721  1.00  0.00    -0.247 OA
HETATM    5  C   UNL     1      41.770 -12.664   1.851  1.00  0.00     0.155 C 
HETATM    6  H   UNL     1      43.219 -14.656   2.162  1.00  0.00     0.170 HD
ENDROOT
BRANCH   1   7
HETATM    7  C   UNL     1      39.970 -13.640   0.449  1.00  0.00     0.185 C 
BRANCH   7   8
HETATM    8  C   UNL     1      40.337 -12.634  -0.575  1.00  0.00     0.047 A 
HETATM    9  N   UNL     1      41.147 -12.940  -1.631  1.00  0.00    -0.280 N 
HETATM   10  N   UNL     1      41.388 -11.895  -2.440  1.00  0.00    -0.178 NA
HETATM   11  H   UNL     1      41.557 -13.846  -1.853  1.00  0.00     0.189 HD
HETATM   12  C   UNL     1      40.723 -10.875  -1.880  1.00  0.00     0.064 A 
HETATM   13  C   UNL     1      40.044 -11.296  -0.707  1.00  0.00     0.058 A 
BRANCH  12  14
HETATM   14  C   UNL     1      40.753  -9.474  -2.474  1.00  0.00    -0.005 C 
HETATM   15  C   UNL     1      41.950  -8.644  -1.962  1.00  0.00     0.021 C 
HETATM   16  C   UNL     1      39.459  -8.722  -2.102  1.00  0.00     0.021 C 
HETATM   17  C   UNL     1      40.856  -9.556  -4.011  1.00  0.00     0.021 C 
ENDBRANCH  12  14
ENDBRANCH   7   8
ENDBRANCH   1   7
BRANCH   3  18
HETATM   18  C   UNL     1      43.032 -16.526   2.995  1.00  0.00     0.037 A 
HETATM   19  C   UNL     1      42.992 -17.788   2.397  1.00  0.00     0.045 A 
HETATM   20  C   UNL     1      43.518 -18.916   3.057  1.00  0.00     0.050 A 
HETATM   21  C   UNL     1      44.093 -18.759   4.325  1.00  0.00     0.016 A 
HETATM   22  C   UNL     1      44.125 -17.507   4.933  1.00  0.00     0.003 A 
HETATM   23  C   UNL     1      43.592 -16.399   4.273  1.00  0.00     0.029 A 
BRANCH  20  24
HETATM   24  C   UNL     1      43.504 -20.268   2.390  1.00  0.00     0.417 C 
HETATM   25  F   UNL     1      42.338 -20.547   1.744  1.00  0.00    -0.166 F 
HETATM   26  F   UNL     1      44.491 -20.397   1.459  1.00  0.00    -0.166 F 
HETATM   27  F   UNL     1      43.690 -21.293   3.270  1.00  0.00    -0.166 F 
ENDBRANCH  20  24
ENDBRANCH   3  18
TORSDOF 5
ENDMDL
MODEL 5
REMARK VINA RESULT:      -7.6      2.757      4.900
REMARK  5 active torsions:
REMARK  status: ('A' for Active; 'I' for Inactive)
REMARK    1  A    between atoms: C_2  and  C_3 
REMARK    2  A    between atoms: C_7  and  C_8 
REMARK    3  A    between atoms: C_8  and  N_9 
REMARK       I    between atoms: N_9  and  C_10 
REMARK       I    between atoms: C_10  and  N_11 
REMARK    4  A    between atoms: N_11  and  C_12 
REMARK    5  A    between atoms: C_14  and  C_15 
ROOT
HETATM    1  N   UNL     1      40.741 -13.755   2.475  1.00  0.00    -0.333 N 
HETATM    2  C   UNL     1      41.108 -14.921   3.145  1.00  0.00     0.322 C 
HETATM    3  N   UNL     1      42.277 -15.487   2.690  1.00  0.00    -0.309 N 
HETATM    4  O   UNL     1      40.397 -15.388   4.031  1.00  0.00    -0.247 OA
HETATM    5  C   UNL     1      41.659 -12.862   1.778  1.00  0.00     0.155 C 
HETATM    6  H   UNL     1      42.582 -15.168   1.785  1.00  0.00     0.170 HD
ENDROOT
BRANCH   1   7
HETATM    7  C   UNL     1      39.362 -13.302   2.607  1.00  0.00     0.185 C 
BRANCH   7   8
HETATM    8  C   UNL     1      39.282 -12.134   3.513  1.00  0.00     0.047 A 
HETATM    9  N   UNL     1      38.725 -10.950   3.119  1.00  0.00    -0.280 N 
HETATM   10  N   UNL     1      38.764  -9.999   4.067  1.00  0.00    -0.178 NA
HETATM   11  H   UNL     1      38.297 -10.738   2.219  1.00  0.00     0.189 HD
HETATM   12  C   UNL     1      39.381 -10.582   5.104  1.00  0.00     0.064 A 
HETATM   13  C   UNL     1      39.719 -11.927   4.801  1.00  0.00     0.058 A 
BRANCH  12  14
HETATM   14  C   UNL     1      39.659  -9.832   6.399  1.00  0.00    -0.005 C 
HETATM   15  C   UNL     1      39.071 -10.551   7.632  1.00  0.00     0.021 C 
HETATM   16  C   UNL     1      39.037  -8.422   6.328  1.00  0.00     0.021 C 
HETATM   17  C   UNL     1      41.181  -9.694   6.611  1.00  0.00     0.021 C 
ENDBRANCH  12  14
ENDBRANCH   7   8
ENDBRANCH   1   7
BRANCH   3  18
HETATM   18  C   UNL     1      42.935 -16.633   3.184  1.00  0.00     0.037 A 
HETATM   19  C   UNL     1      42.896 -17.884   2.564  1.00  0.00     0.045 A 
HETATM   20  C   UNL     1      43.583 -18.983   3.115  1.00  0.00     0.050 A 
HETATM   21  C   UNL     1      44.319 -18.808   4.295  1.00  0.00     0.016 A 
HETATM   22  C   UNL     1      44.351 -17.567   4.926  1.00  0.00     0.003 A 
HETATM   23  C   UNL     1      43.659 -16.488   4.374  1.00  0.00     0.029 A 
BRANCH  20  24
HETATM   24  C   UNL     1      43.566 -20.322   2.421  1.00  0.00     0.417 C 
HETATM   25  F   UNL     1      43.781 -21.374   3.258  1.00  0.00    -0.166 F 
HETATM   26  F   UNL     1      42.379 -20.569   1.802  1.00  0.00    -0.166 F 
HETATM   27  F   UNL     1      44.518 -20.425   1.450  1.00  0.00    -0.166 F 
ENDBRANCH  20  24
ENDBRANCH   3  18
TORSDOF 5
ENDMDL
MODEL 6
REMARK VINA RESULT:      -7.5      8.215     10.143
REMARK  5 active torsions:
REMARK  status: ('A' for Active; 'I' for Inactive)
REMARK    1  A    between atoms: C_2  and  C_3 
REMARK    2  A    between atoms: C_7  and  C_8 
REMARK    3  A    between atoms: C_8  and  N_9 
REMARK       I    between atoms: N_9  and  C_10 
REMARK       I    between atoms: C_10  and  N_11 
REMARK    4  A    between atoms: N_11  and  C_12 
REMARK    5  A    between atoms: C_14  and  C_15 
ROOT
HETATM    1  N   UNL     1      42.944 -10.703   6.677  1.00  0.00    -0.333 N 
HETATM    2  C   UNL     1      43.230 -10.620   8.039  1.00  0.00     0.322 C 
HETATM    3  N   UNL     1      42.457  -9.710   8.722  1.00  0.00    -0.309 N 
HETATM    4  O   UNL     1      44.131 -11.293   8.534  1.00  0.00    -0.247 OA
HETATM    5  C   UNL     1      41.667 -10.354   6.065  1.00  0.00     0.155 C 
HETATM    6  H   UNL     1      41.981  -9.035   8.146  1.00  0.00     0.170 HD
ENDROOT
BRANCH   1   7
HETATM    7  C   UNL     1      43.935 -11.330   5.812  1.00  0.00     0.185 C 
BRANCH   7   8
HETATM    8  C   UNL     1      43.527 -12.712   5.470  1.00  0.00     0.047 A 
HETATM    9  N   UNL     1      43.507 -13.711   6.402  1.00  0.00    -0.280 N 
HETATM   10  N   UNL     1      43.135 -14.901   5.902  1.00  0.00    -0.178 NA
HETATM   11  H   UNL     1      43.730 -13.636   7.393  1.00  0.00     0.189 HD
HETATM   12  C   UNL     1      42.921 -14.667   4.599  1.00  0.00     0.064 A 
HETATM   13  C   UNL     1      43.151 -13.302   4.285  1.00  0.00     0.058 A 
BRANCH  12  14
HETATM   14  C   UNL     1      42.503 -15.774   3.642  1.00  0.00    -0.005 C 
HETATM   15  C   UNL     1      43.070 -15.567   2.222  1.00  0.00     0.021 C 
HETATM   16  C   UNL     1      40.965 -15.820   3.540  1.00  0.00     0.021 C 
HETATM   17  C   UNL     1      43.008 -17.136   4.161  1.00  0.00     0.021 C 
ENDBRANCH  12  14
ENDBRANCH   7   8
ENDBRANCH   1   7
BRANCH   3  18
HETATM   18  C   UNL     1      42.469  -9.426  10.104  1.00  0.00     0.037 A 
HETATM   19  C   UNL     1      41.399  -9.684  10.965  1.00  0.00     0.045 A 
HETATM   20  C   UNL     1      41.486  -9.377  12.336  1.00  0.00     0.050 A 
HETATM   21  C   UNL     1      42.667  -8.812  12.836  1.00  0.00     0.016 A 
HETATM   22  C   UNL     1      43.733  -8.541  11.983  1.00  0.00     0.003 A 
HETATM   23  C   UNL     1      43.631  -8.842  10.624  1.00  0.00     0.029 A 
BRANCH  20  24
HETATM   24  C   UNL     1      40.340  -9.691  13.265  1.00  0.00     0.417 C 
HETATM   25  F   UNL     1      40.014 -11.013  13.303  1.00  0.00    -0.166 F 
HETATM   26  F   UNL     1      40.603  -9.331  14.552  1.00  0.00    -0.166 F 
HETATM   27  F   UNL     1      39.192  -9.039  12.926  1.00  0.00    -0.166 F 
ENDBRANCH  20  24
ENDBRANCH   3  18
TORSDOF 5
ENDMDL
MODEL 7
REMARK VINA RESULT:      -7.4      2.511      3.014
REMARK  5 active torsions:
REMARK  status: ('A' for Active; 'I' for Inactive)
REMARK    1  A    between atoms: C_2  and  C_3 
REMARK    2  A    between atoms: C_7  and  C_8 
REMARK    3  A    between atoms: C_8  and  N_9 
REMARK       I    between atoms: N_9  and  C_10 
REMARK       I    between atoms: C_10  and  N_11 
REMARK    4  A    between atoms: N_11  and  C_12 
REMARK    5  A    between atoms: C_14  and  C_15 
ROOT
HETATM    1  N   UNL     1      41.097 -12.099   2.720  1.00  0.00    -0.333 N 
HETATM    2  C   UNL     1      41.189 -13.384   3.252  1.00  0.00     0.322 C 
HETATM    3  N   UNL     1      42.396 -14.004   3.023  1.00  0.00    -0.309 N 
HETATM    4  O   UNL     1      40.235 -13.894   3.834  1.00  0.00    -0.247 OA
HETATM    5  C   UNL     1      42.229 -11.221   2.445  1.00  0.00     0.155 C 
HETATM    6  H   UNL     1      42.956 -13.591   2.294  1.00  0.00     0.170 HD
ENDROOT
BRANCH   1   7
HETATM    7  C   UNL     1      39.768 -11.520   2.570  1.00  0.00     0.185 C 
BRANCH   7   8
HETATM    8  C   UNL     1      39.220 -11.816   1.227  1.00  0.00     0.047 A 
HETATM    9  N   UNL     1      38.087 -11.213   0.760  1.00  0.00    -0.280 N 
HETATM   10  N   UNL     1      37.729 -11.625  -0.468  1.00  0.00    -0.178 NA
HETATM   11  H   UNL     1      37.523 -10.508   1.232  1.00  0.00     0.189 HD
HETATM   12  C   UNL     1      38.654 -12.536  -0.800  1.00  0.00     0.064 A 
HETATM   13  C   UNL     1      39.614 -12.685   0.234  1.00  0.00     0.058 A 
BRANCH  12  14
HETATM   14  C   UNL     1      38.605 -13.283  -2.126  1.00  0.00    -0.005 C 
HETATM   15  C   UNL     1      39.014 -14.764  -1.980  1.00  0.00     0.021 C 
HETATM   16  C   UNL     1      39.567 -12.620  -3.133  1.00  0.00     0.021 C 
HETATM   17  C   UNL     1      37.174 -13.241  -2.701  1.00  0.00     0.021 C 
ENDBRANCH  12  14
ENDBRANCH   7   8
ENDBRANCH   1   7
BRANCH   3  18
HETATM   18  C   UNL     1      42.817 -15.276   3.465  1.00  0.00     0.037 A 
HETATM   19  C   UNL     1      42.978 -15.622   4.808  1.00  0.00     0.045 A 
HETATM   20  C   UNL     1      43.398 -16.916   5.174  1.00  0.00     0.050 A 
HETATM   21  C   UNL     1      43.648 -17.862   4.171  1.00  0.00     0.016 A 
HETATM   22  C   UNL     1      43.501 -17.520   2.829  1.00  0.00     0.003 A 
HETATM   23  C   UNL     1      43.093 -16.232   2.480  1.00  0.00     0.029 A 
BRANCH  20  24
HETATM   24  C   UNL     1      43.536 -17.293   6.628  1.00  0.00     0.417 C 
HETATM   25  F   UNL     1      44.700 -16.871   7.194  1.00  0.00    -0.166 F 
HETATM   26  F   UNL     1      42.535 -16.776   7.394  1.00  0.00    -0.166 F 
HETATM   27  F   UNL     1      43.496 -18.641   6.829  1.00  0.00    -0.166 F 
ENDBRANCH  20  24
ENDBRANCH   3  18
TORSDOF 5
ENDMDL
MODEL 8
REMARK VINA RESULT:      -7.2      9.604     11.445
REMARK  5 active torsions:
REMARK  status: ('A' for Active; 'I' for Inactive)
REMARK    1  A    between atoms: C_2  and  C_3 
REMARK    2  A    between atoms: C_7  and  C_8 
REMARK    3  A    between atoms: C_8  and  N_9 
REMARK       I    between atoms: N_9  and  C_10 
REMARK       I    between atoms: C_10  and  N_11 
REMARK    4  A    between atoms: N_11  and  C_12 
REMARK    5  A    between atoms: C_14  and  C_15 
ROOT
HETATM    1  N   UNL     1      43.430 -10.268   8.044  1.00  0.00    -0.333 N 
HETATM    2  C   UNL     1      43.295 -10.349   9.429  1.00  0.00     0.322 C 
HETATM    3  N   UNL     1      42.598  -9.303   9.989  1.00  0.00    -0.309 N 
HETATM    4  O   UNL     1      43.806 -11.273  10.057  1.00  0.00    -0.247 OA
HETATM    5  C   UNL     1      42.530  -9.545   7.153  1.00  0.00     0.155 C 
HETATM    6  H   UNL     1      42.504  -8.490   9.402  1.00  0.00     0.170 HD
ENDROOT
BRANCH   1   7
HETATM    7  C   UNL     1      44.452 -11.092   7.412  1.00  0.00     0.185 C 
BRANCH   7   8
HETATM    8  C   UNL     1      43.847 -12.298   6.802  1.00  0.00     0.047 A 
HETATM    9  N   UNL     1      43.322 -13.305   7.562  1.00  0.00    -0.280 N 
HETATM   10  N   UNL     1      42.840 -14.327   6.835  1.00  0.00    -0.178 NA
HETATM   11  H   UNL     1      43.259 -13.345   8.578  1.00  0.00     0.189 HD
HETATM   12  C   UNL     1      43.074 -13.976   5.563  1.00  0.00     0.064 A 
HETATM   13  C   UNL     1      43.701 -12.705   5.496  1.00  0.00     0.058 A 
BRANCH  12  14
HETATM   14  C   UNL     1      42.701 -14.881   4.398  1.00  0.00    -0.005 C 
HETATM   15  C   UNL     1      43.472 -16.218   4.423  1.00  0.00     0.021 C 
HETATM   16  C   UNL     1      43.018 -14.173   3.065  1.00  0.00     0.021 C 
HETATM   17  C   UNL     1      41.193 -15.203   4.444  1.00  0.00     0.021 C 
ENDBRANCH  12  14
ENDBRANCH   7   8
ENDBRANCH   1   7
BRANCH   3  18
HETATM   18  C   UNL     1      42.255  -9.117  11.344  1.00  0.00     0.037 A 
HETATM   19  C   UNL     1      42.808  -8.129  12.162  1.00  0.00     0.045 A 
HETATM   20  C   UNL     1      42.411  -8.000  13.507  1.00  0.00     0.050 A 
HETATM   21  C   UNL     1      41.444  -8.875  14.021  1.00  0.00     0.016 A 
HETATM   22  C   UNL     1      40.897  -9.870  13.215  1.00  0.00     0.003 A 
HETATM   23  C   UNL     1      41.305  -9.992  11.886  1.00  0.00     0.029 A 
BRANCH  20  24
HETATM   24  C   UNL     1      42.987  -6.908  14.374  1.00  0.00     0.417 C 
HETATM   25  F   UNL     1      42.491  -5.671  14.095  1.00  0.00    -0.166 F 
HETATM   26  F   UNL     1      42.750  -7.120  15.698  1.00  0.00    -0.166 F 
HETATM   27  F   UNL     1      44.340  -6.797  14.253  1.00  0.00    -0.166 F 
ENDBRANCH  20  24
ENDBRANCH   3  18
TORSDOF 5
ENDMDL
MODEL 9
REMARK VINA RESULT:      -7.1     14.262     16.428
REMARK  5 active torsions:
REMARK  status: ('A' for Active; 'I' for Inactive)
REMARK    1  A    between atoms: C_2  and  C_3 
REMARK    2  A    between atoms: C_7  and  C_8 
REMARK    3  A    between atoms: C_8  and  N_9 
REMARK       I    between atoms: N_9  and  C_10 
REMARK       I    between atoms: C_10  and  N_11 
REMARK    4  A    between atoms: N_11  and  C_12 
REMARK    5  A    between atoms: C_14  and  C_15 
ROOT
HETATM    1  N   UNL     1      42.636 -30.480   2.994  1.00  0.00    -0.333 N 
HETATM    2  C   UNL     1      42.954 -29.725   1.866  1.00  0.00     0.322 C 
HETATM    3  N   UNL     1      44.220 -29.949   1.377  1.00  0.00    -0.309 N 
HETATM    4  O   UNL     1      42.154 -28.913   1.408  1.00  0.00    -0.247 OA
HETATM    5  C   UNL     1      43.247 -31.756   3.350  1.00  0.00     0.155 C 
HETATM    6  H   UNL     1      44.850 -30.406   2.016  1.00  0.00     0.170 HD
ENDROOT
BRANCH   1   7
HETATM    7  C   UNL     1      41.501 -30.051   3.801  1.00  0.00     0.185 C 
BRANCH   7   8
HETATM    8  C   UNL     1      40.547 -31.167   3.994  1.00  0.00     0.047 A 
HETATM    9  N   UNL     1      39.985 -31.827   2.938  1.00  0.00    -0.280 N 
HETATM   10  N   UNL     1      39.126 -32.792   3.307  1.00  0.00    -0.178 NA
HETATM   11  H   UNL     1      40.155 -31.666   1.946  1.00  0.00     0.189 HD
HETATM   12  C   UNL     1      39.123 -32.746   4.647  1.00  0.00     0.064 A 
HETATM   13  C   UNL     1      40.006 -31.741   5.121  1.00  0.00     0.058 A 
BRANCH  12  14
HETATM   14  C   UNL     1      38.248 -33.671   5.480  1.00  0.00    -0.005 C 
HETATM   15  C   UNL     1      38.617 -35.158   5.288  1.00  0.00     0.021 C 
HETATM   16  C   UNL     1      36.769 -33.492   5.080  1.00  0.00     0.021 C 
HETATM   17  C   UNL     1      38.402 -33.334   6.977  1.00  0.00     0.021 C 
ENDBRANCH  12  14
ENDBRANCH   7   8
ENDBRANCH   1   7
BRANCH   3  18
HETATM   18  C   UNL     1      44.821 -29.382   0.234  1.00  0.00     0.037 A 
HETATM   19  C   UNL     1      44.352 -29.567  -1.069  1.00  0.00     0.045 A 
HETATM   20  C   UNL     1      45.003 -28.964  -2.163  1.00  0.00     0.050 A 
HETATM   21  C   UNL     1      46.131 -28.164  -1.930  1.00  0.00     0.016 A 
HETATM   22  C   UNL     1      46.612 -27.986  -0.636  1.00  0.00     0.003 A 
HETATM   23  C   UNL     1      45.962 -28.596   0.438  1.00  0.00     0.029 A 
BRANCH  20  24
HETATM   24  C   UNL     1      44.471 -29.139  -3.562  1.00  0.00     0.417 C 
HETATM   25  F   UNL     1      43.112 -29.213  -3.625  1.00  0.00    -0.166 F 
HETATM   26  F   UNL     1      44.831 -28.116  -4.386  1.00  0.00    -0.166 F 
HETATM   27  F   UNL     1      44.928 -30.275  -4.163  1.00  0.00    -0.166 F 
ENDBRANCH  20  24
ENDBRANCH   3  18
TORSDOF 5
ENDMDL
MODEL 10
REMARK VINA RESULT:      -7.1      4.560      7.510
REMARK  5 active torsions:
REMARK  status: ('A' for Active; 'I' for Inactive)
REMARK    1  A    between atoms: C_2  and  C_3 
REMARK    2  A    between atoms: C_7  and  C_8 
REMARK    3  A    between atoms: C_8  and  N_9 
REMARK       I    between atoms: N_9  and  C_10 
REMARK       I    between atoms: C_10  and  N_11 
REMARK    4  A    between atoms: N_11  and  C_12 
REMARK    5  A    between atoms: C_14  and  C_15 
ROOT
HETATM    1  N   UNL     1      41.498 -11.487   4.753  1.00  0.00    -0.333 N 
HETATM    2  C   UNL     1      41.611 -12.874   4.830  1.00  0.00     0.322 C 
HETATM    3  N   UNL     1      41.974 -13.476   3.648  1.00  0.00    -0.309 N 
HETATM    4  O   UNL     1      41.358 -13.468   5.876  1.00  0.00    -0.247 OA
HETATM    5  C   UNL     1      42.188 -10.641   3.785  1.00  0.00     0.155 C 
HETATM    6  H   UNL     1      41.856 -12.908   2.825  1.00  0.00     0.170 HD
ENDROOT
BRANCH   1   7
HETATM    7  C   UNL     1      40.763 -10.805   5.810  1.00  0.00     0.185 C 
BRANCH   7   8
HETATM    8  C   UNL     1      41.689 -10.312   6.855  1.00  0.00     0.047 A 
HETATM    9  N   UNL     1      41.308  -9.378   7.776  1.00  0.00    -0.280 N 
HETATM   10  N   UNL     1      42.289  -9.036   8.628  1.00  0.00    -0.178 NA
HETATM   11  H   UNL     1      40.391  -8.945   7.874  1.00  0.00     0.189 HD
HETATM   12  C   UNL     1      43.345  -9.762   8.235  1.00  0.00     0.064 A 
HETATM   13  C   UNL     1      43.011 -10.583   7.126  1.00  0.00     0.058 A 
BRANCH  12  14
HETATM   14  C   UNL     1      44.696  -9.656   8.928  1.00  0.00    -0.005 C 
HETATM   15  C   UNL     1      44.606  -9.956  10.439  1.00  0.00     0.021 C 
HETATM   16  C   UNL     1      45.258  -8.229   8.758  1.00  0.00     0.021 C 
HETATM   17  C   UNL     1      45.688 -10.659   8.304  1.00  0.00     0.021 C 
ENDBRANCH  12  14
ENDBRANCH   7   8
ENDBRANCH   1   7
BRANCH   3  18
HETATM   18  C   UNL     1      42.213 -14.846   3.410  1.00  0.00     0.037 A 
HETATM   19  C   UNL     1      43.105 -15.624   4.152  1.00  0.00     0.045 A 
HETATM   20  C   UNL     1      43.289 -16.989   3.858  1.00  0.00     0.050 A 
HETATM   21  C   UNL     1      42.558 -17.567   2.811  1.00  0.00     0.016 A 
HETATM   22  C   UNL     1      41.677 -16.795   2.058  1.00  0.00     0.003 A 
HETATM   23  C   UNL     1      41.511 -15.441   2.355  1.00  0.00     0.029 A 
BRANCH  20  24
HETATM   24  C   UNL     1      44.226 -17.831   4.686  1.00  0.00     0.417 C 
HETATM   25  F   UNL     1      45.005 -18.669   3.948  1.00  0.00    -0.166 F 
HETATM   26  F   UNL     1      45.083 -17.075   5.427  1.00  0.00    -0.166 F 
HETATM   27  F   UNL     1      43.572 -18.628   5.578  1.00  0.00    -0.166 F 
ENDBRANCH  20  24
ENDBRANCH   3  18
TORSDOF 5
ENDMDL
