MODEL 1
REMARK VINA RESULT:      -9.0      0.000      0.000
REMARK  5 active torsions:
REMARK  status: ('A' for Active; 'I' for Inactive)
REMARK    1  A    between atoms: C_9  and  N_10 
REMARK       I    between atoms: N_10  and  C_11 
REMARK    2  A    between atoms: C_11  and  C_12 
REMARK    3  A    between atoms: C_16  and  C_17 
REMARK    4  A    between atoms: C_17  and  O_18 
REMARK    5  A    between atoms: O_18  and  C_19 
ROOT
HETATM    1  C   UNL     1      43.077 -16.786   2.785  1.00  0.00     0.153 A 
HETATM    2  O   UNL     1      43.127 -17.953   2.066  1.00  0.00    -0.304 OA
HETATM    3  C   UNL     1      43.503 -18.940   2.922  1.00  0.00     0.087 A 
HETATM    4  C   UNL     1      43.681 -18.430   4.202  1.00  0.00     0.009 A 
HETATM    5  C   UNL     1      43.400 -17.030   4.113  1.00  0.00     0.018 A 
HETATM    6  C   UNL     1      43.686 -20.277   2.576  1.00  0.00     0.038 A 
HETATM    7  C   UNL     1      44.073 -21.140   3.605  1.00  0.00     0.003 A 
HETATM    8  C   UNL     1      44.258 -20.672   4.908  1.00  0.00     0.001 A 
HETATM    9  C   UNL     1      44.062 -19.320   5.225  1.00  0.00     0.015 A 
ENDROOT
BRANCH   1  10
HETATM   10  C   UNL     1      42.729 -15.561   2.083  1.00  0.00     0.280 C 
HETATM   11  N   UNL     1      41.358 -15.374   1.995  1.00  0.00    -0.321 N 
HETATM   12  H   UNL     1      40.811 -16.091   2.463  1.00  0.00     0.169 HD
HETATM   13  O   UNL     1      43.570 -14.800   1.617  1.00  0.00    -0.265 OA
BRANCH  11  14
HETATM   14  C   UNL     1      40.659 -14.344   1.343  1.00  0.00     0.035 A 
HETATM   15  C   UNL     1      40.239 -14.418   0.012  1.00  0.00     0.039 A 
HETATM   16  C   UNL     1      39.522 -13.357  -0.525  1.00  0.00    -0.022 A 
HETATM   17  C   UNL     1      38.937 -13.255  -1.890  1.00  0.00     0.274 C 
HETATM   18  C   UNL     1      39.222 -12.226   0.233  1.00  0.00    -0.025 A 
HETATM   19  N   UNL     1      38.372 -11.839  -1.972  1.00  0.00    -0.067 N 
HETATM   20  C   UNL     1      37.040 -11.756  -2.632  1.00  0.00     0.270 C 
HETATM   21  H   UNL     1      39.048 -11.296  -2.522  1.00  0.00     0.280 HD
HETATM   22  C   UNL     1      38.408 -11.264  -0.560  1.00  0.00     0.273 C 
HETATM   23  C   UNL     1      39.637 -12.128   1.549  1.00  0.00     0.012 A 
HETATM   24  C   UNL     1      40.356 -13.195   2.100  1.00  0.00     0.030 A 
ENDBRANCH  11  14
ENDBRANCH   1  10
BRANCH   5  25
HETATM   25  C   UNL     1      43.424 -16.034   5.225  1.00  0.00     0.218 C 
BRANCH  25  26
HETATM   26  O   UNL     1      42.092 -15.787   5.678  1.00  0.00    -0.347 OA
BRANCH  26  27
HETATM   27  C   UNL     1      41.652 -14.493   5.656  1.00  0.00     0.069 A 
HETATM   28  C   UNL     1      42.589 -13.569   5.185  1.00  0.00     0.037 A 
HETATM   29  C   UNL     1      42.272 -12.212   5.102  1.00  0.00     0.003 A 
HETATM   30  C   UNL     1      41.011 -11.770   5.490  1.00  0.00     0.000 A 
HETATM   31  C   UNL     1      40.071 -12.685   5.963  1.00  0.00     0.003 A 
HETATM   32  C   UNL     1      40.389 -14.045   6.047  1.00  0.00     0.037 A 
ENDBRANCH  26  27
ENDBRANCH  25  26
ENDBRANCH   5  25
TORSDOF 5
ENDMDL
MODEL 2
REMARK VINA RESULT:      -8.9      3.343      6.892
REMARK  5 active torsions:
REMARK  status: ('A' for Active; 'I' for Inactive)
REMARK    1  A    between atoms: C_9  and  N_10 
REMARK       I    between atoms: N_10  and  C_11 
REMARK    2  A    between atoms: C_11  and  C_12 
REMARK    3  A    between atoms: C_16  and  C_17 
REMARK    4  A    between atoms: C_17  and  O_18 
REMARK    5  A    between atoms: O_18  and  C_19 
ROOT
HETATM    1  C   UNL     1      43.268 -15.478   5.322  1.00  0.00     0.153 A 
HETATM    2  O   UNL     1      44.115 -16.549   5.443  1.00  0.00    -0.304 OA
HETATM    3  C   UNL     1      43.845 -17.399   4.417  1.00  0.00     0.087 A 
HETATM    4  C   UNL     1      42.838 -16.880   3.612  1.00  0.00     0.009 A 
HETATM    5  C   UNL     1      42.465 -15.631   4.199  1.00  0.00     0.018 A 
HETATM    6  C   UNL     1      44.482 -18.617   4.193  1.00  0.00     0.038 A 
HETATM    7  C   UNL     1      44.060 -19.345   3.077  1.00  0.00     0.003 A 
HETATM    8  C   UNL     1      43.055 -18.860   2.237  1.00  0.00     0.001 A 
HETATM    9  C   UNL     1      42.435 -17.628   2.488  1.00  0.00     0.015 A 
ENDROOT
BRANCH   1  10
HETATM   10  C   UNL     1      43.334 -14.432   6.330  1.00  0.00     0.280 C 
HETATM   11  N   UNL     1      43.793 -13.230   5.814  1.00  0.00    -0.321 N 
HETATM   12  H   UNL     1      43.974 -13.249   4.815  1.00  0.00     0.169 HD
HETATM   13  O   UNL     1      43.025 -14.619   7.502  1.00  0.00    -0.265 OA
BRANCH  11  14
HETATM   14  C   UNL     1      44.041 -12.027   6.497  1.00  0.00     0.035 A 
HETATM   15  C   UNL     1      43.037 -11.131   6.873  1.00  0.00     0.039 A 
HETATM   16  C   UNL     1      43.388  -9.988   7.579  1.00  0.00    -0.022 A 
HETATM   17  C   UNL     1      42.479  -8.939   8.119  1.00  0.00     0.274 C 
HETATM   18  C   UNL     1      44.715  -9.717   7.910  1.00  0.00    -0.025 A 
HETATM   19  N   UNL     1      43.406  -7.869   8.689  1.00  0.00    -0.067 N 
HETATM   20  C   UNL     1      42.963  -7.319   9.999  1.00  0.00     0.270 C 
HETATM   21  H   UNL     1      43.420  -7.110   7.999  1.00  0.00     0.280 HD
HETATM   22  C   UNL     1      44.812  -8.461   8.702  1.00  0.00     0.273 C 
HETATM   23  C   UNL     1      45.725 -10.586   7.538  1.00  0.00     0.012 A 
HETATM   24  C   UNL     1      45.381 -11.744   6.832  1.00  0.00     0.030 A 
ENDBRANCH  11  14
ENDBRANCH   1  10
BRANCH   5  25
HETATM   25  C   UNL     1      41.441 -14.669   3.696  1.00  0.00     0.218 C 
BRANCH  25  26
HETATM   26  O   UNL     1      42.008 -13.854   2.669  1.00  0.00    -0.347 OA
BRANCH  26  27
HETATM   27  C   UNL     1      41.318 -13.755   1.494  1.00  0.00     0.069 A 
HETATM   28  C   UNL     1      40.616 -14.909   1.134  1.00  0.00     0.037 A 
HETATM   29  C   UNL     1      39.861 -14.948  -0.040  1.00  0.00     0.003 A 
HETATM   30  C   UNL     1      39.804 -13.828  -0.864  1.00  0.00     0.000 A 
HETATM   31  C   UNL     1      40.503 -12.674  -0.514  1.00  0.00     0.003 A 
HETATM   32  C   UNL     1      41.260 -12.635   0.662  1.00  0.00     0.037 A 
ENDBRANCH  26  27
ENDBRANCH  25  26
ENDBRANCH   5  25
TORSDOF 5
ENDMDL
MODEL 3
REMARK VINA RESULT:      -8.8      3.510      6.463
REMARK  5 active torsions:
REMARK  status: ('A' for Active; 'I' for Inactive)
REMARK    1  A    between atoms: C_9  and  N_10 
REMARK       I    between atoms: N_10  and  C_11 
REMARK    2  A    between atoms: C_11  and  C_12 
REMARK    3  A    between atoms: C_16  and  C_17 
REMARK    4  A    between atoms: C_17  and  O_18 
REMARK    5  A    between atoms: O_18  and  C_19 
ROOT
HETATM    1  C   UNL     1      43.309 -15.402   5.324  1.00  0.00     0.153 A 
HETATM    2  O   UNL     1      44.035 -16.546   5.535  1.00  0.00    -0.304 OA
HETATM    3  C   UNL     1      43.796 -17.377   4.486  1.00  0.00     0.087 A 
HETATM    4  C   UNL     1      42.932 -16.775   3.579  1.00  0.00     0.009 A 
HETATM    5  C   UNL     1      42.619 -15.490   4.123  1.00  0.00     0.018 A 
HETATM    6  C   UNL     1      44.335 -18.652   4.331  1.00  0.00     0.038 A 
HETATM    7  C   UNL     1      43.966 -19.349   3.177  1.00  0.00     0.003 A 
HETATM    8  C   UNL     1      43.105 -18.780   2.235  1.00  0.00     0.001 A 
HETATM    9  C   UNL     1      42.582 -17.493   2.420  1.00  0.00     0.015 A 
ENDROOT
BRANCH   1  10
HETATM   10  C   UNL     1      43.368 -14.356   6.334  1.00  0.00     0.280 C 
HETATM   11  N   UNL     1      43.828 -13.153   5.822  1.00  0.00    -0.321 N 
HETATM   12  H   UNL     1      44.015 -13.171   4.823  1.00  0.00     0.169 HD
HETATM   13  O   UNL     1      43.052 -14.544   7.504  1.00  0.00    -0.265 OA
BRANCH  11  14
HETATM   14  C   UNL     1      44.069 -11.950   6.507  1.00  0.00     0.035 A 
HETATM   15  C   UNL     1      43.068 -11.030   6.829  1.00  0.00     0.039 A 
HETATM   16  C   UNL     1      43.409  -9.889   7.542  1.00  0.00    -0.022 A 
HETATM   17  C   UNL     1      42.500  -8.817   8.032  1.00  0.00     0.274 C 
HETATM   18  C   UNL     1      44.725  -9.643   7.933  1.00  0.00    -0.025 A 
HETATM   19  N   UNL     1      43.422  -7.762   8.638  1.00  0.00    -0.067 N 
HETATM   20  C   UNL     1      42.929  -7.192   9.921  1.00  0.00     0.270 C 
HETATM   21  H   UNL     1      43.483  -7.009   7.943  1.00  0.00     0.280 HD
HETATM   22  C   UNL     1      44.812  -8.383   8.720  1.00  0.00     0.273 C 
HETATM   23  C   UNL     1      45.733 -10.535   7.615  1.00  0.00     0.012 A 
HETATM   24  C   UNL     1      45.397 -11.692   6.902  1.00  0.00     0.030 A 
ENDBRANCH  11  14
ENDBRANCH   1  10
BRANCH   5  25
HETATM   25  C   UNL     1      41.748 -14.442   3.514  1.00  0.00     0.218 C 
BRANCH  25  26
HETATM   26  O   UNL     1      40.547 -14.311   4.275  1.00  0.00    -0.347 OA
BRANCH  26  27
HETATM   27  C   UNL     1      40.243 -13.070   4.760  1.00  0.00     0.069 A 
HETATM   28  C   UNL     1      40.490 -12.022   3.868  1.00  0.00     0.037 A 
HETATM   29  C   UNL     1      40.220 -10.700   4.229  1.00  0.00     0.003 A 
HETATM   30  C   UNL     1      39.697 -10.419   5.488  1.00  0.00     0.000 A 
HETATM   31  C   UNL     1      39.450 -11.458   6.383  1.00  0.00     0.003 A 
HETATM   32  C   UNL     1      39.722 -12.782   6.023  1.00  0.00     0.037 A 
ENDBRANCH  26  27
ENDBRANCH  25  26
ENDBRANCH   5  25
TORSDOF 5
ENDMDL
MODEL 4
REMARK VINA RESULT:      -8.8      3.564      8.006
REMARK  5 active torsions:
REMARK  status: ('A' for Active; 'I' for Inactive)
REMARK    1  A    between atoms: C_9  and  N_10 
REMARK       I    between atoms: N_10  and  C_11 
REMARK    2  A    between atoms: C_11  and  C_12 
REMARK    3  A    between atoms: C_16  and  C_17 
REMARK    4  A    between atoms: C_17  and  O_18 
REMARK    5  A    between atoms: O_18  and  C_19 
ROOT
HETATM    1  C   UNL     1      42.516 -12.778   2.890  1.00  0.00     0.153 A 
HETATM    2  O   UNL     1      42.069 -12.138   1.763  1.00  0.00    -0.304 OA
HETATM    3  C   UNL     1      41.299 -13.022   1.074  1.00  0.00     0.087 A 
HETATM    4  C   UNL     1      41.224 -14.231   1.755  1.00  0.00     0.009 A 
HETATM    5  C   UNL     1      42.012 -14.071   2.937  1.00  0.00     0.018 A 
HETATM    6  C   UNL     1      40.670 -12.764  -0.141  1.00  0.00     0.038 A 
HETATM    7  C   UNL     1      39.918 -13.807  -0.689  1.00  0.00     0.003 A 
HETATM    8  C   UNL     1      39.810 -15.038  -0.037  1.00  0.00     0.001 A 
HETATM    9  C   UNL     1      40.454 -15.265   1.188  1.00  0.00     0.015 A 
ENDROOT
BRANCH   1  10
HETATM   10  C   UNL     1      43.398 -12.049   3.789  1.00  0.00     0.280 C 
HETATM   11  N   UNL     1      42.955 -12.079   5.102  1.00  0.00    -0.321 N 
HETATM   12  H   UNL     1      42.115 -12.631   5.244  1.00  0.00     0.169 HD
HETATM   13  O   UNL     1      44.408 -11.470   3.403  1.00  0.00    -0.265 OA
BRANCH  11  14
HETATM   14  C   UNL     1      43.513 -11.442   6.224  1.00  0.00     0.035 A 
HETATM   15  C   UNL     1      42.799 -10.576   7.056  1.00  0.00     0.039 A 
HETATM   16  C   UNL     1      43.436 -10.030   8.161  1.00  0.00    -0.022 A 
HETATM   17  C   UNL     1      42.851  -9.137   9.198  1.00  0.00     0.274 C 
HETATM   18  C   UNL     1      44.769 -10.321   8.449  1.00  0.00    -0.025 A 
HETATM   19  N   UNL     1      44.024  -8.749  10.096  1.00  0.00    -0.067 N 
HETATM   20  C   UNL     1      43.704  -8.758  11.548  1.00  0.00     0.270 C 
HETATM   21  H   UNL     1      44.287  -7.797   9.820  1.00  0.00     0.280 HD
HETATM   22  C   UNL     1      45.194  -9.647   9.706  1.00  0.00     0.273 C 
HETATM   23  C   UNL     1      45.498 -11.166   7.632  1.00  0.00     0.012 A 
HETATM   24  C   UNL     1      44.862 -11.727   6.519  1.00  0.00     0.030 A 
ENDBRANCH  11  14
ENDBRANCH   1  10
BRANCH   5  25
HETATM   25  C   UNL     1      42.231 -15.077   4.018  1.00  0.00     0.218 C 
BRANCH  25  26
HETATM   26  O   UNL     1      43.542 -15.632   3.901  1.00  0.00    -0.347 OA
BRANCH  26  27
HETATM   27  C   UNL     1      43.637 -16.986   3.739  1.00  0.00     0.069 A 
HETATM   28  C   UNL     1      43.125 -17.463   2.529  1.00  0.00     0.037 A 
HETATM   29  C   UNL     1      43.163 -18.826   2.227  1.00  0.00     0.003 A 
HETATM   30  C   UNL     1      43.717 -19.721   3.136  1.00  0.00     0.000 A 
HETATM   31  C   UNL     1      44.227 -19.254   4.346  1.00  0.00     0.003 A 
HETATM   32  C   UNL     1      44.188 -17.889   4.649  1.00  0.00     0.037 A 
ENDBRANCH  26  27
ENDBRANCH  25  26
ENDBRANCH   5  25
TORSDOF 5
ENDMDL
MODEL 5
REMARK VINA RESULT:      -8.6      2.741      6.192
REMARK  5 active torsions:
REMARK  status: ('A' for Active; 'I' for Inactive)
REMARK    1  A    between atoms: C_9  and  N_10 
REMARK       I    between atoms: N_10  and  C_11 
REMARK    2  A    between atoms: C_11  and  C_12 
REMARK    3  A    between atoms: C_16  and  C_17 
REMARK    4  A    between atoms: C_17  and  O_18 
REMARK    5  A    between atoms: O_18  and  C_19 
ROOT
HETATM    1  C   UNL     1      43.395 -16.902   5.141  1.00  0.00     0.153 A 
HETATM    2  O   UNL     1      43.761 -18.133   5.620  1.00  0.00    -0.304 OA
HETATM    3  C   UNL     1      43.772 -18.992   4.565  1.00  0.00     0.087 A 
HETATM    4  C   UNL     1      43.435 -18.324   3.395  1.00  0.00     0.009 A 
HETATM    5  C   UNL     1      43.193 -16.965   3.768  1.00  0.00     0.018 A 
HETATM    6  C   UNL     1      44.078 -20.348   4.636  1.00  0.00     0.038 A 
HETATM    7  C   UNL     1      44.036 -21.061   3.435  1.00  0.00     0.003 A 
HETATM    8  C   UNL     1      43.708 -20.430   2.233  1.00  0.00     0.001 A 
HETATM    9  C   UNL     1      43.408 -19.061   2.194  1.00  0.00     0.015 A 
ENDROOT
BRANCH   1  10
HETATM   10  C   UNL     1      43.274 -15.805   6.088  1.00  0.00     0.280 C 
HETATM   11  N   UNL     1      43.224 -14.569   5.461  1.00  0.00    -0.321 N 
HETATM   12  H   UNL     1      43.239 -14.617   4.447  1.00  0.00     0.169 HD
HETATM   13  O   UNL     1      43.235 -15.976   7.302  1.00  0.00    -0.265 OA
BRANCH  11  14
HETATM   14  C   UNL     1      43.169 -13.295   6.052  1.00  0.00     0.035 A 
HETATM   15  C   UNL     1      44.149 -12.800   6.916  1.00  0.00     0.039 A 
HETATM   16  C   UNL     1      44.016 -11.511   7.414  1.00  0.00    -0.022 A 
HETATM   17  C   UNL     1      44.963 -10.776   8.296  1.00  0.00     0.274 C 
HETATM   18  C   UNL     1      42.925 -10.711   7.077  1.00  0.00    -0.025 A 
HETATM   19  N   UNL     1      44.258  -9.462   8.625  1.00  0.00    -0.067 N 
HETATM   20  C   UNL     1      45.149  -8.271   8.587  1.00  0.00     0.270 C 
HETATM   21  H   UNL     1      43.889  -9.570   9.576  1.00  0.00     0.280 HD
HETATM   22  C   UNL     1      43.045  -9.367   7.704  1.00  0.00     0.273 C 
HETATM   23  C   UNL     1      41.937 -11.185   6.232  1.00  0.00     0.012 A 
HETATM   24  C   UNL     1      42.067 -12.482   5.719  1.00  0.00     0.030 A 
ENDBRANCH  11  14
ENDBRANCH   1  10
BRANCH   5  25
HETATM   25  C   UNL     1      42.824 -15.834   2.866  1.00  0.00     0.218 C 
BRANCH  25  26
HETATM   26  O   UNL     1      41.469 -15.451   3.103  1.00  0.00    -0.347 OA
BRANCH  26  27
HETATM   27  C   UNL     1      40.845 -14.719   2.132  1.00  0.00     0.069 A 
HETATM   28  C   UNL     1      40.361 -13.480   2.560  1.00  0.00     0.037 A 
HETATM   29  C   UNL     1      39.708 -12.623   1.672  1.00  0.00     0.003 A 
HETATM   30  C   UNL     1      39.536 -13.003   0.344  1.00  0.00     0.000 A 
HETATM   31  C   UNL     1      40.014 -14.239  -0.091  1.00  0.00     0.003 A 
HETATM   32  C   UNL     1      40.667 -15.097   0.800  1.00  0.00     0.037 A 
ENDBRANCH  26  27
ENDBRANCH  25  26
ENDBRANCH   5  25
TORSDOF 5
ENDMDL
MODEL 6
REMARK VINA RESULT:      -8.4      2.539      4.962
REMARK  5 active torsions:
REMARK  status: ('A' for Active; 'I' for Inactive)
REMARK    1  A    between atoms: C_9  and  N_10 
REMARK       I    between atoms: N_10  and  C_11 
REMARK    2  A    between atoms: C_11  and  C_12 
REMARK    3  A    between atoms: C_16  and  C_17 
REMARK    4  A    between atoms: C_17  and  O_18 
REMARK    5  A    between atoms: O_18  and  C_19 
ROOT
HETATM    1  C   UNL     1      43.372 -16.571   4.935  1.00  0.00     0.153 A 
HETATM    2  O   UNL     1      43.594 -17.670   5.724  1.00  0.00    -0.304 OA
HETATM    3  C   UNL     1      43.704 -18.745   4.899  1.00  0.00     0.087 A 
HETATM    4  C   UNL     1      43.575 -18.352   3.573  1.00  0.00     0.009 A 
HETATM    5  C   UNL     1      43.363 -16.938   3.597  1.00  0.00     0.018 A 
HETATM    6  C   UNL     1      43.916 -20.058   5.313  1.00  0.00     0.038 A 
HETATM    7  C   UNL     1      44.003 -21.023   4.306  1.00  0.00     0.003 A 
HETATM    8  C   UNL     1      43.885 -20.673   2.959  1.00  0.00     0.001 A 
HETATM    9  C   UNL     1      43.675 -19.341   2.575  1.00  0.00     0.015 A 
ENDROOT
BRANCH   1  10
HETATM   10  C   UNL     1      43.183 -15.285   5.588  1.00  0.00     0.280 C 
HETATM   11  N   UNL     1      41.988 -14.682   5.229  1.00  0.00    -0.321 N 
HETATM   12  H   UNL     1      41.413 -15.239   4.605  1.00  0.00     0.169 HD
HETATM   13  O   UNL     1      44.008 -14.802   6.356  1.00  0.00    -0.265 OA
BRANCH  11  14
HETATM   14  C   UNL     1      41.500 -13.420   5.611  1.00  0.00     0.035 A 
HETATM   15  C   UNL     1      42.284 -12.263   5.634  1.00  0.00     0.039 A 
HETATM   16  C   UNL     1      41.692 -11.059   5.992  1.00  0.00    -0.022 A 
HETATM   17  C   UNL     1      42.324  -9.712   6.028  1.00  0.00     0.274 C 
HETATM   18  C   UNL     1      40.341 -10.986   6.333  1.00  0.00    -0.025 A 
HETATM   19  N   UNL     1      41.253  -8.788   6.604  1.00  0.00    -0.067 N 
HETATM   20  C   UNL     1      41.156  -7.472   5.917  1.00  0.00     0.270 C 
HETATM   21  H   UNL     1      41.513  -8.632   7.584  1.00  0.00     0.280 HD
HETATM   22  C   UNL     1      39.950  -9.581   6.628  1.00  0.00     0.273 C 
HETATM   23  C   UNL     1      39.550 -12.121   6.327  1.00  0.00     0.012 A 
HETATM   24  C   UNL     1      40.137 -13.338   5.962  1.00  0.00     0.030 A 
ENDBRANCH  11  14
ENDBRANCH   1  10
BRANCH   5  25
HETATM   25  C   UNL     1      43.193 -16.033   2.422  1.00  0.00     0.218 C 
BRANCH  25  26
HETATM   26  O   UNL     1      41.803 -15.867   2.139  1.00  0.00    -0.347 OA
BRANCH  26  27
HETATM   27  C   UNL     1      41.311 -14.592   2.135  1.00  0.00     0.069 A 
HETATM   28  C   UNL     1      39.937 -14.499   2.371  1.00  0.00     0.037 A 
HETATM   29  C   UNL     1      39.301 -13.256   2.402  1.00  0.00     0.003 A 
HETATM   30  C   UNL     1      40.040 -12.095   2.196  1.00  0.00     0.000 A 
HETATM   31  C   UNL     1      41.411 -12.179   1.957  1.00  0.00     0.003 A 
HETATM   32  C   UNL     1      42.047 -13.425   1.926  1.00  0.00     0.037 A 
ENDBRANCH  26  27
ENDBRANCH  25  26
ENDBRANCH   5  25
TORSDOF 5
ENDMDL
MODEL 7
REMARK VINA RESULT:      -8.2      3.908      8.566
REMARK  5 active torsions:
REMARK  status: ('A' for Active; 'I' for Inactive)
REMARK    1  A    between atoms: C_9  and  N_10 
REMARK       I    between atoms: N_10  and  C_11 
REMARK    2  A    between atoms: C_11  and  C_12 
REMARK    3  A    between atoms: C_16  and  C_17 
REMARK    4  A    between atoms: C_17  and  O_18 
REMARK    5  A    between atoms: O_18  and  C_19 
ROOT
HETATM    1  C   UNL     1      43.773 -11.137   8.097  1.00  0.00     0.153 A 
HETATM    2  O   UNL     1      44.116 -11.142   9.424  1.00  0.00    -0.304 OA
HETATM    3  C   UNL     1      43.717  -9.954   9.951  1.00  0.00     0.087 A 
HETATM    4  C   UNL     1      43.096  -9.178   8.980  1.00  0.00     0.009 A 
HETATM    5  C   UNL     1      43.130  -9.949   7.776  1.00  0.00     0.018 A 
HETATM    6  C   UNL     1      43.898  -9.561  11.275  1.00  0.00     0.038 A 
HETATM    7  C   UNL     1      43.413  -8.297  11.622  1.00  0.00     0.003 A 
HETATM    8  C   UNL     1      42.777  -7.485  10.680  1.00  0.00     0.001 A 
HETATM    9  C   UNL     1      42.608  -7.912   9.355  1.00  0.00     0.015 A 
ENDROOT
BRANCH   1  10
HETATM   10  C   UNL     1      44.126 -12.295   7.291  1.00  0.00     0.280 C 
HETATM   11  N   UNL     1      43.226 -13.338   7.444  1.00  0.00    -0.321 N 
HETATM   12  H   UNL     1      42.444 -13.126   8.057  1.00  0.00     0.169 HD
HETATM   13  O   UNL     1      45.120 -12.327   6.573  1.00  0.00    -0.265 OA
BRANCH  11  14
HETATM   14  C   UNL     1      43.277 -14.623   6.875  1.00  0.00     0.035 A 
HETATM   15  C   UNL     1      43.237 -14.860   5.498  1.00  0.00     0.039 A 
HETATM   16  C   UNL     1      43.332 -16.167   5.040  1.00  0.00    -0.022 A 
HETATM   17  C   UNL     1      43.366 -16.633   3.627  1.00  0.00     0.274 C 
HETATM   18  C   UNL     1      43.457 -17.239   5.922  1.00  0.00    -0.025 A 
HETATM   19  N   UNL     1      43.353 -18.158   3.713  1.00  0.00    -0.067 N 
HETATM   20  C   UNL     1      44.283 -18.826   2.763  1.00  0.00     0.270 C 
HETATM   21  H   UNL     1      42.393 -18.444   3.494  1.00  0.00     0.280 HD
HETATM   22  C   UNL     1      43.585 -18.521   5.176  1.00  0.00     0.273 C 
HETATM   23  C   UNL     1      43.486 -17.028   7.289  1.00  0.00     0.012 A 
HETATM   24  C   UNL     1      43.398 -15.713   7.761  1.00  0.00     0.030 A 
ENDBRANCH  11  14
ENDBRANCH   1  10
BRANCH   5  25
HETATM   25  C   UNL     1      42.566  -9.568   6.447  1.00  0.00     0.218 C 
BRANCH  25  26
HETATM   26  O   UNL     1      41.448 -10.403   6.141  1.00  0.00    -0.347 OA
BRANCH  26  27
HETATM   27  C   UNL     1      41.540 -11.192   5.029  1.00  0.00     0.069 A 
HETATM   28  C   UNL     1      42.614 -10.886   4.187  1.00  0.00     0.037 A 
HETATM   29  C   UNL     1      42.833 -11.616   3.017  1.00  0.00     0.003 A 
HETATM   30  C   UNL     1      41.977 -12.660   2.682  1.00  0.00     0.000 A 
HETATM   31  C   UNL     1      40.902 -12.970   3.514  1.00  0.00     0.003 A 
HETATM   32  C   UNL     1      40.682 -12.238   4.686  1.00  0.00     0.037 A 
ENDBRANCH  26  27
ENDBRANCH  25  26
ENDBRANCH   5  25
TORSDOF 5
ENDMDL
MODEL 8
REMARK VINA RESULT:      -8.2      2.742      7.598
REMARK  5 active torsions:
REMARK  status: ('A' for Active; 'I' for Inactive)
REMARK    1  A    between atoms: C_9  and  N_10 
REMARK       I    between atoms: N_10  and  C_11 
REMARK    2  A    between atoms: C_11  and  C_12 
REMARK    3  A    between atoms: C_16  and  C_17 
REMARK    4  A    between atoms: C_17  and  O_18 
REMARK    5  A    between atoms: O_18  and  C_19 
ROOT
HETATM    1  C   UNL     1      40.895 -12.435   1.019  1.00  0.00     0.153 A 
HETATM    2  O   UNL     1      39.969 -11.675   0.352  1.00  0.00    -0.304 OA
HETATM    3  C   UNL     1      39.361 -12.482  -0.558  1.00  0.00     0.087 A 
HETATM    4  C   UNL     1      39.872 -13.771  -0.478  1.00  0.00     0.009 A 
HETATM    5  C   UNL     1      40.866 -13.742   0.549  1.00  0.00     0.018 A 
HETATM    6  C   UNL     1      38.368 -12.083  -1.448  1.00  0.00     0.038 A 
HETATM    7  C   UNL     1      37.868 -13.067  -2.306  1.00  0.00     0.003 A 
HETATM    8  C   UNL     1      38.347 -14.378  -2.257  1.00  0.00     0.001 A 
HETATM    9  C   UNL     1      39.347 -14.748  -1.346  1.00  0.00     0.015 A 
ENDROOT
BRANCH   1  10
HETATM   10  C   UNL     1      41.712 -11.789   2.033  1.00  0.00     0.280 C 
HETATM   11  N   UNL     1      41.631 -12.426   3.261  1.00  0.00    -0.321 N 
HETATM   12  H   UNL     1      41.053 -13.261   3.259  1.00  0.00     0.169 HD
HETATM   13  O   UNL     1      42.381 -10.785   1.808  1.00  0.00    -0.265 OA
BRANCH  11  14
HETATM   14  C   UNL     1      42.231 -12.054   4.477  1.00  0.00     0.035 A 
HETATM   15  C   UNL     1      41.844 -10.935   5.219  1.00  0.00     0.039 A 
HETATM   16  C   UNL     1      42.478 -10.680   6.428  1.00  0.00    -0.022 A 
HETATM   17  C   UNL     1      42.185  -9.585   7.393  1.00  0.00     0.274 C 
HETATM   18  C   UNL     1      43.492 -11.509   6.906  1.00  0.00    -0.025 A 
HETATM   19  N   UNL     1      43.257  -9.712   8.473  1.00  0.00    -0.067 N 
HETATM   20  C   UNL     1      42.747  -9.530   9.858  1.00  0.00     0.270 C 
HETATM   21  H   UNL     1      43.946  -8.978   8.274  1.00  0.00     0.280 HD
HETATM   22  C   UNL     1      43.968 -11.041   8.236  1.00  0.00     0.273 C 
HETATM   23  C   UNL     1      43.898 -12.615   6.182  1.00  0.00     0.012 A 
HETATM   24  C   UNL     1      43.260 -12.884   4.965  1.00  0.00     0.030 A 
ENDBRANCH  11  14
ENDBRANCH   1  10
BRANCH   5  25
HETATM   25  C   UNL     1      41.690 -14.886   1.040  1.00  0.00     0.218 C 
BRANCH  25  26
HETATM   26  O   UNL     1      41.268 -15.256   2.353  1.00  0.00    -0.347 OA
BRANCH  26  27
HETATM   27  C   UNL     1      42.042 -16.156   3.030  1.00  0.00     0.069 A 
HETATM   28  C   UNL     1      42.803 -16.998   2.213  1.00  0.00     0.037 A 
HETATM   29  C   UNL     1      43.645 -17.962   2.771  1.00  0.00     0.003 A 
HETATM   30  C   UNL     1      43.731 -18.090   4.154  1.00  0.00     0.000 A 
HETATM   31  C   UNL     1      42.973 -17.257   4.975  1.00  0.00     0.003 A 
HETATM   32  C   UNL     1      42.129 -16.291   4.416  1.00  0.00     0.037 A 
ENDBRANCH  26  27
ENDBRANCH  25  26
ENDBRANCH   5  25
TORSDOF 5
ENDMDL
MODEL 9
REMARK VINA RESULT:      -8.0      2.491      4.889
REMARK  5 active torsions:
REMARK  status: ('A' for Active; 'I' for Inactive)
REMARK    1  A    between atoms: C_9  and  N_10 
REMARK       I    between atoms: N_10  and  C_11 
REMARK    2  A    between atoms: C_11  and  C_12 
REMARK    3  A    between atoms: C_16  and  C_17 
REMARK    4  A    between atoms: C_17  and  O_18 
REMARK    5  A    between atoms: O_18  and  C_19 
ROOT
HETATM    1  C   UNL     1      42.666 -15.017   3.899  1.00  0.00     0.153 A 
HETATM    2  O   UNL     1      43.271 -15.797   4.850  1.00  0.00    -0.304 OA
HETATM    3  C   UNL     1      43.485 -17.020   4.296  1.00  0.00     0.087 A 
HETATM    4  C   UNL     1      43.042 -17.038   2.979  1.00  0.00     0.009 A 
HETATM    5  C   UNL     1      42.512 -15.735   2.721  1.00  0.00     0.018 A 
HETATM    6  C   UNL     1      44.067 -18.106   4.944  1.00  0.00     0.038 A 
HETATM    7  C   UNL     1      44.202 -19.280   4.197  1.00  0.00     0.003 A 
HETATM    8  C   UNL     1      43.775 -19.342   2.868  1.00  0.00     0.001 A 
HETATM    9  C   UNL     1      43.195 -18.229   2.243  1.00  0.00     0.015 A 
ENDROOT
BRANCH   1  10
HETATM   10  C   UNL     1      42.297 -13.657   4.260  1.00  0.00     0.280 C 
HETATM   11  N   UNL     1      40.924 -13.469   4.272  1.00  0.00    -0.321 N 
HETATM   12  H   UNL     1      40.388 -14.307   4.069  1.00  0.00     0.169 HD
HETATM   13  O   UNL     1      43.125 -12.788   4.509  1.00  0.00    -0.265 OA
BRANCH  11  14
HETATM   14  C   UNL     1      40.210 -12.282   4.515  1.00  0.00     0.035 A 
HETATM   15  C   UNL     1      40.084 -11.251   3.580  1.00  0.00     0.039 A 
HETATM   16  C   UNL     1      39.323 -10.137   3.909  1.00  0.00    -0.022 A 
HETATM   17  C   UNL     1      39.017  -8.961   3.049  1.00  0.00     0.274 C 
HETATM   18  C   UNL     1      38.694 -10.027   5.148  1.00  0.00    -0.025 A 
HETATM   19  N   UNL     1      38.253  -7.998   3.954  1.00  0.00    -0.067 N 
HETATM   20  C   UNL     1      37.087  -7.347   3.299  1.00  0.00     0.270 C 
HETATM   21  H   UNL     1      38.927  -7.273   4.228  1.00  0.00     0.280 HD
HETATM   22  C   UNL     1      37.909  -8.764   5.228  1.00  0.00     0.273 C 
HETATM   23  C   UNL     1      38.814 -11.031   6.092  1.00  0.00     0.012 A 
HETATM   24  C   UNL     1      39.574 -12.161   5.767  1.00  0.00     0.030 A 
ENDBRANCH  11  14
ENDBRANCH   1  10
BRANCH   5  25
HETATM   25  C   UNL     1      41.934 -15.235   1.438  1.00  0.00     0.218 C 
BRANCH  25  26
HETATM   26  O   UNL     1      40.624 -14.716   1.670  1.00  0.00    -0.347 OA
BRANCH  26  27
HETATM   27  C   UNL     1      39.986 -14.129   0.613  1.00  0.00     0.069 A 
HETATM   28  C   UNL     1      39.792 -14.969  -0.487  1.00  0.00     0.037 A 
HETATM   29  C   UNL     1      39.147 -14.503  -1.635  1.00  0.00     0.003 A 
HETATM   30  C   UNL     1      38.690 -13.190  -1.687  1.00  0.00     0.000 A 
HETATM   31  C   UNL     1      38.882 -12.345  -0.595  1.00  0.00     0.003 A 
HETATM   32  C   UNL     1      39.529 -12.812   0.554  1.00  0.00     0.037 A 
ENDBRANCH  26  27
ENDBRANCH  25  26
ENDBRANCH   5  25
TORSDOF 5
ENDMDL
MODEL 10
REMARK VINA RESULT:      -8.0      2.039      5.570
REMARK  5 active torsions:
REMARK  status: ('A' for Active; 'I' for Inactive)
REMARK    1  A    between atoms: C_9  and  N_10 
REMARK       I    between atoms: N_10  and  C_11 
REMARK    2  A    between atoms: C_11  and  C_12 
REMARK    3  A    between atoms: C_16  and  C_17 
REMARK    4  A    between atoms: C_17  and  O_18 
REMARK    5  A    between atoms: O_18  and  C_19 
ROOT
HETATM    1  C   UNL     1      41.513 -12.343   4.427  1.00  0.00     0.153 A 
HETATM    2  O   UNL     1      41.343 -11.257   5.247  1.00  0.00    -0.304 OA
HETATM    3  C   UNL     1      42.415 -11.207   6.082  1.00  0.00     0.087 A 
HETATM    4  C   UNL     1      43.296 -12.244   5.800  1.00  0.00     0.009 A 
HETATM    5  C   UNL     1      42.711 -12.980   4.722  1.00  0.00     0.018 A 
HETATM    6  C   UNL     1      42.614 -10.257   7.080  1.00  0.00     0.038 A 
HETATM    7  C   UNL     1      43.785 -10.378   7.832  1.00  0.00     0.003 A 
HETATM    8  C   UNL     1      44.702 -11.401   7.580  1.00  0.00     0.001 A 
HETATM    9  C   UNL     1      44.474 -12.341   6.565  1.00  0.00     0.015 A 
ENDROOT
BRANCH   1  10
HETATM   10  C   UNL     1      40.473 -12.638   3.455  1.00  0.00     0.280 C 
HETATM   11  N   UNL     1      40.852 -12.315   2.161  1.00  0.00    -0.321 N 
HETATM   12  H   UNL     1      41.802 -11.964   2.083  1.00  0.00     0.169 HD
HETATM   13  O   UNL     1      39.384 -13.108   3.768  1.00  0.00    -0.265 OA
BRANCH  11  14
HETATM   14  C   UNL     1      40.093 -12.406   0.982  1.00  0.00     0.035 A 
HETATM   15  C   UNL     1      40.438 -13.221  -0.099  1.00  0.00     0.039 A 
HETATM   16  C   UNL     1      39.596 -13.265  -1.202  1.00  0.00    -0.022 A 
HETATM   17  C   UNL     1      39.746 -14.099  -2.426  1.00  0.00     0.274 C 
HETATM   18  C   UNL     1      38.425 -12.510  -1.253  1.00  0.00    -0.025 A 
HETATM   19  N   UNL     1      38.612 -13.656  -3.348  1.00  0.00    -0.067 N 
HETATM   20  C   UNL     1      37.925 -14.777  -4.045  1.00  0.00     0.270 C 
HETATM   21  H   UNL     1      39.042 -13.043  -4.049  1.00  0.00     0.280 HD
HETATM   22  C   UNL     1      37.685 -12.773  -2.518  1.00  0.00     0.273 C 
HETATM   23  C   UNL     1      38.070 -11.689  -0.198  1.00  0.00     0.012 A 
HETATM   24  C   UNL     1      38.909 -11.643   0.921  1.00  0.00     0.030 A 
ENDBRANCH  11  14
ENDBRANCH   1  10
BRANCH   5  25
HETATM   25  C   UNL     1      43.280 -14.175   4.033  1.00  0.00     0.218 C 
BRANCH  25  26
HETATM   26  O   UNL     1      42.770 -15.367   4.633  1.00  0.00    -0.347 OA
BRANCH  26  27
HETATM   27  C   UNL     1      43.099 -16.556   4.045  1.00  0.00     0.069 A 
HETATM   28  C   UNL     1      43.970 -17.352   4.794  1.00  0.00     0.037 A 
HETATM   29  C   UNL     1      44.385 -18.598   4.317  1.00  0.00     0.003 A 
HETATM   30  C   UNL     1      43.927 -19.054   3.085  1.00  0.00     0.000 A 
HETATM   31  C   UNL     1      43.060 -18.265   2.331  1.00  0.00     0.003 A 
HETATM   32  C   UNL     1      42.646 -17.017   2.808  1.00  0.00     0.037 A 
ENDBRANCH  26  27
ENDBRANCH  25  26
ENDBRANCH   5  25
TORSDOF 5
ENDMDL
