MODEL 1
REMARK VINA RESULT:      -8.0      0.000      0.000
REMARK  3 active torsions:
REMARK  status: ('A' for Active; 'I' for Inactive)
REMARK    1  A    between atoms: C_3  and  N_4 
REMARK       I    between atoms: N_4  and  C_5 
REMARK    2  A    between atoms: C_5  and  C_6 
REMARK    3  A    between atoms: C_8  and  N_9 
REMARK       I    between atoms: N_9  and  C_10 
ROOT
HETATM    1  N   UNL     1      43.191 -15.374   4.486  1.00  0.00    -0.321 N 
HETATM    2  C   UNL     1      41.963 -14.775   4.709  1.00  0.00     0.256 C 
HETATM    3  O   UNL     1      40.856 -15.262   4.513  1.00  0.00    -0.267 OA
HETATM    4  H   UNL     1      43.995 -14.890   4.861  1.00  0.00     0.169 HD
ENDROOT
BRANCH   2   5
HETATM    5  C   UNL     1      42.020 -13.404   5.292  1.00  0.00     0.034 A 
HETATM    6  C   UNL     1      43.235 -12.815   5.670  1.00  0.00     0.046 A 
HETATM    7  C   UNL     1      43.262 -11.533   6.223  1.00  0.00     0.035 A 
HETATM    8  C   UNL     1      42.053 -10.859   6.437  1.00  0.00     0.029 A 
HETATM    9  C   UNL     1      40.837 -11.452   6.089  1.00  0.00     0.003 A 
HETATM   10  C   UNL     1      40.818 -12.722   5.517  1.00  0.00     0.017 A 
BRANCH   7  11
HETATM   11  N   UNL     1      44.451 -10.875   6.603  1.00  0.00    -0.327 N 
HETATM   12  C   UNL     1      44.964 -10.758   7.884  1.00  0.00     0.218 C 
HETATM   13  C   UNL     1      46.235  -9.947   7.937  1.00  0.00     0.117 C 
HETATM   14  O   UNL     1      44.503 -11.263   8.903  1.00  0.00    -0.274 OA
HETATM   15  H   UNL     1      45.011 -10.499   5.848  1.00  0.00     0.169 HD
ENDBRANCH   7  11
ENDBRANCH   2   5
BRANCH   1  16
HETATM   16  C   UNL     1      43.421 -16.724   4.107  1.00  0.00     0.065 A 
HETATM   17  C   UNL     1      43.340 -17.213   2.794  1.00  0.00    -0.031 A 
HETATM   18  C   UNL     1      43.162 -16.362   1.567  1.00  0.00     0.050 C 
HETATM   19  C   UNL     1      43.490 -18.594   2.582  1.00  0.00     0.035 A 
HETATM   20  C   UNL     1      43.789 -19.434   3.645  1.00  0.00     0.031 A 
HETATM   21  N   UNL     1      43.965 -18.971   4.898  1.00  0.00    -0.256 NA
HETATM   22  C   UNL     1      43.934 -20.910   3.428  1.00  0.00     0.070 C 
HETATM   23  C   UNL     1      43.786 -17.642   5.118  1.00  0.00     0.058 A 
HETATM   24  C   UNL     1      43.958 -17.224   6.553  1.00  0.00     0.073 C 
ENDBRANCH   1  16
TORSDOF 3
ENDMDL
MODEL 2
REMARK VINA RESULT:      -7.7      0.841      1.917
REMARK  3 active torsions:
REMARK  status: ('A' for Active; 'I' for Inactive)
REMARK    1  A    between atoms: C_3  and  N_4 
REMARK       I    between atoms: N_4  and  C_5 
REMARK    2  A    between atoms: C_5  and  C_6 
REMARK    3  A    between atoms: C_8  and  N_9 
REMARK       I    between atoms: N_9  and  C_10 
ROOT
HETATM    1  N   UNL     1      42.959 -15.127   4.362  1.00  0.00    -0.321 N 
HETATM    2  C   UNL     1      41.802 -14.611   4.921  1.00  0.00     0.256 C 
HETATM    3  O   UNL     1      40.725 -15.180   5.048  1.00  0.00    -0.267 OA
HETATM    4  H   UNL     1      43.798 -14.578   4.493  1.00  0.00     0.169 HD
ENDROOT
BRANCH   2   5
HETATM    5  C   UNL     1      41.918 -13.226   5.461  1.00  0.00     0.034 A 
HETATM    6  C   UNL     1      43.160 -12.672   5.805  1.00  0.00     0.046 A 
HETATM    7  C   UNL     1      43.243 -11.376   6.317  1.00  0.00     0.035 A 
HETATM    8  C   UNL     1      42.063 -10.651   6.526  1.00  0.00     0.029 A 
HETATM    9  C   UNL     1      40.820 -11.207   6.212  1.00  0.00     0.003 A 
HETATM   10  C   UNL     1      40.746 -12.493   5.680  1.00  0.00     0.017 A 
BRANCH   7  11
HETATM   11  N   UNL     1      44.461 -10.752   6.662  1.00  0.00    -0.327 N 
HETATM   12  C   UNL     1      45.035 -10.686   7.920  1.00  0.00     0.218 C 
HETATM   13  C   UNL     1      46.323  -9.900   7.939  1.00  0.00     0.117 C 
HETATM   14  O   UNL     1      44.613 -11.217   8.942  1.00  0.00    -0.274 OA
HETATM   15  H   UNL     1      44.992 -10.361   5.893  1.00  0.00     0.169 HD
ENDBRANCH   7  11
ENDBRANCH   2   5
BRANCH   1  16
HETATM   16  C   UNL     1      43.173 -16.465   3.937  1.00  0.00     0.065 A 
HETATM   17  C   UNL     1      43.624 -17.507   4.763  1.00  0.00    -0.031 A 
HETATM   18  C   UNL     1      43.792 -17.413   6.254  1.00  0.00     0.050 C 
HETATM   19  C   UNL     1      43.892 -18.758   4.180  1.00  0.00     0.035 A 
HETATM   20  C   UNL     1      43.637 -18.967   2.832  1.00  0.00     0.031 A 
HETATM   21  N   UNL     1      43.115 -18.009   2.044  1.00  0.00    -0.256 NA
HETATM   22  C   UNL     1      43.935 -20.293   2.202  1.00  0.00     0.070 C 
HETATM   23  C   UNL     1      42.887 -16.786   2.591  1.00  0.00     0.058 A 
HETATM   24  C   UNL     1      42.346 -15.766   1.625  1.00  0.00     0.073 C 
ENDBRANCH   1  16
TORSDOF 3
ENDMDL
MODEL 3
REMARK VINA RESULT:      -7.3      1.803      2.696
REMARK  3 active torsions:
REMARK  status: ('A' for Active; 'I' for Inactive)
REMARK    1  A    between atoms: C_3  and  N_4 
REMARK       I    between atoms: N_4  and  C_5 
REMARK    2  A    between atoms: C_5  and  C_6 
REMARK    3  A    between atoms: C_8  and  N_9 
REMARK       I    between atoms: N_9  and  C_10 
ROOT
HETATM    1  N   UNL     1      43.341 -15.058   4.471  1.00  0.00    -0.321 N 
HETATM    2  C   UNL     1      42.228 -14.503   5.080  1.00  0.00     0.256 C 
HETATM    3  O   UNL     1      41.097 -14.971   5.124  1.00  0.00    -0.267 OA
HETATM    4  H   UNL     1      44.226 -14.617   4.677  1.00  0.00     0.169 HD
ENDROOT
BRANCH   2   5
HETATM    5  C   UNL     1      42.469 -13.214   5.792  1.00  0.00     0.034 A 
HETATM    6  C   UNL     1      41.595 -12.125   5.659  1.00  0.00     0.046 A 
HETATM    7  C   UNL     1      41.846 -10.926   6.328  1.00  0.00     0.035 A 
HETATM    8  C   UNL     1      43.009 -10.810   7.101  1.00  0.00     0.029 A 
HETATM    9  C   UNL     1      43.898 -11.881   7.215  1.00  0.00     0.003 A 
HETATM   10  C   UNL     1      43.630 -13.083   6.562  1.00  0.00     0.017 A 
BRANCH   7  11
HETATM   11  N   UNL     1      40.997  -9.802   6.255  1.00  0.00    -0.327 N 
HETATM   12  C   UNL     1      39.788  -9.629   6.907  1.00  0.00     0.218 C 
HETATM   13  C   UNL     1      39.117  -8.322   6.566  1.00  0.00     0.117 C 
HETATM   14  O   UNL     1      39.278 -10.400   7.714  1.00  0.00    -0.274 OA
HETATM   15  H   UNL     1      41.340  -9.022   5.709  1.00  0.00     0.169 HD
ENDBRANCH   7  11
ENDBRANCH   2   5
BRANCH   1  16
HETATM   16  C   UNL     1      43.431 -16.347   3.882  1.00  0.00     0.065 A 
HETATM   17  C   UNL     1      43.136 -16.639   2.540  1.00  0.00    -0.031 A 
HETATM   18  C   UNL     1      42.840 -15.614   1.481  1.00  0.00     0.050 C 
HETATM   19  C   UNL     1      43.169 -17.980   2.122  1.00  0.00     0.035 A 
HETATM   20  C   UNL     1      43.562 -18.976   3.006  1.00  0.00     0.031 A 
HETATM   21  N   UNL     1      43.940 -18.706   4.269  1.00  0.00    -0.256 NA
HETATM   22  C   UNL     1      43.583 -20.410   2.571  1.00  0.00     0.070 C 
HETATM   23  C   UNL     1      43.876 -17.415   4.692  1.00  0.00     0.058 A 
HETATM   24  C   UNL     1      44.274 -17.215   6.130  1.00  0.00     0.073 C 
ENDBRANCH   1  16
TORSDOF 3
ENDMDL
MODEL 4
REMARK VINA RESULT:      -7.2      2.086      2.404
REMARK  3 active torsions:
REMARK  status: ('A' for Active; 'I' for Inactive)
REMARK    1  A    between atoms: C_3  and  N_4 
REMARK       I    between atoms: N_4  and  C_5 
REMARK    2  A    between atoms: C_5  and  C_6 
REMARK    3  A    between atoms: C_8  and  N_9 
REMARK       I    between atoms: N_9  and  C_10 
ROOT
HETATM    1  N   UNL     1      42.230 -15.401   4.448  1.00  0.00    -0.321 N 
HETATM    2  C   UNL     1      40.937 -15.135   4.030  1.00  0.00     0.256 C 
HETATM    3  O   UNL     1      40.142 -15.926   3.537  1.00  0.00    -0.267 OA
HETATM    4  H   UNL     1      42.681 -14.672   4.984  1.00  0.00     0.169 HD
ENDROOT
BRANCH   2   5
HETATM    5  C   UNL     1      40.469 -13.737   4.255  1.00  0.00     0.034 A 
HETATM    6  C   UNL     1      40.756 -13.048   5.442  1.00  0.00     0.046 A 
HETATM    7  C   UNL     1      40.299 -11.743   5.635  1.00  0.00     0.035 A 
HETATM    8  C   UNL     1      39.511 -11.145   4.642  1.00  0.00     0.029 A 
HETATM    9  C   UNL     1      39.199 -11.836   3.470  1.00  0.00     0.003 A 
HETATM   10  C   UNL     1      39.676 -13.131   3.274  1.00  0.00     0.017 A 
BRANCH   7  11
HETATM   11  N   UNL     1      40.571 -10.987   6.794  1.00  0.00    -0.327 N 
HETATM   12  C   UNL     1      41.561 -10.032   6.952  1.00  0.00     0.218 C 
HETATM   13  C   UNL     1      41.601  -9.448   8.343  1.00  0.00     0.117 C 
HETATM   14  O   UNL     1      42.333  -9.633   6.086  1.00  0.00    -0.274 OA
HETATM   15  H   UNL     1      39.937 -11.123   7.572  1.00  0.00     0.169 HD
ENDBRANCH   7  11
ENDBRANCH   2   5
BRANCH   1  16
HETATM   16  C   UNL     1      42.857 -16.674   4.512  1.00  0.00     0.065 A 
HETATM   17  C   UNL     1      43.322 -17.395   3.401  1.00  0.00    -0.031 A 
HETATM   18  C   UNL     1      43.380 -16.868   1.994  1.00  0.00     0.050 C 
HETATM   19  C   UNL     1      43.827 -18.691   3.606  1.00  0.00     0.035 A 
HETATM   20  C   UNL     1      43.932 -19.203   4.892  1.00  0.00     0.031 A 
HETATM   21  N   UNL     1      43.580 -18.490   5.978  1.00  0.00    -0.256 NA
HETATM   22  C   UNL     1      44.454 -20.589   5.115  1.00  0.00     0.070 C 
HETATM   23  C   UNL     1      43.057 -17.250   5.786  1.00  0.00     0.058 A 
HETATM   24  C   UNL     1      42.651 -16.547   7.054  1.00  0.00     0.073 C 
ENDBRANCH   1  16
TORSDOF 3
ENDMDL
MODEL 5
REMARK VINA RESULT:      -7.2      4.391      6.348
REMARK  3 active torsions:
REMARK  status: ('A' for Active; 'I' for Inactive)
REMARK    1  A    between atoms: C_3  and  N_4 
REMARK       I    between atoms: N_4  and  C_5 
REMARK    2  A    between atoms: C_5  and  C_6 
REMARK    3  A    between atoms: C_8  and  N_9 
REMARK       I    between atoms: N_9  and  C_10 
ROOT
HETATM    1  N   UNL     1      42.062 -15.216   1.780  1.00  0.00    -0.321 N 
HETATM    2  C   UNL     1      40.727 -15.162   1.414  1.00  0.00     0.256 C 
HETATM    3  O   UNL     1      39.774 -15.630   2.023  1.00  0.00    -0.267 OA
HETATM    4  H   UNL     1      42.692 -14.633   1.247  1.00  0.00     0.169 HD
ENDROOT
BRANCH   2   5
HETATM    5  C   UNL     1      40.441 -14.408   0.159  1.00  0.00     0.034 A 
HETATM    6  C   UNL     1      40.982 -13.135  -0.074  1.00  0.00     0.046 A 
HETATM    7  C   UNL     1      40.693 -12.444  -1.252  1.00  0.00     0.035 A 
HETATM    8  C   UNL     1      39.817 -13.021  -2.181  1.00  0.00     0.029 A 
HETATM    9  C   UNL     1      39.253 -14.277  -1.942  1.00  0.00     0.003 A 
HETATM   10  C   UNL     1      39.563 -14.971  -0.774  1.00  0.00     0.017 A 
BRANCH   7  11
HETATM   11  N   UNL     1      41.222 -11.173  -1.558  1.00  0.00    -0.327 N 
HETATM   12  C   UNL     1      40.642  -9.944  -1.292  1.00  0.00     0.218 C 
HETATM   13  C   UNL     1      41.462  -8.783  -1.798  1.00  0.00     0.117 C 
HETATM   14  O   UNL     1      39.594  -9.750  -0.684  1.00  0.00    -0.274 OA
HETATM   15  H   UNL     1      42.149 -11.164  -1.967  1.00  0.00     0.169 HD
ENDBRANCH   7  11
ENDBRANCH   2   5
BRANCH   1  16
HETATM   16  C   UNL     1      42.587 -15.712   3.003  1.00  0.00     0.065 A 
HETATM   17  C   UNL     1      42.898 -17.058   3.254  1.00  0.00    -0.031 A 
HETATM   18  C   UNL     1      42.881 -18.153   2.225  1.00  0.00     0.050 C 
HETATM   19  C   UNL     1      43.312 -17.420   4.548  1.00  0.00     0.035 A 
HETATM   20  C   UNL     1      43.482 -16.448   5.523  1.00  0.00     0.031 A 
HETATM   21  N   UNL     1      43.280 -15.140   5.275  1.00  0.00    -0.256 NA
HETATM   22  C   UNL     1      43.907 -16.830   6.908  1.00  0.00     0.070 C 
HETATM   23  C   UNL     1      42.845 -14.785   4.037  1.00  0.00     0.058 A 
HETATM   24  C   UNL     1      42.603 -13.309   3.866  1.00  0.00     0.073 C 
ENDBRANCH   1  16
TORSDOF 3
ENDMDL
MODEL 6
REMARK VINA RESULT:      -7.1      3.198      3.648
REMARK  3 active torsions:
REMARK  status: ('A' for Active; 'I' for Inactive)
REMARK    1  A    between atoms: C_3  and  N_4 
REMARK       I    between atoms: N_4  and  C_5 
REMARK    2  A    between atoms: C_5  and  C_6 
REMARK    3  A    between atoms: C_8  and  N_9 
REMARK       I    between atoms: N_9  and  C_10 
ROOT
HETATM    1  N   UNL     1      42.274 -15.513   4.420  1.00  0.00    -0.321 N 
HETATM    2  C   UNL     1      40.968 -15.250   4.043  1.00  0.00     0.256 C 
HETATM    3  O   UNL     1      40.151 -16.047   3.600  1.00  0.00    -0.267 OA
HETATM    4  H   UNL     1      42.749 -14.773   4.920  1.00  0.00     0.169 HD
ENDROOT
BRANCH   2   5
HETATM    5  C   UNL     1      40.516 -13.843   4.250  1.00  0.00     0.034 A 
HETATM    6  C   UNL     1      40.528 -12.905   3.208  1.00  0.00     0.046 A 
HETATM    7  C   UNL     1      40.109 -11.592   3.429  1.00  0.00     0.035 A 
HETATM    8  C   UNL     1      39.718 -11.211   4.719  1.00  0.00     0.029 A 
HETATM    9  C   UNL     1      39.730 -12.133   5.768  1.00  0.00     0.003 A 
HETATM   10  C   UNL     1      40.129 -13.448   5.536  1.00  0.00     0.017 A 
BRANCH   7  11
HETATM   11  N   UNL     1      40.075 -10.606   2.419  1.00  0.00    -0.327 N 
HETATM   12  C   UNL     1      41.146 -10.142   1.674  1.00  0.00     0.218 C 
HETATM   13  C   UNL     1      40.761  -9.048   0.709  1.00  0.00     0.117 C 
HETATM   14  O   UNL     1      42.300 -10.555   1.720  1.00  0.00    -0.274 OA
HETATM   15  H   UNL     1      39.160 -10.244   2.183  1.00  0.00     0.169 HD
ENDBRANCH   7  11
ENDBRANCH   2   5
BRANCH   1  16
HETATM   16  C   UNL     1      42.896 -16.787   4.492  1.00  0.00     0.065 A 
HETATM   17  C   UNL     1      43.352 -17.521   3.386  1.00  0.00    -0.031 A 
HETATM   18  C   UNL     1      43.405 -17.008   1.974  1.00  0.00     0.050 C 
HETATM   19  C   UNL     1      43.853 -18.817   3.601  1.00  0.00     0.035 A 
HETATM   20  C   UNL     1      43.963 -19.317   4.891  1.00  0.00     0.031 A 
HETATM   21  N   UNL     1      43.619 -18.592   5.972  1.00  0.00    -0.256 NA
HETATM   22  C   UNL     1      44.481 -20.703   5.125  1.00  0.00     0.070 C 
HETATM   23  C   UNL     1      43.100 -17.352   5.771  1.00  0.00     0.058 A 
HETATM   24  C   UNL     1      42.704 -16.636   7.034  1.00  0.00     0.073 C 
ENDBRANCH   1  16
TORSDOF 3
ENDMDL
MODEL 7
REMARK VINA RESULT:      -7.1      2.050      7.686
REMARK  3 active torsions:
REMARK  status: ('A' for Active; 'I' for Inactive)
REMARK    1  A    between atoms: C_3  and  N_4 
REMARK       I    between atoms: N_4  and  C_5 
REMARK    2  A    between atoms: C_5  and  C_6 
REMARK    3  A    between atoms: C_8  and  N_9 
REMARK       I    between atoms: N_9  and  C_10 
ROOT
HETATM    1  N   UNL     1      43.158 -12.576   5.064  1.00  0.00    -0.321 N 
HETATM    2  C   UNL     1      42.940 -13.933   5.233  1.00  0.00     0.256 C 
HETATM    3  O   UNL     1      42.660 -14.514   6.274  1.00  0.00    -0.267 OA
HETATM    4  H   UNL     1      43.212 -12.251   4.109  1.00  0.00     0.169 HD
ENDROOT
BRANCH   2   5
HETATM    5  C   UNL     1      43.018 -14.750   3.987  1.00  0.00     0.034 A 
HETATM    6  C   UNL     1      43.028 -16.152   4.025  1.00  0.00     0.046 A 
HETATM    7  C   UNL     1      43.111 -16.895   2.846  1.00  0.00     0.035 A 
HETATM    8  C   UNL     1      43.230 -16.220   1.625  1.00  0.00     0.029 A 
HETATM    9  C   UNL     1      43.249 -14.824   1.582  1.00  0.00     0.003 A 
HETATM   10  C   UNL     1      43.143 -14.088   2.760  1.00  0.00     0.017 A 
BRANCH   7  11
HETATM   11  N   UNL     1      43.103 -18.305   2.814  1.00  0.00    -0.327 N 
HETATM   12  C   UNL     1      43.992 -19.157   3.446  1.00  0.00     0.218 C 
HETATM   13  C   UNL     1      43.718 -20.613   3.160  1.00  0.00     0.117 C 
HETATM   14  O   UNL     1      44.904 -18.831   4.199  1.00  0.00    -0.274 OA
HETATM   15  H   UNL     1      42.330 -18.733   2.318  1.00  0.00     0.169 HD
ENDBRANCH   7  11
ENDBRANCH   2   5
BRANCH   1  16
HETATM   16  C   UNL     1      42.974 -11.560   6.039  1.00  0.00     0.065 A 
HETATM   17  C   UNL     1      43.966 -11.105   6.921  1.00  0.00    -0.031 A 
HETATM   18  C   UNL     1      45.416 -11.500   6.865  1.00  0.00     0.050 C 
HETATM   19  C   UNL     1      43.611 -10.166   7.905  1.00  0.00     0.035 A 
HETATM   20  C   UNL     1      42.323  -9.649   7.942  1.00  0.00     0.031 A 
HETATM   21  N   UNL     1      41.383 -10.001   7.045  1.00  0.00    -0.256 NA
HETATM   22  C   UNL     1      41.934  -8.660   8.998  1.00  0.00     0.070 C 
HETATM   23  C   UNL     1      41.708 -10.936   6.113  1.00  0.00     0.058 A 
HETATM   24  C   UNL     1      40.582 -11.300   5.184  1.00  0.00     0.073 C 
ENDBRANCH   1  16
TORSDOF 3
ENDMDL
MODEL 8
REMARK VINA RESULT:      -7.1      2.189      3.624
REMARK  3 active torsions:
REMARK  status: ('A' for Active; 'I' for Inactive)
REMARK    1  A    between atoms: C_3  and  N_4 
REMARK       I    between atoms: N_4  and  C_5 
REMARK    2  A    between atoms: C_5  and  C_6 
REMARK    3  A    between atoms: C_8  and  N_9 
REMARK       I    between atoms: N_9  and  C_10 
ROOT
HETATM    1  N   UNL     1      42.765 -15.095   4.235  1.00  0.00    -0.321 N 
HETATM    2  C   UNL     1      41.807 -14.683   5.146  1.00  0.00     0.256 C 
HETATM    3  O   UNL     1      40.956 -15.376   5.689  1.00  0.00    -0.267 OA
HETATM    4  H   UNL     1      43.490 -14.425   4.019  1.00  0.00     0.169 HD
ENDROOT
BRANCH   2   5
HETATM    5  C   UNL     1      41.868 -13.242   5.525  1.00  0.00     0.034 A 
HETATM    6  C   UNL     1      40.888 -12.329   5.108  1.00  0.00     0.046 A 
HETATM    7  C   UNL     1      40.971 -10.983   5.468  1.00  0.00     0.035 A 
HETATM    8  C   UNL     1      42.072 -10.546   6.216  1.00  0.00     0.029 A 
HETATM    9  C   UNL     1      43.066 -11.445   6.612  1.00  0.00     0.003 A 
HETATM   10  C   UNL     1      42.965 -12.791   6.268  1.00  0.00     0.017 A 
BRANCH   7  11
HETATM   11  N   UNL     1      40.009 -10.019   5.100  1.00  0.00    -0.327 N 
HETATM   12  C   UNL     1      38.797  -9.773   5.723  1.00  0.00     0.218 C 
HETATM   13  C   UNL     1      37.990  -8.699   5.038  1.00  0.00     0.117 C 
HETATM   14  O   UNL     1      38.381 -10.310   6.745  1.00  0.00    -0.274 OA
HETATM   15  H   UNL     1      40.262  -9.410   4.332  1.00  0.00     0.169 HD
ENDBRANCH   7  11
ENDBRANCH   2   5
BRANCH   1  16
HETATM   16  C   UNL     1      43.041 -16.431   3.840  1.00  0.00     0.065 A 
HETATM   17  C   UNL     1      43.924 -17.298   4.503  1.00  0.00    -0.031 A 
HETATM   18  C   UNL     1      44.586 -17.010   5.821  1.00  0.00     0.050 C 
HETATM   19  C   UNL     1      44.179 -18.559   3.936  1.00  0.00     0.035 A 
HETATM   20  C   UNL     1      43.506 -18.956   2.789  1.00  0.00     0.031 A 
HETATM   21  N   UNL     1      42.585 -18.176   2.191  1.00  0.00    -0.256 NA
HETATM   22  C   UNL     1      43.786 -20.292   2.171  1.00  0.00     0.070 C 
HETATM   23  C   UNL     1      42.359 -16.941   2.712  1.00  0.00     0.058 A 
HETATM   24  C   UNL     1      41.348 -16.125   1.952  1.00  0.00     0.073 C 
ENDBRANCH   1  16
TORSDOF 3
ENDMDL
MODEL 9
REMARK VINA RESULT:      -7.1      2.754      4.427
REMARK  3 active torsions:
REMARK  status: ('A' for Active; 'I' for Inactive)
REMARK    1  A    between atoms: C_3  and  N_4 
REMARK       I    between atoms: N_4  and  C_5 
REMARK    2  A    between atoms: C_5  and  C_6 
REMARK    3  A    between atoms: C_8  and  N_9 
REMARK       I    between atoms: N_9  and  C_10 
ROOT
HETATM    1  N   UNL     1      42.928 -12.965   5.375  1.00  0.00    -0.321 N 
HETATM    2  C   UNL     1      43.876 -11.969   5.211  1.00  0.00     0.256 C 
HETATM    3  O   UNL     1      44.286 -11.505   4.154  1.00  0.00    -0.267 OA
HETATM    4  H   UNL     1      42.589 -13.104   6.317  1.00  0.00     0.169 HD
ENDROOT
BRANCH   2   5
HETATM    5  C   UNL     1      44.408 -11.382   6.474  1.00  0.00     0.034 A 
HETATM    6  C   UNL     1      43.561 -11.020   7.532  1.00  0.00     0.046 A 
HETATM    7  C   UNL     1      44.082 -10.464   8.702  1.00  0.00     0.035 A 
HETATM    8  C   UNL     1      45.460 -10.230   8.788  1.00  0.00     0.029 A 
HETATM    9  C   UNL     1      46.306 -10.563   7.727  1.00  0.00     0.003 A 
HETATM   10  C   UNL     1      45.783 -11.138   6.571  1.00  0.00     0.017 A 
BRANCH   7  11
HETATM   11  N   UNL     1      43.288 -10.100   9.810  1.00  0.00    -0.327 N 
HETATM   12  C   UNL     1      43.390 -10.587  11.102  1.00  0.00     0.218 C 
HETATM   13  C   UNL     1      42.349 -10.013  12.031  1.00  0.00     0.117 C 
HETATM   14  O   UNL     1      44.233 -11.374  11.520  1.00  0.00    -0.274 OA
HETATM   15  H   UNL     1      42.611  -9.365   9.648  1.00  0.00     0.169 HD
ENDBRANCH   7  11
ENDBRANCH   2   5
BRANCH   1  16
HETATM   16  C   UNL     1      42.141 -13.564   4.356  1.00  0.00     0.065 A 
HETATM   17  C   UNL     1      41.128 -12.911   3.635  1.00  0.00    -0.031 A 
HETATM   18  C   UNL     1      40.830 -11.439   3.710  1.00  0.00     0.050 C 
HETATM   19  C   UNL     1      40.360 -13.660   2.728  1.00  0.00     0.035 A 
HETATM   20  C   UNL     1      40.657 -14.997   2.500  1.00  0.00     0.031 A 
HETATM   21  N   UNL     1      41.684 -15.617   3.111  1.00  0.00    -0.256 NA
HETATM   22  C   UNL     1      39.831 -15.805   1.546  1.00  0.00     0.070 C 
HETATM   23  C   UNL     1      42.410 -14.909   4.017  1.00  0.00     0.058 A 
HETATM   24  C   UNL     1      43.507 -15.697   4.681  1.00  0.00     0.073 C 
ENDBRANCH   1  16
TORSDOF 3
ENDMDL
MODEL 10
REMARK VINA RESULT:      -6.9      2.858      4.919
REMARK  3 active torsions:
REMARK  status: ('A' for Active; 'I' for Inactive)
REMARK    1  A    between atoms: C_3  and  N_4 
REMARK       I    between atoms: N_4  and  C_5 
REMARK    2  A    between atoms: C_5  and  C_6 
REMARK    3  A    between atoms: C_8  and  N_9 
REMARK       I    between atoms: N_9  and  C_10 
ROOT
HETATM    1  N   UNL     1      43.176 -12.924   7.001  1.00  0.00    -0.321 N 
HETATM    2  C   UNL     1      44.218 -12.035   6.796  1.00  0.00     0.256 C 
HETATM    3  O   UNL     1      44.905 -11.920   5.789  1.00  0.00    -0.267 OA
HETATM    4  H   UNL     1      42.613 -12.765   7.826  1.00  0.00     0.169 HD
ENDROOT
BRANCH   2   5
HETATM    5  C   UNL     1      44.484 -11.095   7.924  1.00  0.00     0.034 A 
HETATM    6  C   UNL     1      43.501 -10.792   8.877  1.00  0.00     0.046 A 
HETATM    7  C   UNL     1      43.770  -9.902   9.918  1.00  0.00     0.035 A 
HETATM    8  C   UNL     1      45.024  -9.279   9.972  1.00  0.00     0.029 A 
HETATM    9  C   UNL     1      45.998  -9.554   9.009  1.00  0.00     0.003 A 
HETATM   10  C   UNL     1      45.730 -10.461   7.985  1.00  0.00     0.017 A 
BRANCH   7  11
HETATM   11  N   UNL     1      42.835  -9.573  10.922  1.00  0.00    -0.327 N 
HETATM   12  C   UNL     1      42.717 -10.155  12.172  1.00  0.00     0.218 C 
HETATM   13  C   UNL     1      41.573  -9.591  12.979  1.00  0.00     0.117 C 
HETATM   14  O   UNL     1      43.450 -11.016  12.647  1.00  0.00    -0.274 OA
HETATM   15  H   UNL     1      42.224  -8.791  10.719  1.00  0.00     0.169 HD
ENDBRANCH   7  11
ENDBRANCH   2   5
BRANCH   1  16
HETATM   16  C   UNL     1      42.605 -13.798   6.039  1.00  0.00     0.065 A 
HETATM   17  C   UNL     1      43.122 -15.056   5.691  1.00  0.00    -0.031 A 
HETATM   18  C   UNL     1      44.259 -15.744   6.393  1.00  0.00     0.050 C 
HETATM   19  C   UNL     1      42.510 -15.768   4.645  1.00  0.00     0.035 A 
HETATM   20  C   UNL     1      41.372 -15.263   4.031  1.00  0.00     0.031 A 
HETATM   21  N   UNL     1      40.805 -14.103   4.415  1.00  0.00    -0.256 NA
HETATM   22  C   UNL     1      40.724 -16.009   2.905  1.00  0.00     0.070 C 
HETATM   23  C   UNL     1      41.411 -13.391   5.401  1.00  0.00     0.058 A 
HETATM   24  C   UNL     1      40.733 -12.089   5.731  1.00  0.00     0.073 C 
ENDBRANCH   1  16
TORSDOF 3
ENDMDL
