MODEL 1
REMARK VINA RESULT:      -6.4      0.000      0.000
REMARK  2 active torsions:
REMARK  status: ('A' for Active; 'I' for Inactive)
REMARK    1  A    between atoms: S_2  and  C_3 
REMARK    2  A    between atoms: C_7  and  N_8 
ROOT
HETATM    1  C   UNL     1      42.976 -13.645   3.266  1.00  0.00     0.060 A 
HETATM    2  C   UNL     1      42.662 -14.321   4.443  1.00  0.00     0.044 A 
HETATM    3  C   UNL     1      42.722 -15.717   4.467  1.00  0.00     0.033 A 
HETATM    4 BR   UNL     1      42.218 -16.581   6.089  1.00  0.00    -0.049 Br
HETATM    5  C   UNL     1      43.110 -16.461   3.326  1.00  0.00     0.028 A 
HETATM    6  C   UNL     1      43.426 -15.745   2.159  1.00  0.00     0.026 A 
HETATM    7  C   UNL     1      43.365 -14.348   2.125  1.00  0.00     0.025 A 
ENDROOT
BRANCH   5   8
HETATM    8  N   UNL     1      43.212 -17.865   3.384  1.00  0.00    -0.279 NA
HETATM    9  C   UNL     1      43.088 -18.601   2.112  1.00  0.00     0.123 C 
HETATM   10  C   UNL     1      42.891 -20.103   2.410  1.00  0.00     0.247 C 
HETATM   11  N   UNL     1      44.008 -20.615   3.295  1.00  0.00    -0.073 N 
HETATM   12  H   UNL     1      44.894 -20.595   2.775  1.00  0.00     0.277 HD
HETATM   13  H   UNL     1      43.827 -21.598   3.535  1.00  0.00     0.277 HD
HETATM   14  C   UNL     1      44.156 -19.812   4.570  1.00  0.00     0.247 C 
HETATM   15  C   UNL     1      44.328 -18.314   4.246  1.00  0.00     0.123 C 
ENDBRANCH   5   8
BRANCH   1  16
HETATM   16  S   UNL     1      42.967 -11.866   3.253  1.00  0.00     0.171 S 
HETATM   17  C   UNL     1      42.011 -11.441   4.684  1.00  0.00     0.167 C 
HETATM   18  O   UNL     1      42.231 -11.452   2.074  1.00  0.00    -0.223 OA
HETATM   19  O   UNL     1      44.337 -11.443   3.467  1.00  0.00    -0.223 OA
ENDBRANCH   1  16
TORSDOF 2
ENDMDL
MODEL 2
REMARK VINA RESULT:      -6.4      8.293     10.148
REMARK  2 active torsions:
REMARK  status: ('A' for Active; 'I' for Inactive)
REMARK    1  A    between atoms: S_2  and  C_3 
REMARK    2  A    between atoms: C_7  and  N_8 
ROOT
HETATM    1  C   UNL     1      41.398  -9.643  11.928  1.00  0.00     0.060 A 
HETATM    2  C   UNL     1      41.087  -9.222  10.637  1.00  0.00     0.044 A 
HETATM    3  C   UNL     1      42.064  -9.298   9.640  1.00  0.00     0.033 A 
HETATM    4 BR   UNL     1      41.595  -8.647   7.911  1.00  0.00    -0.049 Br
HETATM    5  C   UNL     1      43.359  -9.806   9.909  1.00  0.00     0.028 A 
HETATM    6  C   UNL     1      43.633 -10.226  11.221  1.00  0.00     0.026 A 
HETATM    7  C   UNL     1      42.663 -10.151  12.226  1.00  0.00     0.025 A 
ENDROOT
BRANCH   5   8
HETATM    8  N   UNL     1      44.314  -9.919   8.880  1.00  0.00    -0.279 NA
HETATM    9  C   UNL     1      45.668  -9.408   9.161  1.00  0.00     0.123 C 
HETATM   10  C   UNL     1      46.461  -9.311   7.840  1.00  0.00     0.247 C 
HETATM   11  N   UNL     1      46.459 -10.646   7.125  1.00  0.00    -0.073 N 
HETATM   12  H   UNL     1      46.999 -11.328   7.671  1.00  0.00     0.277 HD
HETATM   13  H   UNL     1      46.935 -10.547   6.220  1.00  0.00     0.277 HD
HETATM   14  C   UNL     1      45.061 -11.181   6.896  1.00  0.00     0.247 C 
HETATM   15  C   UNL     1      44.284 -11.246   8.226  1.00  0.00     0.123 C 
ENDBRANCH   5   8
BRANCH   1  16
HETATM   16  S   UNL     1      40.136  -9.612  13.181  1.00  0.00     0.171 S 
HETATM   17  C   UNL     1      40.957  -8.912  14.587  1.00  0.00     0.167 C 
HETATM   18  O   UNL     1      39.806 -10.991  13.488  1.00  0.00    -0.223 OA
HETATM   19  O   UNL     1      39.121  -8.684  12.726  1.00  0.00    -0.223 OA
ENDBRANCH   1  16
TORSDOF 2
ENDMDL
MODEL 3
REMARK VINA RESULT:      -6.1      4.264      5.817
REMARK  2 active torsions:
REMARK  status: ('A' for Active; 'I' for Inactive)
REMARK    1  A    between atoms: S_2  and  C_3 
REMARK    2  A    between atoms: C_7  and  N_8 
ROOT
HETATM    1  C   UNL     1      42.781 -15.848   5.169  1.00  0.00     0.060 A 
HETATM    2  C   UNL     1      43.160 -14.573   4.753  1.00  0.00     0.044 A 
HETATM    3  C   UNL     1      42.494 -13.978   3.678  1.00  0.00     0.033 A 
HETATM    4 BR   UNL     1      43.105 -12.262   3.119  1.00  0.00    -0.049 Br
HETATM    5  C   UNL     1      41.432 -14.636   3.010  1.00  0.00     0.028 A 
HETATM    6  C   UNL     1      41.074 -15.917   3.461  1.00  0.00     0.026 A 
HETATM    7  C   UNL     1      41.737 -16.522   4.534  1.00  0.00     0.025 A 
ENDROOT
BRANCH   5   8
HETATM    8  N   UNL     1      40.742 -14.001   1.959  1.00  0.00    -0.279 NA
HETATM    9  C   UNL     1      40.508 -14.789   0.735  1.00  0.00     0.123 C 
HETATM   10  C   UNL     1      40.051 -13.846  -0.399  1.00  0.00     0.247 C 
HETATM   11  N   UNL     1      38.844 -13.042   0.038  1.00  0.00    -0.073 N 
HETATM   12  H   UNL     1      38.039 -13.670   0.158  1.00  0.00     0.277 HD
HETATM   13  H   UNL     1      38.593 -12.376  -0.702  1.00  0.00     0.277 HD
HETATM   14  C   UNL     1      39.085 -12.285   1.327  1.00  0.00     0.247 C 
HETATM   15  C   UNL     1      39.562 -13.245   2.436  1.00  0.00     0.123 C 
ENDBRANCH   5   8
BRANCH   1  16
HETATM   16  S   UNL     1      43.580 -16.577   6.581  1.00  0.00     0.171 S 
HETATM   17  C   UNL     1      42.964 -15.630   7.947  1.00  0.00     0.167 C 
HETATM   18  O   UNL     1      45.000 -16.316   6.450  1.00  0.00    -0.223 OA
HETATM   19  O   UNL     1      43.075 -17.931   6.690  1.00  0.00    -0.223 OA
ENDBRANCH   1  16
TORSDOF 2
ENDMDL
MODEL 4
REMARK VINA RESULT:      -6.1      3.469      4.477
REMARK  2 active torsions:
REMARK  status: ('A' for Active; 'I' for Inactive)
REMARK    1  A    between atoms: S_2  and  C_3 
REMARK    2  A    between atoms: C_7  and  N_8 
ROOT
HETATM    1  C   UNL     1      40.316 -14.068   0.289  1.00  0.00     0.060 A 
HETATM    2  C   UNL     1      41.277 -13.370   1.017  1.00  0.00     0.044 A 
HETATM    3  C   UNL     1      41.828 -13.956   2.160  1.00  0.00     0.033 A 
HETATM    4 BR   UNL     1      43.089 -12.921   3.146  1.00  0.00    -0.049 Br
HETATM    5  C   UNL     1      41.442 -15.250   2.588  1.00  0.00     0.028 A 
HETATM    6  C   UNL     1      40.475 -15.926   1.825  1.00  0.00     0.026 A 
HETATM    7  C   UNL     1      39.916 -15.346   0.682  1.00  0.00     0.025 A 
ENDROOT
BRANCH   5   8
HETATM    8  N   UNL     1      42.044 -15.843   3.715  1.00  0.00    -0.279 NA
HETATM    9  C   UNL     1      41.165 -16.165   4.855  1.00  0.00     0.123 C 
HETATM   10  C   UNL     1      42.032 -16.486   6.091  1.00  0.00     0.247 C 
HETATM   11  N   UNL     1      43.024 -17.583   5.769  1.00  0.00    -0.073 N 
HETATM   12  H   UNL     1      42.520 -18.464   5.602  1.00  0.00     0.277 HD
HETATM   13  H   UNL     1      43.634 -17.740   6.581  1.00  0.00     0.277 HD
HETATM   14  C   UNL     1      43.879 -17.259   4.562  1.00  0.00     0.247 C 
HETATM   15  C   UNL     1      42.990 -16.920   3.348  1.00  0.00     0.123 C 
ENDBRANCH   5   8
BRANCH   1  16
HETATM   16  S   UNL     1      39.665 -13.354  -1.204  1.00  0.00     0.171 S 
HETATM   17  C   UNL     1      39.068 -14.754  -2.114  1.00  0.00     0.167 C 
HETATM   18  O   UNL     1      40.785 -12.785  -1.928  1.00  0.00    -0.223 OA
HETATM   19  O   UNL     1      38.533 -12.537  -0.814  1.00  0.00    -0.223 OA
ENDBRANCH   1  16
TORSDOF 2
ENDMDL
MODEL 5
REMARK VINA RESULT:      -6.0      4.231      6.267
REMARK  2 active torsions:
REMARK  status: ('A' for Active; 'I' for Inactive)
REMARK    1  A    between atoms: S_2  and  C_3 
REMARK    2  A    between atoms: C_7  and  N_8 
ROOT
HETATM    1  C   UNL     1      43.406 -18.374   2.891  1.00  0.00     0.060 A 
HETATM    2  C   UNL     1      43.802 -17.971   4.164  1.00  0.00     0.044 A 
HETATM    3  C   UNL     1      43.661 -16.629   4.531  1.00  0.00     0.033 A 
HETATM    4 BR   UNL     1      44.281 -16.132   6.263  1.00  0.00    -0.049 Br
HETATM    5  C   UNL     1      43.112 -15.672   3.643  1.00  0.00     0.028 A 
HETATM    6  C   UNL     1      42.718 -16.117   2.369  1.00  0.00     0.026 A 
HETATM    7  C   UNL     1      42.859 -17.457   1.992  1.00  0.00     0.025 A 
ENDROOT
BRANCH   5   8
HETATM    8  N   UNL     1      42.934 -14.335   4.047  1.00  0.00    -0.279 NA
HETATM    9  C   UNL     1      43.307 -13.285   3.082  1.00  0.00     0.123 C 
HETATM   10  C   UNL     1      43.360 -11.923   3.806  1.00  0.00     0.247 C 
HETATM   11  N   UNL     1      42.050 -11.650   4.514  1.00  0.00    -0.073 N 
HETATM   12  H   UNL     1      41.306 -11.515   3.817  1.00  0.00     0.277 HD
HETATM   13  H   UNL     1      42.125 -10.772   5.041  1.00  0.00     0.277 HD
HETATM   14  C   UNL     1      41.655 -12.766   5.458  1.00  0.00     0.247 C 
HETATM   15  C   UNL     1      41.632 -14.117   4.716  1.00  0.00     0.123 C 
ENDBRANCH   5   8
BRANCH   1  16
HETATM   16  S   UNL     1      43.519 -20.093   2.447  1.00  0.00     0.171 S 
HETATM   17  C   UNL     1      43.830 -20.905   3.991  1.00  0.00     0.167 C 
HETATM   18  O   UNL     1      44.695 -20.240   1.610  1.00  0.00    -0.223 OA
HETATM   19  O   UNL     1      42.208 -20.485   1.971  1.00  0.00    -0.223 OA
ENDBRANCH   1  16
TORSDOF 2
ENDMDL
MODEL 6
REMARK VINA RESULT:      -6.0      5.128      6.505
REMARK  2 active torsions:
REMARK  status: ('A' for Active; 'I' for Inactive)
REMARK    1  A    between atoms: S_2  and  C_3 
REMARK    2  A    between atoms: C_7  and  N_8 
ROOT
HETATM    1  C   UNL     1      39.637 -13.889  -0.704  1.00  0.00     0.060 A 
HETATM    2  C   UNL     1      40.165 -14.954   0.022  1.00  0.00     0.044 A 
HETATM    3  C   UNL     1      40.522 -14.760   1.359  1.00  0.00     0.033 A 
HETATM    4 BR   UNL     1      41.297 -16.240   2.276  1.00  0.00    -0.049 Br
HETATM    5  C   UNL     1      40.346 -13.508   1.998  1.00  0.00     0.028 A 
HETATM    6  C   UNL     1      39.806 -12.459   1.235  1.00  0.00     0.026 A 
HETATM    7  C   UNL     1      39.449 -12.643  -0.104  1.00  0.00     0.025 A 
ENDROOT
BRANCH   5   8
HETATM    8  N   UNL     1      40.668 -13.344   3.360  1.00  0.00    -0.279 NA
HETATM    9  C   UNL     1      42.001 -12.799   3.675  1.00  0.00     0.123 C 
HETATM   10  C   UNL     1      42.293 -13.004   5.177  1.00  0.00     0.247 C 
HETATM   11  N   UNL     1      41.184 -12.403   6.016  1.00  0.00    -0.073 N 
HETATM   12  H   UNL     1      41.193 -11.381   5.914  1.00  0.00     0.277 HD
HETATM   13  H   UNL     1      41.362 -12.604   7.008  1.00  0.00     0.277 HD
HETATM   14  C   UNL     1      39.817 -12.933   5.639  1.00  0.00     0.247 C 
HETATM   15  C   UNL     1      39.560 -12.738   4.131  1.00  0.00     0.123 C 
ENDBRANCH   5   8
BRANCH   1  16
HETATM   16  S   UNL     1      39.117 -14.153  -2.385  1.00  0.00     0.171 S 
HETATM   17  C   UNL     1      37.682 -13.125  -2.546  1.00  0.00     0.167 C 
HETATM   18  O   UNL     1      38.699 -15.537  -2.489  1.00  0.00    -0.223 OA
HETATM   19  O   UNL     1      40.167 -13.622  -3.232  1.00  0.00    -0.223 OA
ENDBRANCH   1  16
TORSDOF 2
ENDMDL
MODEL 7
REMARK VINA RESULT:      -5.5     14.657     15.745
REMARK  2 active torsions:
REMARK  status: ('A' for Active; 'I' for Inactive)
REMARK    1  A    between atoms: S_2  and  C_3 
REMARK    2  A    between atoms: C_7  and  N_8 
ROOT
HETATM    1  C   UNL     1      42.003 -30.905   1.869  1.00  0.00     0.060 A 
HETATM    2  C   UNL     1      42.707 -31.820   1.089  1.00  0.00     0.044 A 
HETATM    3  C   UNL     1      43.551 -31.350   0.079  1.00  0.00     0.033 A 
HETATM    4 BR   UNL     1      44.435 -32.655  -0.992  1.00  0.00    -0.049 Br
HETATM    5  C   UNL     1      43.718 -29.964  -0.161  1.00  0.00     0.028 A 
HETATM    6  C   UNL     1      42.996 -29.072   0.649  1.00  0.00     0.026 A 
HETATM    7  C   UNL     1      42.147 -29.533   1.660  1.00  0.00     0.025 A 
ENDROOT
BRANCH   5   8
HETATM    8  N   UNL     1      44.609 -29.509  -1.153  1.00  0.00    -0.279 NA
HETATM    9  C   UNL     1      44.071 -29.341  -2.515  1.00  0.00     0.123 C 
HETATM   10  C   UNL     1      45.241 -29.167  -3.507  1.00  0.00     0.247 C 
HETATM   11  N   UNL     1      46.136 -28.026  -3.070  1.00  0.00    -0.073 N 
HETATM   12  H   UNL     1      45.625 -27.138  -3.153  1.00  0.00     0.277 HD
HETATM   13  H   UNL     1      46.942 -27.965  -3.705  1.00  0.00     0.277 HD
HETATM   14  C   UNL     1      46.633 -28.187  -1.649  1.00  0.00     0.247 C 
HETATM   15  C   UNL     1      45.447 -28.383  -0.683  1.00  0.00     0.123 C 
ENDBRANCH   5   8
BRANCH   1  16
HETATM   16  S   UNL     1      40.983 -31.498   3.200  1.00  0.00     0.171 S 
HETATM   17  C   UNL     1      41.933 -32.823   3.899  1.00  0.00     0.167 C 
HETATM   18  O   UNL     1      39.787 -32.062   2.603  1.00  0.00    -0.223 OA
HETATM   19  O   UNL     1      40.900 -30.424   4.170  1.00  0.00    -0.223 OA
ENDBRANCH   1  16
TORSDOF 2
ENDMDL
MODEL 8
REMARK VINA RESULT:      -5.4      5.479      6.858
REMARK  2 active torsions:
REMARK  status: ('A' for Active; 'I' for Inactive)
REMARK    1  A    between atoms: S_2  and  C_3 
REMARK    2  A    between atoms: C_7  and  N_8 
ROOT
HETATM    1  C   UNL     1      41.480 -13.876   2.299  1.00  0.00     0.060 A 
HETATM    2  C   UNL     1      41.569 -12.712   1.539  1.00  0.00     0.044 A 
HETATM    3  C   UNL     1      40.853 -12.620   0.342  1.00  0.00     0.033 A 
HETATM    4 BR   UNL     1      41.069 -11.028  -0.682  1.00  0.00    -0.049 Br
HETATM    5  C   UNL     1      40.026 -13.679  -0.109  1.00  0.00     0.028 A 
HETATM    6  C   UNL     1      39.957 -14.834   0.688  1.00  0.00     0.026 A 
HETATM    7  C   UNL     1      40.673 -14.936   1.885  1.00  0.00     0.025 A 
ENDROOT
BRANCH   5   8
HETATM    8  N   UNL     1      39.275 -13.549  -1.293  1.00  0.00    -0.279 NA
HETATM    9  C   UNL     1      38.985 -14.785  -2.044  1.00  0.00     0.123 C 
HETATM   10  C   UNL     1      38.459 -14.416  -3.448  1.00  0.00     0.247 C 
HETATM   11  N   UNL     1      37.269 -13.487  -3.338  1.00  0.00    -0.073 N 
HETATM   12  H   UNL     1      36.478 -13.991  -2.917  1.00  0.00     0.277 HD
HETATM   13  H   UNL     1      36.972 -13.201  -4.279  1.00  0.00     0.277 HD
HETATM   14  C   UNL     1      37.569 -12.251  -2.515  1.00  0.00     0.247 C 
HETATM   15  C   UNL     1      38.114 -12.646  -1.128  1.00  0.00     0.123 C 
ENDBRANCH   5   8
BRANCH   1  16
HETATM   16  S   UNL     1      42.335 -13.967   3.856  1.00  0.00     0.171 S 
HETATM   17  C   UNL     1      43.155 -15.537   3.793  1.00  0.00     0.167 C 
HETATM   18  O   UNL     1      41.324 -14.023   4.895  1.00  0.00    -0.223 OA
HETATM   19  O   UNL     1      43.336 -12.919   3.842  1.00  0.00    -0.223 OA
ENDBRANCH   1  16
TORSDOF 2
ENDMDL
MODEL 9
REMARK VINA RESULT:      -5.3      3.453      4.647
REMARK  2 active torsions:
REMARK  status: ('A' for Active; 'I' for Inactive)
REMARK    1  A    between atoms: S_2  and  C_3 
REMARK    2  A    between atoms: C_7  and  N_8 
ROOT
HETATM    1  C   UNL     1      40.275 -11.574   5.839  1.00  0.00     0.060 A 
HETATM    2  C   UNL     1      41.642 -11.433   6.064  1.00  0.00     0.044 A 
HETATM    3  C   UNL     1      42.434 -12.578   6.196  1.00  0.00     0.033 A 
HETATM    4 BR   UNL     1      44.285 -12.316   6.566  1.00  0.00    -0.049 Br
HETATM    5  C   UNL     1      41.881 -13.877   6.091  1.00  0.00     0.028 A 
HETATM    6  C   UNL     1      40.499 -13.979   5.858  1.00  0.00     0.026 A 
HETATM    7  C   UNL     1      39.698 -12.840   5.728  1.00  0.00     0.025 A 
ENDROOT
BRANCH   5   8
HETATM    8  N   UNL     1      42.703 -15.018   6.179  1.00  0.00    -0.279 NA
HETATM    9  C   UNL     1      42.601 -15.828   7.407  1.00  0.00     0.123 C 
HETATM   10  C   UNL     1      43.786 -16.815   7.466  1.00  0.00     0.247 C 
HETATM   11  N   UNL     1      43.844 -17.646   6.201  1.00  0.00    -0.073 N 
HETATM   12  H   UNL     1      43.025 -18.266   6.161  1.00  0.00     0.277 HD
HETATM   13  H   UNL     1      44.673 -18.251   6.230  1.00  0.00     0.277 HD
HETATM   14  C   UNL     1      43.891 -16.797   4.949  1.00  0.00     0.247 C 
HETATM   15  C   UNL     1      42.710 -15.805   4.925  1.00  0.00     0.123 C 
ENDBRANCH   5   8
BRANCH   1  16
HETATM   16  S   UNL     1      39.277 -10.120   5.602  1.00  0.00     0.171 S 
HETATM   17  C   UNL     1      40.468  -8.827   5.370  1.00  0.00     0.167 C 
HETATM   18  O   UNL     1      38.577  -9.875   6.849  1.00  0.00    -0.223 OA
HETATM   19  O   UNL     1      38.552 -10.312   4.362  1.00  0.00    -0.223 OA
ENDBRANCH   1  16
TORSDOF 2
ENDMDL
MODEL 10
REMARK VINA RESULT:      -5.3      3.482      4.470
REMARK  2 active torsions:
REMARK  status: ('A' for Active; 'I' for Inactive)
REMARK    1  A    between atoms: S_2  and  C_3 
REMARK    2  A    between atoms: C_7  and  N_8 
ROOT
HETATM    1  C   UNL     1      41.330 -11.885   1.137  1.00  0.00     0.060 A 
HETATM    2  C   UNL     1      40.740 -13.137   0.980  1.00  0.00     0.044 A 
HETATM    3  C   UNL     1      40.806 -14.061   2.027  1.00  0.00     0.033 A 
HETATM    4 BR   UNL     1      40.034 -15.776   1.723  1.00  0.00    -0.049 Br
HETATM    5  C   UNL     1      41.448 -13.748   3.250  1.00  0.00     0.028 A 
HETATM    6  C   UNL     1      42.027 -12.474   3.374  1.00  0.00     0.026 A 
HETATM    7  C   UNL     1      41.968 -11.544   2.330  1.00  0.00     0.025 A 
ENDROOT
BRANCH   5   8
HETATM    8  N   UNL     1      41.463 -14.674   4.311  1.00  0.00    -0.279 NA
HETATM    9  C   UNL     1      42.770 -15.240   4.692  1.00  0.00     0.123 C 
HETATM   10  C   UNL     1      42.550 -16.454   5.619  1.00  0.00     0.247 C 
HETATM   11  N   UNL     1      41.696 -16.062   6.807  1.00  0.00    -0.073 N 
HETATM   12  H   UNL     1      42.218 -15.406   7.402  1.00  0.00     0.277 HD
HETATM   13  H   UNL     1      41.507 -16.895   7.378  1.00  0.00     0.277 HD
HETATM   14  C   UNL     1      40.383 -15.431   6.397  1.00  0.00     0.247 C 
HETATM   15  C   UNL     1      40.629 -14.237   5.453  1.00  0.00     0.123 C 
ENDBRANCH   5   8
BRANCH   1  16
HETATM   16  S   UNL     1      41.187 -10.684  -0.167  1.00  0.00     0.171 S 
HETATM   17  C   UNL     1      39.544 -10.047   0.028  1.00  0.00     0.167 C 
HETATM   18  O   UNL     1      41.248 -11.408  -1.422  1.00  0.00    -0.223 OA
HETATM   19  O   UNL     1      42.133  -9.629   0.135  1.00  0.00    -0.223 OA
ENDBRANCH   1  16
TORSDOF 2
ENDMDL
