MODEL 1
REMARK VINA RESULT:      -8.2      0.000      0.000
REMARK  7 active torsions:
REMARK  status: ('A' for Active; 'I' for Inactive)
REMARK    1  A    between atoms: C_2  and  O_3 
REMARK    2  A    between atoms: O_3  and  C_4 
REMARK    3  A    between atoms: C_7  and  N_8 
REMARK       I    between atoms: N_8  and  C_9 
REMARK    4  A    between atoms: C_9  and  C_10 
REMARK    5  A    between atoms: C_10  and  S_11 
REMARK    6  A    between atoms: S_11  and  C_12 
REMARK    7  A    between atoms: N_13  and  C_14 
ROOT
HETATM    1  C   UNL     1      41.097 -12.063   2.087  1.00  0.00     0.177 A 
HETATM    2  N   UNL     1      41.105 -13.169   1.206  1.00  0.00    -0.276 N 
HETATM    3  C   UNL     1      40.600 -12.965  -0.130  1.00  0.00     0.124 A 
HETATM    4  N   UNL     1      40.597 -13.907  -1.055  1.00  0.00    -0.384 N 
HETATM    5  H   UNL     1      40.259 -13.720  -1.987  1.00  0.00     0.157 HD
HETATM    6  H   UNL     1      40.963 -14.827  -0.848  1.00  0.00     0.157 HD
HETATM    7  C   UNL     1      40.127 -11.653  -0.435  1.00  0.00     0.081 A 
HETATM    8  C   UNL     1      40.244 -10.662   0.534  1.00  0.00     0.187 A 
HETATM    9  N   UNL     1      39.774  -9.492   0.125  1.00  0.00    -0.153 NA
HETATM   10  N   UNL     1      39.348  -9.746  -1.126  1.00  0.00    -0.280 N 
HETATM   11  H   UNL     1      38.935  -8.981  -1.652  1.00  0.00     0.189 HD
HETATM   12  C   UNL     1      39.528 -11.057  -1.520  1.00  0.00     0.042 A 
HETATM   13  C   UNL     1      39.091 -11.533  -2.850  1.00  0.00     0.071 C 
HETATM   14  N   UNL     1      40.736 -10.843   1.818  1.00  0.00    -0.202 NA
ENDROOT
BRANCH   1  15
HETATM   15  S   UNL     1      41.601 -12.313   3.779  1.00  0.00    -0.082 SA
BRANCH  15  16
HETATM   16  C   UNL     1      40.037 -12.902   4.500  1.00  0.00     0.185 C 
BRANCH  16  17
HETATM   17  C   UNL     1      40.110 -12.834   6.008  1.00  0.00     0.231 C 
HETATM   18  N   UNL     1      40.938 -13.623   6.748  1.00  0.00    -0.327 N 
HETATM   19  H   UNL     1      40.969 -13.291   7.707  1.00  0.00     0.169 HD
HETATM   20  O   UNL     1      39.449 -11.983   6.618  1.00  0.00    -0.272 OA
BRANCH  18  21
HETATM   21  C   UNL     1      41.692 -14.778   6.484  1.00  0.00     0.034 A 
HETATM   22  C   UNL     1      41.168 -16.038   6.213  1.00  0.00     0.032 A 
HETATM   23  C   UNL     1      42.021 -17.133   6.018  1.00  0.00     0.039 A 
HETATM   24  C   UNL     1      43.407 -16.992   6.095  1.00  0.00     0.068 A 
HETATM   25  C   UNL     1      43.938 -15.736   6.367  1.00  0.00     0.039 A 
HETATM   26  C   UNL     1      43.085 -14.643   6.569  1.00  0.00     0.032 A 
BRANCH  24  27
HETATM   27  O   UNL     1      44.113 -18.144   5.900  1.00  0.00    -0.352 OA
BRANCH  27  28
HETATM   28  C   UNL     1      43.574 -19.341   6.462  1.00  0.00     0.171 C 
HETATM   29  C   UNL     1      44.005 -20.504   5.587  1.00  0.00     0.034 C 
ENDBRANCH  27  28
ENDBRANCH  24  27
ENDBRANCH  18  21
ENDBRANCH  16  17
ENDBRANCH  15  16
ENDBRANCH   1  15
BRANCH   2  30
HETATM   30  C   UNL     1      41.656 -14.428   1.585  1.00  0.00     0.043 A 
HETATM   31  C   UNL     1      40.812 -15.485   1.959  1.00  0.00     0.031 A 
HETATM   32  C   UNL     1      41.343 -16.738   2.274  1.00  0.00     0.021 A 
HETATM   33  C   UNL     1      42.720 -16.940   2.212  1.00  0.00     0.011 A 
HETATM   34 BR   UNL     1      43.438 -18.636   2.633  1.00  0.00    -0.051 Br
HETATM   35  C   UNL     1      43.572 -15.902   1.839  1.00  0.00     0.021 A 
HETATM   36  C   UNL     1      43.041 -14.650   1.522  1.00  0.00     0.031 A 
ENDBRANCH   2  30
TORSDOF 7
ENDMDL
MODEL 2
REMARK VINA RESULT:      -8.0      4.846      7.623
REMARK  7 active torsions:
REMARK  status: ('A' for Active; 'I' for Inactive)
REMARK    1  A    between atoms: C_2  and  O_3 
REMARK    2  A    between atoms: O_3  and  C_4 
REMARK    3  A    between atoms: C_7  and  N_8 
REMARK       I    between atoms: N_8  and  C_9 
REMARK    4  A    between atoms: C_9  and  C_10 
REMARK    5  A    between atoms: C_10  and  S_11 
REMARK    6  A    between atoms: S_11  and  C_12 
REMARK    7  A    between atoms: N_13  and  C_14 
ROOT
HETATM    1  C   UNL     1      42.716 -14.412   4.944  1.00  0.00     0.177 A 
HETATM    2  N   UNL     1      42.111 -14.649   3.689  1.00  0.00    -0.276 N 
HETATM    3  C   UNL     1      42.320 -15.938   3.076  1.00  0.00     0.124 A 
HETATM    4  N   UNL     1      41.771 -16.293   1.929  1.00  0.00    -0.384 N 
HETATM    5  H   UNL     1      41.920 -17.213   1.544  1.00  0.00     0.157 HD
HETATM    6  H   UNL     1      41.165 -15.652   1.433  1.00  0.00     0.157 HD
HETATM    7  C   UNL     1      43.136 -16.858   3.801  1.00  0.00     0.081 A 
HETATM    8  C   UNL     1      43.610 -16.483   5.054  1.00  0.00     0.187 A 
HETATM    9  N   UNL     1      44.349 -17.426   5.621  1.00  0.00    -0.153 NA
HETATM   10  N   UNL     1      44.346 -18.417   4.710  1.00  0.00    -0.280 N 
HETATM   11  H   UNL     1      44.864 -19.263   4.927  1.00  0.00     0.189 HD
HETATM   12  C   UNL     1      43.629 -18.121   3.568  1.00  0.00     0.042 A 
HETATM   13  C   UNL     1      43.539 -19.074   2.441  1.00  0.00     0.071 C 
HETATM   14  N   UNL     1      43.408 -15.251   5.658  1.00  0.00    -0.202 NA
ENDROOT
BRANCH   1  15
HETATM   15  S   UNL     1      42.576 -12.789   5.669  1.00  0.00    -0.082 SA
BRANCH  15  16
HETATM   16  C   UNL     1      44.149 -12.704   6.581  1.00  0.00     0.185 C 
BRANCH  16  17
HETATM   17  C   UNL     1      44.862 -11.412   6.254  1.00  0.00     0.231 C 
HETATM   18  N   UNL     1      45.060 -10.420   7.166  1.00  0.00    -0.327 N 
HETATM   19  H   UNL     1      45.713  -9.736   6.799  1.00  0.00     0.169 HD
HETATM   20  O   UNL     1      45.361 -11.253   5.131  1.00  0.00    -0.272 OA
BRANCH  18  21
HETATM   21  C   UNL     1      44.537 -10.136   8.438  1.00  0.00     0.034 A 
HETATM   22  C   UNL     1      43.208  -9.833   8.715  1.00  0.00     0.032 A 
HETATM   23  C   UNL     1      42.811  -9.511  10.020  1.00  0.00     0.039 A 
HETATM   24  C   UNL     1      43.731  -9.480  11.067  1.00  0.00     0.068 A 
HETATM   25  C   UNL     1      45.062  -9.779  10.799  1.00  0.00     0.039 A 
HETATM   26  C   UNL     1      45.461 -10.093   9.493  1.00  0.00     0.032 A 
BRANCH  24  27
HETATM   27  O   UNL     1      43.209  -9.134  12.281  1.00  0.00    -0.352 OA
BRANCH  27  28
HETATM   28  C   UNL     1      42.807  -7.775  12.453  1.00  0.00     0.171 C 
HETATM   29  C   UNL     1      43.211  -7.342  13.851  1.00  0.00     0.034 C 
ENDBRANCH  27  28
ENDBRANCH  24  27
ENDBRANCH  18  21
ENDBRANCH  16  17
ENDBRANCH  15  16
ENDBRANCH   1  15
BRANCH   2  30
HETATM   30  C   UNL     1      41.259 -13.686   3.072  1.00  0.00     0.043 A 
HETATM   31  C   UNL     1      41.767 -12.820   2.091  1.00  0.00     0.031 A 
HETATM   32  C   UNL     1      40.925 -11.915   1.440  1.00  0.00     0.021 A 
HETATM   33  C   UNL     1      39.571 -11.876   1.765  1.00  0.00     0.011 A 
HETATM   34 BR   UNL     1      38.430 -10.655   0.881  1.00  0.00    -0.051 Br
HETATM   35  C   UNL     1      39.050 -12.731   2.734  1.00  0.00     0.021 A 
HETATM   36  C   UNL     1      39.891 -13.637   3.382  1.00  0.00     0.031 A 
ENDBRANCH   2  30
TORSDOF 7
ENDMDL
MODEL 3
REMARK VINA RESULT:      -7.9      2.622      4.022
REMARK  7 active torsions:
REMARK  status: ('A' for Active; 'I' for Inactive)
REMARK    1  A    between atoms: C_2  and  O_3 
REMARK    2  A    between atoms: O_3  and  C_4 
REMARK    3  A    between atoms: C_7  and  N_8 
REMARK       I    between atoms: N_8  and  C_9 
REMARK    4  A    between atoms: C_9  and  C_10 
REMARK    5  A    between atoms: C_10  and  S_11 
REMARK    6  A    between atoms: S_11  and  C_12 
REMARK    7  A    between atoms: N_13  and  C_14 
ROOT
HETATM    1  C   UNL     1      41.043 -12.150   0.614  1.00  0.00     0.177 A 
HETATM    2  N   UNL     1      40.685 -13.516   0.650  1.00  0.00    -0.276 N 
HETATM    3  C   UNL     1      39.853 -14.021  -0.415  1.00  0.00     0.124 A 
HETATM    4  N   UNL     1      39.491 -15.287  -0.515  1.00  0.00    -0.384 N 
HETATM    5  H   UNL     1      38.929 -15.607  -1.289  1.00  0.00     0.157 HD
HETATM    6  H   UNL     1      39.798 -15.961   0.174  1.00  0.00     0.157 HD
HETATM    7  C   UNL     1      39.460 -13.077  -1.412  1.00  0.00     0.081 A 
HETATM    8  C   UNL     1      39.949 -11.777  -1.328  1.00  0.00     0.187 A 
HETATM    9  N   UNL     1      39.514 -11.005  -2.313  1.00  0.00    -0.153 NA
HETATM   10  N   UNL     1      38.732 -11.829  -3.035  1.00  0.00    -0.280 N 
HETATM   11  H   UNL     1      38.275 -11.449  -3.858  1.00  0.00     0.189 HD
HETATM   12  C   UNL     1      38.651 -13.109  -2.524  1.00  0.00     0.042 A 
HETATM   13  C   UNL     1      37.813 -14.146  -3.163  1.00  0.00     0.071 C 
HETATM   14  N   UNL     1      40.756 -11.283  -0.313  1.00  0.00    -0.202 NA
ENDROOT
BRANCH   1  15
HETATM   15  S   UNL     1      41.967 -11.470   1.979  1.00  0.00    -0.082 SA
BRANCH  15  16
HETATM   16  C   UNL     1      40.679 -10.454   2.769  1.00  0.00     0.185 C 
BRANCH  16  17
HETATM   17  C   UNL     1      39.791 -11.328   3.624  1.00  0.00     0.231 C 
HETATM   18  N   UNL     1      40.101 -11.677   4.904  1.00  0.00    -0.327 N 
HETATM   19  H   UNL     1      39.295 -12.101   5.353  1.00  0.00     0.169 HD
HETATM   20  O   UNL     1      38.692 -11.699   3.190  1.00  0.00    -0.272 OA
BRANCH  18  21
HETATM   21  C   UNL     1      41.266 -11.614   5.685  1.00  0.00     0.034 A 
HETATM   22  C   UNL     1      41.686 -10.510   6.420  1.00  0.00     0.032 A 
HETATM   23  C   UNL     1      42.900 -10.545   7.120  1.00  0.00     0.039 A 
HETATM   24  C   UNL     1      43.715 -11.676   7.096  1.00  0.00     0.068 A 
HETATM   25  C   UNL     1      43.303 -12.783   6.363  1.00  0.00     0.039 A 
HETATM   26  C   UNL     1      42.094 -12.746   5.656  1.00  0.00     0.032 A 
BRANCH  24  27
HETATM   27  O   UNL     1      44.874 -11.564   7.810  1.00  0.00    -0.352 OA
BRANCH  27  28
HETATM   28  C   UNL     1      45.966 -10.897   7.176  1.00  0.00     0.171 C 
HETATM   29  C   UNL     1      46.325  -9.684   8.015  1.00  0.00     0.034 C 
ENDBRANCH  27  28
ENDBRANCH  24  27
ENDBRANCH  18  21
ENDBRANCH  16  17
ENDBRANCH  15  16
ENDBRANCH   1  15
BRANCH   2  30
HETATM   30  C   UNL     1      41.179 -14.396   1.657  1.00  0.00     0.043 A 
HETATM   31  C   UNL     1      42.511 -14.839   1.615  1.00  0.00     0.031 A 
HETATM   32  C   UNL     1      43.018 -15.654   2.630  1.00  0.00     0.021 A 
HETATM   33  C   UNL     1      42.198 -16.025   3.693  1.00  0.00     0.011 A 
HETATM   34 BR   UNL     1      42.886 -17.123   5.069  1.00  0.00    -0.051 Br
HETATM   35  C   UNL     1      40.875 -15.592   3.752  1.00  0.00     0.021 A 
HETATM   36  C   UNL     1      40.368 -14.775   2.738  1.00  0.00     0.031 A 
ENDBRANCH   2  30
TORSDOF 7
ENDMDL
MODEL 4
REMARK VINA RESULT:      -7.6      3.905      7.343
REMARK  7 active torsions:
REMARK  status: ('A' for Active; 'I' for Inactive)
REMARK    1  A    between atoms: C_2  and  O_3 
REMARK    2  A    between atoms: O_3  and  C_4 
REMARK    3  A    between atoms: C_7  and  N_8 
REMARK       I    between atoms: N_8  and  C_9 
REMARK    4  A    between atoms: C_9  and  C_10 
REMARK    5  A    between atoms: C_10  and  S_11 
REMARK    6  A    between atoms: S_11  and  C_12 
REMARK    7  A    between atoms: N_13  and  C_14 
ROOT
HETATM    1  C   UNL     1      43.658 -12.068   6.950  1.00  0.00     0.177 A 
HETATM    2  N   UNL     1      42.583 -11.190   6.686  1.00  0.00    -0.276 N 
HETATM    3  C   UNL     1      42.464 -10.009   7.506  1.00  0.00     0.124 A 
HETATM    4  N   UNL     1      41.530  -9.093   7.326  1.00  0.00    -0.384 N 
HETATM    5  H   UNL     1      41.495  -8.267   7.904  1.00  0.00     0.157 HD
HETATM    6  H   UNL     1      40.852  -9.195   6.583  1.00  0.00     0.157 HD
HETATM    7  C   UNL     1      43.451  -9.843   8.524  1.00  0.00     0.081 A 
HETATM    8  C   UNL     1      44.479 -10.777   8.613  1.00  0.00     0.187 A 
HETATM    9  N   UNL     1      45.328 -10.506   9.593  1.00  0.00    -0.153 NA
HETATM   10  N   UNL     1      44.829  -9.382  10.139  1.00  0.00    -0.280 N 
HETATM   11  H   UNL     1      45.323  -8.978  10.930  1.00  0.00     0.189 HD
HETATM   12  C   UNL     1      43.672  -8.934   9.532  1.00  0.00     0.042 A 
HETATM   13  C   UNL     1      42.961  -7.731  10.014  1.00  0.00     0.071 C 
HETATM   14  N   UNL     1      44.609 -11.911   7.825  1.00  0.00    -0.202 NA
ENDROOT
BRANCH   1  15
HETATM   15  S   UNL     1      43.762 -13.596   6.036  1.00  0.00    -0.082 SA
BRANCH  15  16
HETATM   16  C   UNL     1      42.756 -14.679   7.098  1.00  0.00     0.185 C 
BRANCH  16  17
HETATM   17  C   UNL     1      43.194 -16.115   6.927  1.00  0.00     0.231 C 
HETATM   18  N   UNL     1      43.057 -16.800   5.757  1.00  0.00    -0.327 N 
HETATM   19  H   UNL     1      43.578 -17.670   5.801  1.00  0.00     0.169 HD
HETATM   20  O   UNL     1      43.771 -16.696   7.856  1.00  0.00    -0.272 OA
BRANCH  18  21
HETATM   21  C   UNL     1      42.339 -16.583   4.569  1.00  0.00     0.034 A 
HETATM   22  C   UNL     1      42.855 -16.703   3.283  1.00  0.00     0.032 A 
HETATM   23  C   UNL     1      42.057 -16.407   2.169  1.00  0.00     0.039 A 
HETATM   24  C   UNL     1      40.737 -15.983   2.319  1.00  0.00     0.068 A 
HETATM   25  C   UNL     1      40.215 -15.860   3.602  1.00  0.00     0.039 A 
HETATM   26  C   UNL     1      41.014 -16.148   4.715  1.00  0.00     0.032 A 
BRANCH  24  27
HETATM   27  O   UNL     1      40.084 -15.715   1.150  1.00  0.00    -0.352 OA
BRANCH  27  28
HETATM   28  C   UNL     1      40.582 -14.637   0.359  1.00  0.00     0.171 C 
HETATM   29  C   UNL     1      39.687 -14.496  -0.859  1.00  0.00     0.034 C 
ENDBRANCH  27  28
ENDBRANCH  24  27
ENDBRANCH  18  21
ENDBRANCH  16  17
ENDBRANCH  15  16
ENDBRANCH   1  15
BRANCH   2  30
HETATM   30  C   UNL     1      41.682 -11.410   5.603  1.00  0.00     0.043 A 
HETATM   31  C   UNL     1      40.465 -12.076   5.822  1.00  0.00     0.031 A 
HETATM   32  C   UNL     1      39.552 -12.242   4.778  1.00  0.00     0.021 A 
HETATM   33  C   UNL     1      39.850 -11.741   3.512  1.00  0.00     0.011 A 
HETATM   34 BR   UNL     1      38.613 -11.962   2.101  1.00  0.00    -0.051 Br
HETATM   35  C   UNL     1      41.052 -11.076   3.280  1.00  0.00     0.021 A 
HETATM   36  C   UNL     1      41.964 -10.907   4.324  1.00  0.00     0.031 A 
ENDBRANCH   2  30
TORSDOF 7
ENDMDL
MODEL 5
REMARK VINA RESULT:      -7.6      3.296      5.800
REMARK  7 active torsions:
REMARK  status: ('A' for Active; 'I' for Inactive)
REMARK    1  A    between atoms: C_2  and  O_3 
REMARK    2  A    between atoms: O_3  and  C_4 
REMARK    3  A    between atoms: C_7  and  N_8 
REMARK       I    between atoms: N_8  and  C_9 
REMARK    4  A    between atoms: C_9  and  C_10 
REMARK    5  A    between atoms: C_10  and  S_11 
REMARK    6  A    between atoms: S_11  and  C_12 
REMARK    7  A    between atoms: N_13  and  C_14 
ROOT
HETATM    1  C   UNL     1      41.881 -10.122   4.379  1.00  0.00     0.177 A 
HETATM    2  N   UNL     1      42.005 -10.633   5.691  1.00  0.00    -0.276 N 
HETATM    3  C   UNL     1      41.593  -9.785   6.783  1.00  0.00     0.124 A 
HETATM    4  N   UNL     1      41.618 -10.168   8.047  1.00  0.00    -0.384 N 
HETATM    5  H   UNL     1      41.298  -9.555   8.781  1.00  0.00     0.157 HD
HETATM    6  H   UNL     1      41.934 -11.097   8.292  1.00  0.00     0.157 HD
HETATM    7  C   UNL     1      41.102  -8.492   6.430  1.00  0.00     0.081 A 
HETATM    8  C   UNL     1      40.993  -8.167   5.082  1.00  0.00     0.187 A 
HETATM    9  N   UNL     1      40.522  -6.943   4.890  1.00  0.00    -0.153 NA
HETATM   10  N   UNL     1      40.330  -6.482   6.140  1.00  0.00    -0.280 N 
HETATM   11  H   UNL     1      39.969  -5.539   6.248  1.00  0.00     0.189 HD
HETATM   12  C   UNL     1      40.679  -7.383   7.126  1.00  0.00     0.042 A 
HETATM   13  C   UNL     1      40.570  -7.043   8.560  1.00  0.00     0.071 C 
HETATM   14  N   UNL     1      41.377  -8.976   4.023  1.00  0.00    -0.202 NA
ENDROOT
BRANCH   1  15
HETATM   15  S   UNL     1      42.494 -11.097   3.018  1.00  0.00    -0.082 SA
BRANCH  15  16
HETATM   16  C   UNL     1      40.925 -11.657   2.286  1.00  0.00     0.185 C 
BRANCH  16  17
HETATM   17  C   UNL     1      41.169 -12.178   0.888  1.00  0.00     0.231 C 
HETATM   18  N   UNL     1      41.476 -13.478   0.622  1.00  0.00    -0.327 N 
HETATM   19  H   UNL     1      41.413 -13.653  -0.376  1.00  0.00     0.169 HD
HETATM   20  O   UNL     1      41.019 -11.424  -0.083  1.00  0.00    -0.272 OA
BRANCH  18  21
HETATM   21  C   UNL     1      41.888 -14.571   1.403  1.00  0.00     0.034 A 
HETATM   22  C   UNL     1      43.196 -14.836   1.793  1.00  0.00     0.032 A 
HETATM   23  C   UNL     1      43.497 -15.991   2.528  1.00  0.00     0.039 A 
HETATM   24  C   UNL     1      42.501 -16.901   2.880  1.00  0.00     0.068 A 
HETATM   25  C   UNL     1      41.191 -16.645   2.493  1.00  0.00     0.039 A 
HETATM   26  C   UNL     1      40.892 -15.494   1.752  1.00  0.00     0.032 A 
BRANCH  24  27
HETATM   27  O   UNL     1      42.939 -17.989   3.581  1.00  0.00    -0.352 OA
BRANCH  27  28
HETATM   28  C   UNL     1      43.991 -18.758   2.997  1.00  0.00     0.171 C 
HETATM   29  C   UNL     1      43.359 -19.845   2.146  1.00  0.00     0.034 C 
ENDBRANCH  27  28
ENDBRANCH  24  27
ENDBRANCH  18  21
ENDBRANCH  16  17
ENDBRANCH  15  16
ENDBRANCH   1  15
BRANCH   2  30
HETATM   30  C   UNL     1      42.449 -11.965   5.939  1.00  0.00     0.043 A 
HETATM   31  C   UNL     1      41.585 -13.050   5.723  1.00  0.00     0.031 A 
HETATM   32  C   UNL     1      42.033 -14.360   5.908  1.00  0.00     0.021 A 
HETATM   33  C   UNL     1      43.348 -14.591   6.306  1.00  0.00     0.011 A 
HETATM   34 BR   UNL     1      43.956 -16.363   6.551  1.00  0.00    -0.051 Br
HETATM   35  C   UNL     1      44.220 -13.525   6.522  1.00  0.00     0.021 A 
HETATM   36  C   UNL     1      43.772 -12.215   6.335  1.00  0.00     0.031 A 
ENDBRANCH   2  30
TORSDOF 7
ENDMDL
MODEL 6
REMARK VINA RESULT:      -7.5      3.775      8.789
REMARK  7 active torsions:
REMARK  status: ('A' for Active; 'I' for Inactive)
REMARK    1  A    between atoms: C_2  and  O_3 
REMARK    2  A    between atoms: O_3  and  C_4 
REMARK    3  A    between atoms: C_7  and  N_8 
REMARK       I    between atoms: N_8  and  C_9 
REMARK    4  A    between atoms: C_9  and  C_10 
REMARK    5  A    between atoms: C_10  and  S_11 
REMARK    6  A    between atoms: S_11  and  C_12 
REMARK    7  A    between atoms: N_13  and  C_14 
ROOT
HETATM    1  C   UNL     1      42.932 -15.547   3.511  1.00  0.00     0.177 A 
HETATM    2  N   UNL     1      42.422 -15.350   4.815  1.00  0.00    -0.276 N 
HETATM    3  C   UNL     1      42.598 -16.415   5.772  1.00  0.00     0.124 A 
HETATM    4  N   UNL     1      42.207 -16.330   7.030  1.00  0.00    -0.384 N 
HETATM    5  H   UNL     1      42.370 -17.087   7.677  1.00  0.00     0.157 HD
HETATM    6  H   UNL     1      41.761 -15.488   7.371  1.00  0.00     0.157 HD
HETATM    7  C   UNL     1      43.270 -17.584   5.302  1.00  0.00     0.081 A 
HETATM    8  C   UNL     1      43.760 -17.592   4.000  1.00  0.00     0.187 A 
HETATM    9  N   UNL     1      44.364 -18.729   3.691  1.00  0.00    -0.153 NA
HETATM   10  N   UNL     1      44.255 -19.458   4.817  1.00  0.00    -0.280 N 
HETATM   11  H   UNL     1      44.651 -20.393   4.817  1.00  0.00     0.189 HD
HETATM   12  C   UNL     1      43.583 -18.812   5.835  1.00  0.00     0.042 A 
HETATM   13  C   UNL     1      43.336 -19.467   7.137  1.00  0.00     0.071 C 
HETATM   14  N   UNL     1      43.605 -16.571   3.074  1.00  0.00    -0.202 NA
ENDROOT
BRANCH   1  15
HETATM   15  S   UNL     1      42.623 -14.301   2.273  1.00  0.00    -0.082 SA
BRANCH  15  16
HETATM   16  C   UNL     1      41.703 -15.282   1.047  1.00  0.00     0.185 C 
BRANCH  16  17
HETATM   17  C   UNL     1      40.224 -14.995   1.167  1.00  0.00     0.231 C 
HETATM   18  N   UNL     1      39.554 -14.176   0.309  1.00  0.00    -0.327 N 
HETATM   19  H   UNL     1      38.553 -14.269   0.451  1.00  0.00     0.169 HD
HETATM   20  O   UNL     1      39.554 -15.573   2.033  1.00  0.00    -0.272 OA
BRANCH  18  21
HETATM   21  C   UNL     1      39.943 -13.237  -0.659  1.00  0.00     0.034 A 
HETATM   22  C   UNL     1      40.094 -11.871  -0.443  1.00  0.00     0.032 A 
HETATM   23  C   UNL     1      40.434 -11.019  -1.503  1.00  0.00     0.039 A 
HETATM   24  C   UNL     1      40.623 -11.512  -2.793  1.00  0.00     0.068 A 
HETATM   25  C   UNL     1      40.472 -12.876  -3.018  1.00  0.00     0.039 A 
HETATM   26  C   UNL     1      40.125 -13.727  -1.961  1.00  0.00     0.032 A 
BRANCH  24  27
HETATM   27  O   UNL     1      40.935 -10.568  -3.729  1.00  0.00    -0.352 OA
BRANCH  27  28
HETATM   28  C   UNL     1      40.446  -9.245  -3.506  1.00  0.00     0.171 C 
HETATM   29  C   UNL     1      41.558  -8.270  -3.851  1.00  0.00     0.034 C 
ENDBRANCH  27  28
ENDBRANCH  24  27
ENDBRANCH  18  21
ENDBRANCH  16  17
ENDBRANCH  15  16
ENDBRANCH   1  15
BRANCH   2  30
HETATM   30  C   UNL     1      41.819 -14.119   5.208  1.00  0.00     0.043 A 
HETATM   31  C   UNL     1      40.422 -13.980   5.190  1.00  0.00     0.031 A 
HETATM   32  C   UNL     1      39.823 -12.797   5.629  1.00  0.00     0.021 A 
HETATM   33  C   UNL     1      40.618 -11.750   6.092  1.00  0.00     0.011 A 
HETATM   34 BR   UNL     1      39.807 -10.153   6.692  1.00  0.00    -0.051 Br
HETATM   35  C   UNL     1      42.005 -11.874   6.120  1.00  0.00     0.021 A 
HETATM   36  C   UNL     1      42.604 -13.057   5.682  1.00  0.00     0.031 A 
ENDBRANCH   2  30
TORSDOF 7
ENDMDL
MODEL 7
REMARK VINA RESULT:      -7.5      4.301      5.863
REMARK  7 active torsions:
REMARK  status: ('A' for Active; 'I' for Inactive)
REMARK    1  A    between atoms: C_2  and  O_3 
REMARK    2  A    between atoms: O_3  and  C_4 
REMARK    3  A    between atoms: C_7  and  N_8 
REMARK       I    between atoms: N_8  and  C_9 
REMARK    4  A    between atoms: C_9  and  C_10 
REMARK    5  A    between atoms: C_10  and  S_11 
REMARK    6  A    between atoms: S_11  and  C_12 
REMARK    7  A    between atoms: N_13  and  C_14 
ROOT
HETATM    1  C   UNL     1      41.773 -12.583   4.124  1.00  0.00     0.177 A 
HETATM    2  N   UNL     1      41.176 -13.522   3.253  1.00  0.00    -0.276 N 
HETATM    3  C   UNL     1      40.017 -13.102   2.504  1.00  0.00     0.124 A 
HETATM    4  N   UNL     1      39.402 -13.873   1.627  1.00  0.00    -0.384 N 
HETATM    5  H   UNL     1      38.609 -13.535   1.103  1.00  0.00     0.157 HD
HETATM    6  H   UNL     1      39.738 -14.811   1.447  1.00  0.00     0.157 HD
HETATM    7  C   UNL     1      39.574 -11.762   2.724  1.00  0.00     0.081 A 
HETATM    8  C   UNL     1      40.312 -10.948   3.577  1.00  0.00     0.187 A 
HETATM    9  N   UNL     1      39.798  -9.733   3.690  1.00  0.00    -0.153 NA
HETATM   10  N   UNL     1      38.712  -9.776   2.897  1.00  0.00    -0.280 N 
HETATM   11  H   UNL     1      38.142  -8.938   2.826  1.00  0.00     0.189 HD
HETATM   12  C   UNL     1      38.516 -10.999   2.287  1.00  0.00     0.042 A 
HETATM   13  C   UNL     1      37.357 -11.248   1.404  1.00  0.00     0.071 C 
HETATM   14  N   UNL     1      41.433 -11.339   4.295  1.00  0.00    -0.202 NA
ENDROOT
BRANCH   1  15
HETATM   15  S   UNL     1      43.130 -13.109   5.153  1.00  0.00    -0.082 SA
BRANCH  15  16
HETATM   16  C   UNL     1      43.241 -11.696   6.294  1.00  0.00     0.185 C 
BRANCH  16  17
HETATM   17  C   UNL     1      44.595 -11.038   6.166  1.00  0.00     0.231 C 
HETATM   18  N   UNL     1      45.182 -10.340   7.178  1.00  0.00    -0.327 N 
HETATM   19  H   UNL     1      46.152 -10.147   6.949  1.00  0.00     0.169 HD
HETATM   20  O   UNL     1      45.254 -11.184   5.127  1.00  0.00    -0.272 OA
BRANCH  18  21
HETATM   21  C   UNL     1      44.732  -9.816   8.401  1.00  0.00     0.034 A 
HETATM   22  C   UNL     1      43.880  -8.726   8.546  1.00  0.00     0.032 A 
HETATM   23  C   UNL     1      43.542  -8.256   9.822  1.00  0.00     0.039 A 
HETATM   24  C   UNL     1      44.050  -8.860  10.972  1.00  0.00     0.068 A 
HETATM   25  C   UNL     1      44.904  -9.949  10.835  1.00  0.00     0.039 A 
HETATM   26  C   UNL     1      45.248 -10.414   9.559  1.00  0.00     0.032 A 
BRANCH  24  27
HETATM   27  O   UNL     1      43.650  -8.288  12.146  1.00  0.00    -0.352 OA
BRANCH  27  28
HETATM   28  C   UNL     1      42.256  -8.333  12.449  1.00  0.00     0.171 C 
HETATM   29  C   UNL     1      41.930  -9.731  12.945  1.00  0.00     0.034 C 
ENDBRANCH  27  28
ENDBRANCH  24  27
ENDBRANCH  18  21
ENDBRANCH  16  17
ENDBRANCH  15  16
ENDBRANCH   1  15
BRANCH   2  30
HETATM   30  C   UNL     1      41.731 -14.821   3.054  1.00  0.00     0.043 A 
HETATM   31  C   UNL     1      42.673 -15.037   2.036  1.00  0.00     0.031 A 
HETATM   32  C   UNL     1      43.264 -16.293   1.874  1.00  0.00     0.021 A 
HETATM   33  C   UNL     1      42.919 -17.335   2.732  1.00  0.00     0.011 A 
HETATM   34 BR   UNL     1      43.723 -19.032   2.516  1.00  0.00    -0.051 Br
HETATM   35  C   UNL     1      41.989 -17.136   3.750  1.00  0.00     0.021 A 
HETATM   36  C   UNL     1      41.400 -15.880   3.913  1.00  0.00     0.031 A 
ENDBRANCH   2  30
TORSDOF 7
ENDMDL
MODEL 8
REMARK VINA RESULT:      -7.4      3.546      7.190
REMARK  7 active torsions:
REMARK  status: ('A' for Active; 'I' for Inactive)
REMARK    1  A    between atoms: C_2  and  O_3 
REMARK    2  A    between atoms: O_3  and  C_4 
REMARK    3  A    between atoms: C_7  and  N_8 
REMARK       I    between atoms: N_8  and  C_9 
REMARK    4  A    between atoms: C_9  and  C_10 
REMARK    5  A    between atoms: C_10  and  S_11 
REMARK    6  A    between atoms: S_11  and  C_12 
REMARK    7  A    between atoms: N_13  and  C_14 
ROOT
HETATM    1  C   UNL     1      41.942 -10.300   5.349  1.00  0.00     0.177 A 
HETATM    2  N   UNL     1      42.858 -11.361   5.529  1.00  0.00    -0.276 N 
HETATM    3  C   UNL     1      43.725 -11.311   6.681  1.00  0.00     0.124 A 
HETATM    4  N   UNL     1      44.589 -12.263   6.981  1.00  0.00    -0.384 N 
HETATM    5  H   UNL     1      45.161 -12.204   7.810  1.00  0.00     0.157 HD
HETATM    6  H   UNL     1      44.668 -13.083   6.394  1.00  0.00     0.157 HD
HETATM    7  C   UNL     1      43.578 -10.175   7.534  1.00  0.00     0.081 A 
HETATM    8  C   UNL     1      42.585  -9.246   7.241  1.00  0.00     0.187 A 
HETATM    9  N   UNL     1      42.551  -8.246   8.109  1.00  0.00    -0.153 NA
HETATM   10  N   UNL     1      43.544  -8.544   8.968  1.00  0.00    -0.280 N 
HETATM   11  H   UNL     1      43.715  -7.902   9.737  1.00  0.00     0.189 HD
HETATM   12  C   UNL     1      44.217  -9.709   8.660  1.00  0.00     0.042 A 
HETATM   13  C   UNL     1      45.359 -10.181   9.470  1.00  0.00     0.071 C 
HETATM   14  N   UNL     1      41.740  -9.289   6.142  1.00  0.00    -0.202 NA
ENDROOT
BRANCH   1  15
HETATM   15  S   UNL     1      40.943 -10.272   3.872  1.00  0.00    -0.082 SA
BRANCH  15  16
HETATM   16  C   UNL     1      39.316 -10.693   4.571  1.00  0.00     0.185 C 
BRANCH  16  17
HETATM   17  C   UNL     1      39.211 -12.188   4.761  1.00  0.00     0.231 C 
HETATM   18  N   UNL     1      39.324 -13.078   3.735  1.00  0.00    -0.327 N 
HETATM   19  H   UNL     1      39.412 -14.021   4.101  1.00  0.00     0.169 HD
HETATM   20  O   UNL     1      39.087 -12.656   5.901  1.00  0.00    -0.272 OA
BRANCH  18  21
HETATM   21  C   UNL     1      39.302 -12.972   2.335  1.00  0.00     0.034 A 
HETATM   22  C   UNL     1      38.633 -11.990   1.611  1.00  0.00     0.032 A 
HETATM   23  C   UNL     1      38.636 -12.017   0.210  1.00  0.00     0.039 A 
HETATM   24  C   UNL     1      39.299 -13.024  -0.492  1.00  0.00     0.068 A 
HETATM   25  C   UNL     1      39.969 -14.010   0.225  1.00  0.00     0.039 A 
HETATM   26  C   UNL     1      39.959 -13.987   1.625  1.00  0.00     0.032 A 
BRANCH  24  27
HETATM   27  O   UNL     1      39.205 -12.935  -1.851  1.00  0.00    -0.352 OA
BRANCH  27  28
HETATM   28  C   UNL     1      40.302 -13.438  -2.613  1.00  0.00     0.171 C 
HETATM   29  C   UNL     1      41.174 -12.260  -3.013  1.00  0.00     0.034 C 
ENDBRANCH  27  28
ENDBRANCH  24  27
ENDBRANCH  18  21
ENDBRANCH  16  17
ENDBRANCH  15  16
ENDBRANCH   1  15
BRANCH   2  30
HETATM   30  C   UNL     1      42.886 -12.486   4.654  1.00  0.00     0.043 A 
HETATM   31  C   UNL     1      43.401 -12.356   3.354  1.00  0.00     0.031 A 
HETATM   32  C   UNL     1      43.486 -13.468   2.512  1.00  0.00     0.021 A 
HETATM   33  C   UNL     1      43.061 -14.714   2.968  1.00  0.00     0.011 A 
HETATM   34 BR   UNL     1      43.181 -16.219   1.831  1.00  0.00    -0.051 Br
HETATM   35  C   UNL     1      42.550 -14.861   4.256  1.00  0.00     0.021 A 
HETATM   36  C   UNL     1      42.468 -13.749   5.099  1.00  0.00     0.031 A 
ENDBRANCH   2  30
TORSDOF 7
ENDMDL
MODEL 9
REMARK VINA RESULT:      -7.4     16.247     18.585
REMARK  7 active torsions:
REMARK  status: ('A' for Active; 'I' for Inactive)
REMARK    1  A    between atoms: C_2  and  O_3 
REMARK    2  A    between atoms: O_3  and  C_4 
REMARK    3  A    between atoms: C_7  and  N_8 
REMARK       I    between atoms: N_8  and  C_9 
REMARK    4  A    between atoms: C_9  and  C_10 
REMARK    5  A    between atoms: C_10  and  S_11 
REMARK    6  A    between atoms: S_11  and  C_12 
REMARK    7  A    between atoms: N_13  and  C_14 
ROOT
HETATM    1  C   UNL     1      47.706 -32.035   1.248  1.00  0.00     0.177 A 
HETATM    2  N   UNL     1      47.576 -31.429   2.517  1.00  0.00    -0.276 N 
HETATM    3  C   UNL     1      46.322 -30.788   2.830  1.00  0.00     0.124 A 
HETATM    4  N   UNL     1      46.065 -30.229   3.998  1.00  0.00    -0.384 N 
HETATM    5  H   UNL     1      45.166 -29.813   4.188  1.00  0.00     0.157 HD
HETATM    6  H   UNL     1      46.761 -30.236   4.731  1.00  0.00     0.157 HD
HETATM    7  C   UNL     1      45.323 -30.822   1.810  1.00  0.00     0.081 A 
HETATM    8  C   UNL     1      45.596 -31.512   0.634  1.00  0.00     0.187 A 
HETATM    9  N   UNL     1      44.588 -31.470  -0.226  1.00  0.00    -0.153 NA
HETATM   10  N   UNL     1      43.659 -30.738   0.416  1.00  0.00    -0.280 N 
HETATM   11  H   UNL     1      42.780 -30.563  -0.061  1.00  0.00     0.189 HD
HETATM   12  C   UNL     1      44.058 -30.302   1.664  1.00  0.00     0.042 A 
HETATM   13  C   UNL     1      43.184 -29.456   2.504  1.00  0.00     0.071 C 
HETATM   14  N   UNL     1      46.794 -32.139   0.326  1.00  0.00    -0.202 NA
ENDROOT
BRANCH   1  15
HETATM   15  S   UNL     1      49.283 -32.727   0.786  1.00  0.00    -0.082 SA
BRANCH  15  16
HETATM   16  C   UNL     1      49.770 -31.575  -0.537  1.00  0.00     0.185 C 
BRANCH  16  17
HETATM   17  C   UNL     1      50.116 -30.230   0.057  1.00  0.00     0.231 C 
HETATM   18  N   UNL     1      49.267 -29.165   0.033  1.00  0.00    -0.327 N 
HETATM   19  H   UNL     1      49.613 -28.431   0.642  1.00  0.00     0.169 HD
HETATM   20  O   UNL     1      51.187 -30.082   0.661  1.00  0.00    -0.272 OA
BRANCH  18  21
HETATM   21  C   UNL     1      48.084 -28.867  -0.663  1.00  0.00     0.034 A 
HETATM   22  C   UNL     1      46.963 -28.249  -0.120  1.00  0.00     0.032 A 
HETATM   23  C   UNL     1      45.815 -28.050  -0.899  1.00  0.00     0.039 A 
HETATM   24  C   UNL     1      45.764 -28.469  -2.229  1.00  0.00     0.068 A 
HETATM   25  C   UNL     1      46.881 -29.090  -2.779  1.00  0.00     0.039 A 
HETATM   26  C   UNL     1      48.025 -29.294  -1.998  1.00  0.00     0.032 A 
BRANCH  24  27
HETATM   27  O   UNL     1      44.579 -28.227  -2.862  1.00  0.00    -0.352 OA
BRANCH  27  28
HETATM   28  C   UNL     1      43.724 -29.347  -3.093  1.00  0.00     0.171 C 
HETATM   29  C   UNL     1      43.972 -29.841  -4.507  1.00  0.00     0.034 C 
ENDBRANCH  27  28
ENDBRANCH  24  27
ENDBRANCH  18  21
ENDBRANCH  16  17
ENDBRANCH  15  16
ENDBRANCH   1  15
BRANCH   2  30
HETATM   30  C   UNL     1      48.611 -31.502   3.495  1.00  0.00     0.043 A 
HETATM   31  C   UNL     1      48.762 -32.658   4.278  1.00  0.00     0.031 A 
HETATM   32  C   UNL     1      49.811 -32.760   5.195  1.00  0.00     0.021 A 
HETATM   33  C   UNL     1      50.715 -31.708   5.331  1.00  0.00     0.011 A 
HETATM   34 BR   UNL     1      52.136 -31.847   6.569  1.00  0.00    -0.051 Br
HETATM   35  C   UNL     1      50.581 -30.555   4.560  1.00  0.00     0.021 A 
HETATM   36  C   UNL     1      49.534 -30.455   3.640  1.00  0.00     0.031 A 
ENDBRANCH   2  30
TORSDOF 7
ENDMDL
MODEL 10
REMARK VINA RESULT:      -7.4      4.054      6.827
REMARK  7 active torsions:
REMARK  status: ('A' for Active; 'I' for Inactive)
REMARK    1  A    between atoms: C_2  and  O_3 
REMARK    2  A    between atoms: O_3  and  C_4 
REMARK    3  A    between atoms: C_7  and  N_8 
REMARK       I    between atoms: N_8  and  C_9 
REMARK    4  A    between atoms: C_9  and  C_10 
REMARK    5  A    between atoms: C_10  and  S_11 
REMARK    6  A    between atoms: S_11  and  C_12 
REMARK    7  A    between atoms: N_13  and  C_14 
ROOT
HETATM    1  C   UNL     1      42.803 -10.768   4.279  1.00  0.00     0.177 A 
HETATM    2  N   UNL     1      41.935 -10.052   5.135  1.00  0.00    -0.276 N 
HETATM    3  C   UNL     1      42.325  -9.907   6.517  1.00  0.00     0.124 A 
HETATM    4  N   UNL     1      41.621  -9.223   7.400  1.00  0.00    -0.384 N 
HETATM    5  H   UNL     1      41.940  -9.122   8.352  1.00  0.00     0.157 HD
HETATM    6  H   UNL     1      40.763  -8.764   7.124  1.00  0.00     0.157 HD
HETATM    7  C   UNL     1      43.561 -10.514   6.893  1.00  0.00     0.081 A 
HETATM    8  C   UNL     1      44.324 -11.136   5.909  1.00  0.00     0.187 A 
HETATM    9  N   UNL     1      45.445 -11.654   6.387  1.00  0.00    -0.153 NA
HETATM   10  N   UNL     1      45.393 -11.358   7.699  1.00  0.00    -0.280 N 
HETATM   11  H   UNL     1      46.163 -11.666   8.286  1.00  0.00     0.189 HD
HETATM   12  C   UNL     1      44.255 -10.671   8.070  1.00  0.00     0.042 A 
HETATM   13  C   UNL     1      44.005 -10.288   9.476  1.00  0.00     0.071 C 
HETATM   14  N   UNL     1      43.964 -11.274   4.577  1.00  0.00    -0.202 NA
ENDROOT
BRANCH   1  15
HETATM   15  S   UNL     1      42.291 -11.069   2.598  1.00  0.00    -0.082 SA
BRANCH  15  16
HETATM   16  C   UNL     1      42.398 -12.885   2.546  1.00  0.00     0.185 C 
BRANCH  16  17
HETATM   17  C   UNL     1      41.068 -13.488   2.933  1.00  0.00     0.231 C 
HETATM   18  N   UNL     1      40.943 -14.740   3.456  1.00  0.00    -0.327 N 
HETATM   19  H   UNL     1      40.003 -14.874   3.815  1.00  0.00     0.169 HD
HETATM   20  O   UNL     1      40.036 -12.809   2.845  1.00  0.00    -0.272 OA
BRANCH  18  21
HETATM   21  C   UNL     1      41.794 -15.853   3.558  1.00  0.00     0.034 A 
HETATM   22  C   UNL     1      42.413 -16.289   4.725  1.00  0.00     0.032 A 
HETATM   23  C   UNL     1      43.288 -17.383   4.696  1.00  0.00     0.039 A 
HETATM   24  C   UNL     1      43.566 -18.055   3.506  1.00  0.00     0.068 A 
HETATM   25  C   UNL     1      42.952 -17.623   2.335  1.00  0.00     0.039 A 
HETATM   26  C   UNL     1      42.083 -16.525   2.362  1.00  0.00     0.032 A 
BRANCH  24  27
HETATM   27  O   UNL     1      44.448 -19.090   3.622  1.00  0.00    -0.352 OA
BRANCH  27  28
HETATM   28  C   UNL     1      43.900 -20.392   3.826  1.00  0.00     0.171 C 
HETATM   29  C   UNL     1      44.162 -20.791   5.268  1.00  0.00     0.034 C 
ENDBRANCH  27  28
ENDBRANCH  24  27
ENDBRANCH  18  21
ENDBRANCH  16  17
ENDBRANCH  15  16
ENDBRANCH   1  15
BRANCH   2  30
HETATM   30  C   UNL     1      40.749  -9.427   4.651  1.00  0.00     0.043 A 
HETATM   31  C   UNL     1      39.503 -10.052   4.816  1.00  0.00     0.031 A 
HETATM   32  C   UNL     1      38.332  -9.418   4.397  1.00  0.00     0.021 A 
HETATM   33  C   UNL     1      38.400  -8.154   3.814  1.00  0.00     0.011 A 
HETATM   34 BR   UNL     1      36.815  -7.293   3.251  1.00  0.00    -0.051 Br
HETATM   35  C   UNL     1      39.629  -7.518   3.645  1.00  0.00     0.021 A 
HETATM   36  C   UNL     1      40.800  -8.152   4.067  1.00  0.00     0.031 A 
ENDBRANCH   2  30
TORSDOF 7
ENDMDL
