MODEL 1
REMARK VINA RESULT:     -10.3      0.000      0.000
REMARK  6 active torsions:
REMARK  status: ('A' for Active; 'I' for Inactive)
REMARK    1  A    between atoms: C_2  and  N_3 
REMARK    2  A    between atoms: N_6  and  C_8 
REMARK    3  A    between atoms: C_8  and  C_9 
REMARK       I    between atoms: C_9  and  N_10 
REMARK       I    between atoms: N_10  and  C_11 
REMARK       I    between atoms: C_11  and  N_12 
REMARK    4  A    between atoms: N_12  and  C_13 
REMARK    5  A    between atoms: C_13  and  C_14 
REMARK    6  A    between atoms: C_14  and  C_15 
ROOT
HETATM    1  C   UNL     1      45.099 -10.929   7.517  1.00  0.00     0.251 C 
HETATM    2  N   UNL     1      44.934 -12.065   6.772  1.00  0.00    -0.278 N 
HETATM    3  C   UNL     1      43.725 -12.623   6.440  1.00  0.00     0.322 C 
HETATM    4  N   UNL     1      43.851 -13.878   5.909  1.00  0.00    -0.343 N 
HETATM    5  O   UNL     1      42.660 -12.032   6.566  1.00  0.00    -0.247 OA
HETATM    6  O   UNL     1      46.183 -10.678   8.053  1.00  0.00    -0.271 OA
HETATM    7  H   UNL     1      45.752 -12.653   6.705  1.00  0.00     0.173 HD
HETATM    8  H   UNL     1      44.680 -14.406   6.151  1.00  0.00     0.164 HD
ENDROOT
BRANCH   1   9
HETATM    9  C   UNL     1      43.912  -9.975   7.721  1.00  0.00     0.337 C 
BRANCH   9  10
HETATM   10  N   UNL     1      43.258 -10.218   9.085  1.00  0.00    -0.060 N 
HETATM   11  C   UNL     1      44.279 -10.280  10.223  1.00  0.00     0.255 C 
HETATM   12  C   UNL     1      43.569 -10.635  11.543  1.00  0.00     0.150 C 
HETATM   13  N   UNL     1      42.479  -9.683  11.799  1.00  0.00    -0.378 N 
HETATM   14  C   UNL     1      41.468  -9.550  10.740  1.00  0.00     0.150 C 
HETATM   15  C   UNL     1      42.149  -9.223   9.391  1.00  0.00     0.255 C 
HETATM   16  H   UNL     1      42.844 -11.162   9.025  1.00  0.00     0.280 HD
BRANCH  13  17
HETATM   17  C   UNL     1      42.436  -8.904  12.940  1.00  0.00     0.030 A 
HETATM   18  C   UNL     1      43.306  -7.814  13.127  1.00  0.00     0.032 A 
HETATM   19  C   UNL     1      43.254  -7.019  14.278  1.00  0.00     0.044 A 
HETATM   20  C   UNL     1      42.329  -7.308  15.268  1.00  0.00     0.116 A 
HETATM   21  C   UNL     1      41.460  -8.376  15.127  1.00  0.00     0.044 A 
HETATM   22  F   UNL     1      42.277  -6.549  16.370  1.00  0.00    -0.206 F 
HETATM   23  C   UNL     1      41.516  -9.164  13.971  1.00  0.00     0.032 A 
ENDBRANCH  13  17
ENDBRANCH   9  10
ENDBRANCH   1   9
BRANCH   4  24
HETATM   24  C   UNL     1      42.661 -14.685   5.666  1.00  0.00     0.129 C 
BRANCH  24  25
HETATM   25  C   UNL     1      42.860 -15.777   4.611  1.00  0.00     0.060 C 
BRANCH  25  26
HETATM   26  C   UNL     1      43.191 -17.142   5.150  1.00  0.00    -0.029 A 
HETATM   27  C   UNL     1      43.465 -18.357   4.433  1.00  0.00     0.001 A 
HETATM   28  C   UNL     1      43.681 -19.362   5.382  1.00  0.00     0.043 A 
HETATM   29  C   UNL     1      43.534 -18.711   3.070  1.00  0.00     0.056 A 
HETATM   30  C   UNL     1      43.945 -20.695   5.039  1.00  0.00     0.033 A 
HETATM   31  N   UNL     1      43.600 -18.775   6.622  1.00  0.00    -0.365 N 
HETATM   32  C   UNL     1      43.984 -21.020   3.682  1.00  0.00     0.044 A 
HETATM   33  C   UNL     1      43.784 -20.039   2.722  1.00  0.00     0.117 A 
HETATM   34  F   UNL     1      43.818 -20.374   1.425  1.00  0.00    -0.206 F 
HETATM   35  H   UNL     1      43.751 -19.259   7.498  1.00  0.00     0.165 HD
HETATM   36  C   UNL     1      43.289 -17.450   6.495  1.00  0.00     0.096 A 
ENDBRANCH  25  26
ENDBRANCH  24  25
ENDBRANCH   4  24
TORSDOF 6
ENDMDL
MODEL 2
REMARK VINA RESULT:     -10.2      1.453      2.135
REMARK  6 active torsions:
REMARK  status: ('A' for Active; 'I' for Inactive)
REMARK    1  A    between atoms: C_2  and  N_3 
REMARK    2  A    between atoms: N_6  and  C_8 
REMARK    3  A    between atoms: C_8  and  C_9 
REMARK       I    between atoms: C_9  and  N_10 
REMARK       I    between atoms: N_10  and  C_11 
REMARK       I    between atoms: C_11  and  N_12 
REMARK    4  A    between atoms: N_12  and  C_13 
REMARK    5  A    between atoms: C_13  and  C_14 
REMARK    6  A    between atoms: C_14  and  C_15 
ROOT
HETATM    1  C   UNL     1      42.368 -10.222   6.829  1.00  0.00     0.251 C 
HETATM    2  N   UNL     1      42.282 -11.562   6.569  1.00  0.00    -0.278 N 
HETATM    3  C   UNL     1      43.233 -12.495   6.903  1.00  0.00     0.322 C 
HETATM    4  N   UNL     1      43.014 -13.708   6.310  1.00  0.00    -0.343 N 
HETATM    5  O   UNL     1      44.146 -12.264   7.686  1.00  0.00    -0.247 OA
HETATM    6  O   UNL     1      41.660  -9.415   6.218  1.00  0.00    -0.271 OA
HETATM    7  H   UNL     1      41.611 -11.817   5.859  1.00  0.00     0.173 HD
HETATM    8  H   UNL     1      42.477 -13.718   5.453  1.00  0.00     0.164 HD
ENDROOT
BRANCH   1   9
HETATM    9  C   UNL     1      43.382  -9.712   7.865  1.00  0.00     0.337 C 
BRANCH   9  10
HETATM   10  N   UNL     1      42.893 -10.012   9.285  1.00  0.00    -0.060 N 
HETATM   11  C   UNL     1      44.021  -9.958  10.318  1.00  0.00     0.255 C 
HETATM   12  C   UNL     1      43.484 -10.377  11.699  1.00  0.00     0.150 C 
HETATM   13  N   UNL     1      42.331  -9.541  12.063  1.00  0.00    -0.378 N 
HETATM   14  C   UNL     1      41.213  -9.523  11.110  1.00  0.00     0.150 C 
HETATM   15  C   UNL     1      41.721  -9.136   9.701  1.00  0.00     0.255 C 
HETATM   16  H   UNL     1      42.576 -10.994   9.263  1.00  0.00     0.280 HD
BRANCH  13  17
HETATM   17  C   UNL     1      42.318  -8.763  13.206  1.00  0.00     0.030 A 
HETATM   18  C   UNL     1      41.396  -8.984  14.244  1.00  0.00     0.032 A 
HETATM   19  C   UNL     1      41.391  -8.203  15.405  1.00  0.00     0.044 A 
HETATM   20  C   UNL     1      42.312  -7.177  15.543  1.00  0.00     0.116 A 
HETATM   21  C   UNL     1      43.232  -6.920  14.541  1.00  0.00     0.044 A 
HETATM   22  F   UNL     1      42.311  -6.428  16.652  1.00  0.00    -0.206 F 
HETATM   23  C   UNL     1      43.232  -7.709  13.385  1.00  0.00     0.032 A 
ENDBRANCH  13  17
ENDBRANCH   9  10
ENDBRANCH   1   9
BRANCH   4  24
HETATM   24  C   UNL     1      44.022 -14.757   6.413  1.00  0.00     0.129 C 
BRANCH  24  25
HETATM   25  C   UNL     1      43.443 -16.174   6.376  1.00  0.00     0.060 C 
BRANCH  25  26
HETATM   26  C   UNL     1      43.439 -16.834   5.024  1.00  0.00    -0.029 A 
HETATM   27  C   UNL     1      43.612 -18.221   4.692  1.00  0.00     0.001 A 
HETATM   28  C   UNL     1      43.563 -18.327   3.299  1.00  0.00     0.043 A 
HETATM   29  C   UNL     1      43.823 -19.400   5.436  1.00  0.00     0.056 A 
HETATM   30  C   UNL     1      43.728 -19.540   2.615  1.00  0.00     0.033 A 
HETATM   31  N   UNL     1      43.314 -17.069   2.804  1.00  0.00    -0.365 N 
HETATM   32  C   UNL     1      43.959 -20.686   3.377  1.00  0.00     0.044 A 
HETATM   33  C   UNL     1      44.001 -20.609   4.761  1.00  0.00     0.117 A 
HETATM   34  F   UNL     1      44.232 -21.721   5.473  1.00  0.00    -0.206 F 
HETATM   35  H   UNL     1      43.191 -16.851   1.823  1.00  0.00     0.165 HD
HETATM   36  C   UNL     1      43.256 -16.165   3.827  1.00  0.00     0.096 A 
ENDBRANCH  25  26
ENDBRANCH  24  25
ENDBRANCH   4  24
TORSDOF 6
ENDMDL
MODEL 3
REMARK VINA RESULT:     -10.1      1.667      2.225
REMARK  6 active torsions:
REMARK  status: ('A' for Active; 'I' for Inactive)
REMARK    1  A    between atoms: C_2  and  N_3 
REMARK    2  A    between atoms: N_6  and  C_8 
REMARK    3  A    between atoms: C_8  and  C_9 
REMARK       I    between atoms: C_9  and  N_10 
REMARK       I    between atoms: N_10  and  C_11 
REMARK       I    between atoms: C_11  and  N_12 
REMARK    4  A    between atoms: N_12  and  C_13 
REMARK    5  A    between atoms: C_13  and  C_14 
REMARK    6  A    between atoms: C_14  and  C_15 
ROOT
HETATM    1  C   UNL     1      39.971 -10.232   6.923  1.00  0.00     0.251 C 
HETATM    2  N   UNL     1      40.324 -11.451   6.412  1.00  0.00    -0.278 N 
HETATM    3  C   UNL     1      41.608 -11.855   6.145  1.00  0.00     0.322 C 
HETATM    4  N   UNL     1      41.657 -13.011   5.414  1.00  0.00    -0.343 N 
HETATM    5  O   UNL     1      42.594 -11.261   6.562  1.00  0.00    -0.247 OA
HETATM    6  O   UNL     1      38.812  -9.817   6.822  1.00  0.00    -0.271 OA
HETATM    7  H   UNL     1      39.574 -11.958   5.965  1.00  0.00     0.173 HD
HETATM    8  H   UNL     1      40.853 -13.234   4.840  1.00  0.00     0.164 HD
ENDROOT
BRANCH   1   9
HETATM    9  C   UNL     1      41.038  -9.353   7.595  1.00  0.00     0.337 C 
BRANCH   9  10
HETATM   10  N   UNL     1      41.257  -9.792   9.046  1.00  0.00    -0.060 N 
HETATM   11  C   UNL     1      42.643  -9.412   9.572  1.00  0.00     0.255 C 
HETATM   12  C   UNL     1      42.837  -9.978  10.990  1.00  0.00     0.150 C 
HETATM   13  N   UNL     1      41.746  -9.525  11.865  1.00  0.00    -0.378 N 
HETATM   14  C   UNL     1      40.381  -9.834  11.417  1.00  0.00     0.150 C 
HETATM   15  C   UNL     1      40.160  -9.306   9.980  1.00  0.00     0.255 C 
HETATM   16  H   UNL     1      41.236 -10.824   9.025  1.00  0.00     0.280 HD
BRANCH  13  17
HETATM   17  C   UNL     1      41.981  -8.791  13.013  1.00  0.00     0.030 A 
HETATM   18  C   UNL     1      43.003  -7.828  13.082  1.00  0.00     0.032 A 
HETATM   19  C   UNL     1      43.233  -7.078  14.241  1.00  0.00     0.044 A 
HETATM   20  C   UNL     1      42.440  -7.286  15.358  1.00  0.00     0.116 A 
HETATM   21  C   UNL     1      41.427  -8.230  15.335  1.00  0.00     0.044 A 
HETATM   22  F   UNL     1      42.656  -6.570  16.468  1.00  0.00    -0.206 F 
HETATM   23  C   UNL     1      41.202  -8.973  14.170  1.00  0.00     0.032 A 
ENDBRANCH  13  17
ENDBRANCH   9  10
ENDBRANCH   1   9
BRANCH   4  24
HETATM   24  C   UNL     1      42.933 -13.484   4.890  1.00  0.00     0.129 C 
BRANCH  24  25
HETATM   25  C   UNL     1      42.819 -14.753   4.041  1.00  0.00     0.060 C 
BRANCH  25  26
HETATM   26  C   UNL     1      43.282 -16.019   4.709  1.00  0.00    -0.029 A 
HETATM   27  C   UNL     1      43.474 -17.325   4.141  1.00  0.00     0.001 A 
HETATM   28  C   UNL     1      43.879 -18.175   5.176  1.00  0.00     0.043 A 
HETATM   29  C   UNL     1      43.329 -17.878   2.852  1.00  0.00     0.056 A 
HETATM   30  C   UNL     1      44.129 -19.542   4.991  1.00  0.00     0.033 A 
HETATM   31  N   UNL     1      43.984 -17.411   6.313  1.00  0.00    -0.365 N 
HETATM   32  C   UNL     1      43.954 -20.065   3.708  1.00  0.00     0.044 A 
HETATM   33  C   UNL     1      43.564 -19.240   2.664  1.00  0.00     0.117 A 
HETATM   34  F   UNL     1      43.395 -19.765   1.442  1.00  0.00    -0.206 F 
HETATM   35  H   UNL     1      44.294 -17.757   7.212  1.00  0.00     0.165 HD
HETATM   36  C   UNL     1      43.611 -16.122   6.049  1.00  0.00     0.096 A 
ENDBRANCH  25  26
ENDBRANCH  24  25
ENDBRANCH   4  24
TORSDOF 6
ENDMDL
MODEL 4
REMARK VINA RESULT:      -9.8      1.639      2.209
REMARK  6 active torsions:
REMARK  status: ('A' for Active; 'I' for Inactive)
REMARK    1  A    between atoms: C_2  and  N_3 
REMARK    2  A    between atoms: N_6  and  C_8 
REMARK    3  A    between atoms: C_8  and  C_9 
REMARK       I    between atoms: C_9  and  N_10 
REMARK       I    between atoms: N_10  and  C_11 
REMARK       I    between atoms: C_11  and  N_12 
REMARK    4  A    between atoms: N_12  and  C_13 
REMARK    5  A    between atoms: C_13  and  C_14 
REMARK    6  A    between atoms: C_14  and  C_15 
ROOT
HETATM    1  C   UNL     1      44.602 -11.033   7.310  1.00  0.00     0.251 C 
HETATM    2  N   UNL     1      43.973 -11.953   6.516  1.00  0.00    -0.278 N 
HETATM    3  C   UNL     1      42.614 -12.066   6.361  1.00  0.00     0.322 C 
HETATM    4  N   UNL     1      42.249 -13.215   5.714  1.00  0.00    -0.343 N 
HETATM    5  O   UNL     1      41.827 -11.201   6.727  1.00  0.00    -0.247 OA
HETATM    6  O   UNL     1      45.775 -11.200   7.660  1.00  0.00    -0.271 OA
HETATM    7  H   UNL     1      44.539 -12.747   6.253  1.00  0.00     0.173 HD
HETATM    8  H   UNL     1      42.890 -13.998   5.758  1.00  0.00     0.164 HD
ENDROOT
BRANCH   1   9
HETATM    9  C   UNL     1      43.829  -9.800   7.804  1.00  0.00     0.337 C 
BRANCH   9  10
HETATM   10  N   UNL     1      43.202 -10.075   9.174  1.00  0.00    -0.060 N 
HETATM   11  C   UNL     1      44.241 -10.123  10.297  1.00  0.00     0.255 C 
HETATM   12  C   UNL     1      43.560 -10.511  11.623  1.00  0.00     0.150 C 
HETATM   13  N   UNL     1      42.450  -9.590  11.905  1.00  0.00    -0.378 N 
HETATM   14  C   UNL     1      41.419  -9.472  10.863  1.00  0.00     0.150 C 
HETATM   15  C   UNL     1      42.072  -9.113   9.507  1.00  0.00     0.255 C 
HETATM   16  H   UNL     1      42.811 -11.028   9.110  1.00  0.00     0.280 HD
BRANCH  13  17
HETATM   17  C   UNL     1      42.404  -8.824  13.055  1.00  0.00     0.030 A 
HETATM   18  C   UNL     1      43.268  -7.733  13.255  1.00  0.00     0.032 A 
HETATM   19  C   UNL     1      43.213  -6.952  14.415  1.00  0.00     0.044 A 
HETATM   20  C   UNL     1      42.290  -7.257  15.402  1.00  0.00     0.116 A 
HETATM   21  C   UNL     1      41.426  -8.327  15.248  1.00  0.00     0.044 A 
HETATM   22  F   UNL     1      42.234  -6.511  16.512  1.00  0.00    -0.206 F 
HETATM   23  C   UNL     1      41.485  -9.101  14.083  1.00  0.00     0.032 A 
ENDBRANCH  13  17
ENDBRANCH   9  10
ENDBRANCH   1   9
BRANCH   4  24
HETATM   24  C   UNL     1      40.841 -13.581   5.624  1.00  0.00     0.129 C 
BRANCH  24  25
HETATM   25  C   UNL     1      40.599 -15.091   5.552  1.00  0.00     0.060 C 
BRANCH  25  26
HETATM   26  C   UNL     1      41.014 -15.750   4.264  1.00  0.00    -0.029 A 
HETATM   27  C   UNL     1      42.046 -16.723   4.036  1.00  0.00     0.001 A 
HETATM   28  C   UNL     1      42.066 -16.997   2.665  1.00  0.00     0.043 A 
HETATM   29  C   UNL     1      42.981 -17.388   4.855  1.00  0.00     0.056 A 
HETATM   30  C   UNL     1      42.976 -17.885   2.074  1.00  0.00     0.033 A 
HETATM   31  N   UNL     1      41.054 -16.268   2.089  1.00  0.00    -0.365 N 
HETATM   32  C   UNL     1      43.905 -18.511   2.907  1.00  0.00     0.044 A 
HETATM   33  C   UNL     1      43.898 -18.263   4.271  1.00  0.00     0.117 A 
HETATM   34  F   UNL     1      44.803 -18.870   5.052  1.00  0.00    -0.206 F 
HETATM   35  H   UNL     1      40.810 -16.297   1.107  1.00  0.00     0.165 HD
HETATM   36  C   UNL     1      40.429 -15.503   3.035  1.00  0.00     0.096 A 
ENDBRANCH  25  26
ENDBRANCH  24  25
ENDBRANCH   4  24
TORSDOF 6
ENDMDL
MODEL 5
REMARK VINA RESULT:      -9.6      1.914     11.274
REMARK  6 active torsions:
REMARK  status: ('A' for Active; 'I' for Inactive)
REMARK    1  A    between atoms: C_2  and  N_3 
REMARK    2  A    between atoms: N_6  and  C_8 
REMARK    3  A    between atoms: C_8  and  C_9 
REMARK       I    between atoms: C_9  and  N_10 
REMARK       I    between atoms: N_10  and  C_11 
REMARK       I    between atoms: C_11  and  N_12 
REMARK    4  A    between atoms: N_12  and  C_13 
REMARK    5  A    between atoms: C_13  and  C_14 
REMARK    6  A    between atoms: C_14  and  C_15 
ROOT
HETATM    1  C   UNL     1      40.141 -10.785   7.128  1.00  0.00     0.251 C 
HETATM    2  N   UNL     1      40.747  -9.767   7.813  1.00  0.00    -0.278 N 
HETATM    3  C   UNL     1      42.072  -9.423   7.709  1.00  0.00     0.322 C 
HETATM    4  N   UNL     1      42.467  -8.542   8.678  1.00  0.00    -0.343 N 
HETATM    5  O   UNL     1      42.797  -9.831   6.810  1.00  0.00    -0.247 OA
HETATM    6  O   UNL     1      39.061 -11.247   7.510  1.00  0.00    -0.271 OA
HETATM    7  H   UNL     1      40.245  -9.443   8.627  1.00  0.00     0.173 HD
HETATM    8  H   UNL     1      41.936  -8.529   9.540  1.00  0.00     0.164 HD
ENDROOT
BRANCH   1   9
HETATM    9  C   UNL     1      40.829 -11.384   5.892  1.00  0.00     0.337 C 
BRANCH   9  10
HETATM   10  N   UNL     1      41.370 -12.783   6.206  1.00  0.00    -0.060 N 
HETATM   11  C   UNL     1      40.489 -13.895   5.633  1.00  0.00     0.255 C 
HETATM   12  C   UNL     1      41.026 -15.268   6.078  1.00  0.00     0.150 C 
HETATM   13  N   UNL     1      42.439 -15.401   5.698  1.00  0.00    -0.378 N 
HETATM   14  C   UNL     1      43.348 -14.357   6.193  1.00  0.00     0.150 C 
HETATM   15  C   UNL     1      42.822 -12.959   5.790  1.00  0.00     0.255 C 
HETATM   16  H   UNL     1      41.309 -12.875   7.232  1.00  0.00     0.280 HD
BRANCH  13  17
HETATM   17  C   UNL     1      42.886 -16.413   4.868  1.00  0.00     0.030 A 
HETATM   18  C   UNL     1      42.362 -16.597   3.576  1.00  0.00     0.032 A 
HETATM   19  C   UNL     1      42.823 -17.614   2.732  1.00  0.00     0.044 A 
HETATM   20  C   UNL     1      43.817 -18.471   3.174  1.00  0.00     0.116 A 
HETATM   21  C   UNL     1      44.355 -18.329   4.442  1.00  0.00     0.044 A 
HETATM   22  F   UNL     1      44.261 -19.445   2.369  1.00  0.00    -0.206 F 
HETATM   23  C   UNL     1      43.891 -17.306   5.278  1.00  0.00     0.032 A 
ENDBRANCH  13  17
ENDBRANCH   9  10
ENDBRANCH   1   9
BRANCH   4  24
HETATM   24  C   UNL     1      43.879  -8.210   8.824  1.00  0.00     0.129 C 
BRANCH  24  25
HETATM   25  C   UNL     1      44.623  -9.101   9.822  1.00  0.00     0.060 C 
BRANCH  25  26
HETATM   26  C   UNL     1      43.824  -9.533  11.022  1.00  0.00    -0.029 A 
HETATM   27  C   UNL     1      43.231  -8.726  12.053  1.00  0.00     0.001 A 
HETATM   28  C   UNL     1      42.623  -9.595  12.965  1.00  0.00     0.043 A 
HETATM   29  C   UNL     1      43.163  -7.342  12.314  1.00  0.00     0.056 A 
HETATM   30  C   UNL     1      41.969  -9.154  14.124  1.00  0.00     0.033 A 
HETATM   31  N   UNL     1      42.788 -10.871  12.483  1.00  0.00    -0.365 N 
HETATM   32  C   UNL     1      41.938  -7.780  14.368  1.00  0.00     0.044 A 
HETATM   33  C   UNL     1      42.524  -6.898  13.473  1.00  0.00     0.117 A 
HETATM   34  F   UNL     1      42.489  -5.583  13.731  1.00  0.00    -0.206 F 
HETATM   35  H   UNL     1      42.416 -11.704  12.922  1.00  0.00     0.165 HD
HETATM   36  C   UNL     1      43.521 -10.847  11.330  1.00  0.00     0.096 A 
ENDBRANCH  25  26
ENDBRANCH  24  25
ENDBRANCH   4  24
TORSDOF 6
ENDMDL
MODEL 6
REMARK VINA RESULT:      -9.5      3.173     11.011
REMARK  6 active torsions:
REMARK  status: ('A' for Active; 'I' for Inactive)
REMARK    1  A    between atoms: C_2  and  N_3 
REMARK    2  A    between atoms: N_6  and  C_8 
REMARK    3  A    between atoms: C_8  and  C_9 
REMARK       I    between atoms: C_9  and  N_10 
REMARK       I    between atoms: N_10  and  C_11 
REMARK       I    between atoms: C_11  and  N_12 
REMARK    4  A    between atoms: N_12  and  C_13 
REMARK    5  A    between atoms: C_13  and  C_14 
REMARK    6  A    between atoms: C_14  and  C_15 
ROOT
HETATM    1  C   UNL     1      42.539 -10.838   3.147  1.00  0.00     0.251 C 
HETATM    2  N   UNL     1      41.916  -9.871   3.889  1.00  0.00    -0.278 N 
HETATM    3  C   UNL     1      41.559  -9.994   5.208  1.00  0.00     0.322 C 
HETATM    4  N   UNL     1      40.736  -8.986   5.629  1.00  0.00    -0.343 N 
HETATM    5  O   UNL     1      41.979 -10.888   5.932  1.00  0.00    -0.247 OA
HETATM    6  O   UNL     1      42.525 -10.794   1.913  1.00  0.00    -0.271 OA
HETATM    7  H   UNL     1      41.463  -9.147   3.350  1.00  0.00     0.173 HD
HETATM    8  H   UNL     1      40.182  -8.512   4.927  1.00  0.00     0.164 HD
ENDROOT
BRANCH   1   9
HETATM    9  C   UNL     1      43.232 -12.011   3.858  1.00  0.00     0.337 C 
BRANCH   9  10
HETATM   10  N   UNL     1      42.621 -13.343   3.411  1.00  0.00    -0.060 N 
HETATM   11  C   UNL     1      43.462 -14.046   2.343  1.00  0.00     0.255 C 
HETATM   12  C   UNL     1      42.738 -15.317   1.862  1.00  0.00     0.150 C 
HETATM   13  N   UNL     1      42.426 -16.181   3.008  1.00  0.00    -0.378 N 
HETATM   14  C   UNL     1      41.637 -15.571   4.089  1.00  0.00     0.150 C 
HETATM   15  C   UNL     1      42.320 -14.272   4.577  1.00  0.00     0.255 C 
HETATM   16  H   UNL     1      41.731 -13.095   2.952  1.00  0.00     0.280 HD
BRANCH  13  17
HETATM   17  C   UNL     1      42.898 -17.477   3.103  1.00  0.00     0.030 A 
HETATM   18  C   UNL     1      42.628 -18.439   2.113  1.00  0.00     0.032 A 
HETATM   19  C   UNL     1      43.117 -19.748   2.204  1.00  0.00     0.044 A 
HETATM   20  C   UNL     1      43.882 -20.117   3.298  1.00  0.00     0.116 A 
HETATM   21  C   UNL     1      44.164 -19.203   4.299  1.00  0.00     0.044 A 
HETATM   22  F   UNL     1      44.351 -21.368   3.388  1.00  0.00    -0.206 F 
HETATM   23  C   UNL     1      43.675 -17.896   4.198  1.00  0.00     0.032 A 
ENDBRANCH  13  17
ENDBRANCH   9  10
ENDBRANCH   1   9
BRANCH   4  24
HETATM   24  C   UNL     1      40.119  -9.056   6.949  1.00  0.00     0.129 C 
BRANCH  24  25
HETATM   25  C   UNL     1      40.784  -8.151   7.990  1.00  0.00     0.060 C 
BRANCH  25  26
HETATM   26  C   UNL     1      41.524  -8.866   9.087  1.00  0.00    -0.029 A 
HETATM   27  C   UNL     1      42.938  -9.071   9.241  1.00  0.00     0.001 A 
HETATM   28  C   UNL     1      43.126  -9.824  10.405  1.00  0.00     0.043 A 
HETATM   29  C   UNL     1      44.080  -8.708   8.499  1.00  0.00     0.056 A 
HETATM   30  C   UNL     1      44.387 -10.242  10.852  1.00  0.00     0.033 A 
HETATM   31  N   UNL     1      41.888 -10.021  10.967  1.00  0.00    -0.365 N 
HETATM   32  C   UNL     1      45.498  -9.887  10.084  1.00  0.00     0.044 A 
HETATM   33  C   UNL     1      45.338  -9.132   8.932  1.00  0.00     0.117 A 
HETATM   34  F   UNL     1      46.417  -8.809   8.205  1.00  0.00    -0.206 F 
HETATM   35  H   UNL     1      41.723 -10.505  11.840  1.00  0.00     0.165 HD
HETATM   36  C   UNL     1      40.920  -9.467  10.177  1.00  0.00     0.096 A 
ENDBRANCH  25  26
ENDBRANCH  24  25
ENDBRANCH   4  24
TORSDOF 6
ENDMDL
MODEL 7
REMARK VINA RESULT:      -9.3      5.576      9.208
REMARK  6 active torsions:
REMARK  status: ('A' for Active; 'I' for Inactive)
REMARK    1  A    between atoms: C_2  and  N_3 
REMARK    2  A    between atoms: N_6  and  C_8 
REMARK    3  A    between atoms: C_8  and  C_9 
REMARK       I    between atoms: C_9  and  N_10 
REMARK       I    between atoms: N_10  and  C_11 
REMARK       I    between atoms: C_11  and  N_12 
REMARK    4  A    between atoms: N_12  and  C_13 
REMARK    5  A    between atoms: C_13  and  C_14 
REMARK    6  A    between atoms: C_14  and  C_15 
ROOT
HETATM    1  C   UNL     1      41.111 -10.232   6.022  1.00  0.00     0.251 C 
HETATM    2  N   UNL     1      41.854 -11.123   6.748  1.00  0.00    -0.278 N 
HETATM    3  C   UNL     1      42.771 -11.999   6.223  1.00  0.00     0.322 C 
HETATM    4  N   UNL     1      43.183 -12.938   7.129  1.00  0.00    -0.343 N 
HETATM    5  O   UNL     1      43.200 -11.910   5.080  1.00  0.00    -0.247 OA
HETATM    6  O   UNL     1      40.090  -9.726   6.499  1.00  0.00    -0.271 OA
HETATM    7  H   UNL     1      41.501 -11.317   7.674  1.00  0.00     0.173 HD
HETATM    8  H   UNL     1      42.558 -13.151   7.897  1.00  0.00     0.164 HD
ENDROOT
BRANCH   1   9
HETATM    9  C   UNL     1      41.531  -9.885   4.585  1.00  0.00     0.337 C 
BRANCH   9  10
HETATM   10  N   UNL     1      40.426 -10.273   3.597  1.00  0.00    -0.060 N 
HETATM   11  C   UNL     1      40.779  -9.915   2.151  1.00  0.00     0.255 C 
HETATM   12  C   UNL     1      39.586 -10.228   1.230  1.00  0.00     0.150 C 
HETATM   13  N   UNL     1      39.181 -11.632   1.392  1.00  0.00    -0.378 N 
HETATM   14  C   UNL     1      38.846 -12.059   2.758  1.00  0.00     0.150 C 
HETATM   15  C   UNL     1      40.012 -11.731   3.720  1.00  0.00     0.255 C 
HETATM   16  H   UNL     1      39.618  -9.681   3.845  1.00  0.00     0.280 HD
BRANCH  13  17
HETATM   17  C   UNL     1      39.176 -12.523   0.335  1.00  0.00     0.030 A 
HETATM   18  C   UNL     1      39.914 -13.719   0.371  1.00  0.00     0.032 A 
HETATM   19  C   UNL     1      39.899 -14.626  -0.695  1.00  0.00     0.044 A 
HETATM   20  C   UNL     1      39.145 -14.345  -1.822  1.00  0.00     0.116 A 
HETATM   21  C   UNL     1      38.410 -13.175  -1.901  1.00  0.00     0.044 A 
HETATM   22  F   UNL     1      39.128 -15.211  -2.843  1.00  0.00    -0.206 F 
HETATM   23  C   UNL     1      38.427 -12.275  -0.829  1.00  0.00     0.032 A 
ENDBRANCH  13  17
ENDBRANCH   9  10
ENDBRANCH   1   9
BRANCH   4  24
HETATM   24  C   UNL     1      44.016 -14.051   6.692  1.00  0.00     0.129 C 
BRANCH  24  25
HETATM   25  C   UNL     1      43.263 -15.380   6.582  1.00  0.00     0.060 C 
BRANCH  25  26
HETATM   26  C   UNL     1      43.100 -15.915   5.185  1.00  0.00    -0.029 A 
HETATM   27  C   UNL     1      43.413 -17.221   4.673  1.00  0.00     0.001 A 
HETATM   28  C   UNL     1      43.116 -17.215   3.306  1.00  0.00     0.043 A 
HETATM   29  C   UNL     1      43.937 -18.405   5.229  1.00  0.00     0.056 A 
HETATM   30  C   UNL     1      43.328 -18.321   2.471  1.00  0.00     0.033 A 
HETATM   31  N   UNL     1      42.591 -15.981   3.008  1.00  0.00    -0.365 N 
HETATM   32  C   UNL     1      43.870 -19.472   3.046  1.00  0.00     0.044 A 
HETATM   33  C   UNL     1      44.163 -19.505   4.400  1.00  0.00     0.117 A 
HETATM   34  F   UNL     1      44.690 -20.619   4.930  1.00  0.00    -0.206 F 
HETATM   35  H   UNL     1      42.251 -15.705   2.096  1.00  0.00     0.165 HD
HETATM   36  C   UNL     1      42.594 -15.188   4.122  1.00  0.00     0.096 A 
ENDBRANCH  25  26
ENDBRANCH  24  25
ENDBRANCH   4  24
TORSDOF 6
ENDMDL
MODEL 8
REMARK VINA RESULT:      -9.2      1.918     11.560
REMARK  6 active torsions:
REMARK  status: ('A' for Active; 'I' for Inactive)
REMARK    1  A    between atoms: C_2  and  N_3 
REMARK    2  A    between atoms: N_6  and  C_8 
REMARK    3  A    between atoms: C_8  and  C_9 
REMARK       I    between atoms: C_9  and  N_10 
REMARK       I    between atoms: N_10  and  C_11 
REMARK       I    between atoms: C_11  and  N_12 
REMARK    4  A    between atoms: N_12  and  C_13 
REMARK    5  A    between atoms: C_13  and  C_14 
REMARK    6  A    between atoms: C_14  and  C_15 
ROOT
HETATM    1  C   UNL     1      44.220 -11.154   7.343  1.00  0.00     0.251 C 
HETATM    2  N   UNL     1      43.312 -10.502   8.132  1.00  0.00    -0.278 N 
HETATM    3  C   UNL     1      42.341  -9.645   7.677  1.00  0.00     0.322 C 
HETATM    4  N   UNL     1      41.739  -8.944   8.686  1.00  0.00    -0.343 N 
HETATM    5  O   UNL     1      42.026  -9.562   6.496  1.00  0.00    -0.247 OA
HETATM    6  O   UNL     1      45.251 -11.628   7.829  1.00  0.00    -0.271 OA
HETATM    7  H   UNL     1      43.557 -10.450   9.110  1.00  0.00     0.173 HD
HETATM    8  H   UNL     1      42.264  -8.815   9.541  1.00  0.00     0.164 HD
ENDROOT
BRANCH   1   9
HETATM    9  C   UNL     1      43.971 -11.265   5.830  1.00  0.00     0.337 C 
BRANCH   9  10
HETATM   10  N   UNL     1      43.159 -12.525   5.512  1.00  0.00    -0.060 N 
HETATM   11  C   UNL     1      43.165 -12.866   4.020  1.00  0.00     0.255 C 
HETATM   12  C   UNL     1      42.244 -14.071   3.757  1.00  0.00     0.150 C 
HETATM   13  N   UNL     1      42.643 -15.202   4.607  1.00  0.00    -0.378 N 
HETATM   14  C   UNL     1      42.683 -14.947   6.054  1.00  0.00     0.150 C 
HETATM   15  C   UNL     1      43.576 -13.721   6.354  1.00  0.00     0.255 C 
HETATM   16  H   UNL     1      42.182 -12.285   5.744  1.00  0.00     0.280 HD
BRANCH  13  17
HETATM   17  C   UNL     1      43.024 -16.422   4.078  1.00  0.00     0.030 A 
HETATM   18  C   UNL     1      42.533 -16.879   2.842  1.00  0.00     0.032 A 
HETATM   19  C   UNL     1      42.928 -18.109   2.302  1.00  0.00     0.044 A 
HETATM   20  C   UNL     1      43.821 -18.907   2.999  1.00  0.00     0.116 A 
HETATM   21  C   UNL     1      44.322 -18.497   4.223  1.00  0.00     0.044 A 
HETATM   22  F   UNL     1      44.201 -20.083   2.485  1.00  0.00    -0.206 F 
HETATM   23  C   UNL     1      43.925 -17.264   4.753  1.00  0.00     0.032 A 
ENDBRANCH  13  17
ENDBRANCH   9  10
ENDBRANCH   1   9
BRANCH   4  24
HETATM   24  C   UNL     1      40.813  -7.864   8.367  1.00  0.00     0.129 C 
BRANCH  24  25
HETATM   25  C   UNL     1      40.481  -6.963   9.559  1.00  0.00     0.060 C 
BRANCH  25  26
HETATM   26  C   UNL     1      40.196  -7.681  10.851  1.00  0.00    -0.029 A 
HETATM   27  C   UNL     1      41.020  -7.799  12.022  1.00  0.00     0.001 A 
HETATM   28  C   UNL     1      40.328  -8.594  12.941  1.00  0.00     0.043 A 
HETATM   29  C   UNL     1      42.296  -7.324  12.390  1.00  0.00     0.056 A 
HETATM   30  C   UNL     1      40.849  -8.949  14.193  1.00  0.00     0.033 A 
HETATM   31  N   UNL     1      39.112  -8.901  12.379  1.00  0.00    -0.365 N 
HETATM   32  C   UNL     1      42.124  -8.483  14.520  1.00  0.00     0.044 A 
HETATM   33  C   UNL     1      42.825  -7.684  13.630  1.00  0.00     0.117 A 
HETATM   34  F   UNL     1      44.051  -7.254  13.961  1.00  0.00    -0.206 F 
HETATM   35  H   UNL     1      38.386  -9.438  12.836  1.00  0.00     0.165 HD
HETATM   36  C   UNL     1      39.030  -8.374  11.120  1.00  0.00     0.096 A 
ENDBRANCH  25  26
ENDBRANCH  24  25
ENDBRANCH   4  24
TORSDOF 6
ENDMDL
MODEL 9
REMARK VINA RESULT:      -9.2      2.548     10.988
REMARK  6 active torsions:
REMARK  status: ('A' for Active; 'I' for Inactive)
REMARK    1  A    between atoms: C_2  and  N_3 
REMARK    2  A    between atoms: N_6  and  C_8 
REMARK    3  A    between atoms: C_8  and  C_9 
REMARK       I    between atoms: C_9  and  N_10 
REMARK       I    between atoms: N_10  and  C_11 
REMARK       I    between atoms: C_11  and  N_12 
REMARK    4  A    between atoms: N_12  and  C_13 
REMARK    5  A    between atoms: C_13  and  C_14 
REMARK    6  A    between atoms: C_14  and  C_15 
ROOT
HETATM    1  C   UNL     1      41.384 -11.221   4.316  1.00  0.00     0.251 C 
HETATM    2  N   UNL     1      42.087 -10.696   5.366  1.00  0.00    -0.278 N 
HETATM    3  C   UNL     1      43.432 -10.870   5.583  1.00  0.00     0.322 C 
HETATM    4  N   UNL     1      43.825 -10.452   6.825  1.00  0.00    -0.343 N 
HETATM    5  O   UNL     1      44.193 -11.308   4.729  1.00  0.00    -0.247 OA
HETATM    6  O   UNL     1      40.153 -11.310   4.363  1.00  0.00    -0.271 OA
HETATM    7  H   UNL     1      41.524 -10.400   6.150  1.00  0.00     0.173 HD
HETATM    8  H   UNL     1      43.123 -10.434   7.554  1.00  0.00     0.164 HD
ENDROOT
BRANCH   1   9
HETATM    9  C   UNL     1      42.137 -11.741   3.081  1.00  0.00     0.337 C 
BRANCH   9  10
HETATM   10  N   UNL     1      41.859 -13.232   2.872  1.00  0.00    -0.060 N 
HETATM   11  C   UNL     1      42.994 -13.944   2.132  1.00  0.00     0.255 C 
HETATM   12  C   UNL     1      42.603 -15.408   1.859  1.00  0.00     0.150 C 
HETATM   13  N   UNL     1      42.232 -16.071   3.117  1.00  0.00    -0.378 N 
HETATM   14  C   UNL     1      41.161 -15.435   3.898  1.00  0.00     0.150 C 
HETATM   15  C   UNL     1      41.507 -13.951   4.166  1.00  0.00     0.255 C 
HETATM   16  H   UNL     1      41.042 -13.272   2.242  1.00  0.00     0.280 HD
BRANCH  13  17
HETATM   17  C   UNL     1      42.893 -17.194   3.579  1.00  0.00     0.030 A 
HETATM   18  C   UNL     1      43.195 -17.369   4.942  1.00  0.00     0.032 A 
HETATM   19  C   UNL     1      43.854 -18.511   5.410  1.00  0.00     0.044 A 
HETATM   20  C   UNL     1      44.229 -19.500   4.515  1.00  0.00     0.116 A 
HETATM   21  C   UNL     1      43.958 -19.364   3.164  1.00  0.00     0.044 A 
HETATM   22  F   UNL     1      44.859 -20.594   4.960  1.00  0.00    -0.206 F 
HETATM   23  C   UNL     1      43.294 -18.220   2.705  1.00  0.00     0.032 A 
ENDBRANCH  13  17
ENDBRANCH   9  10
ENDBRANCH   1   9
BRANCH   4  24
HETATM   24  C   UNL     1      45.180 -10.727   7.286  1.00  0.00     0.129 C 
BRANCH  24  25
HETATM   25  C   UNL     1      45.790  -9.595   8.119  1.00  0.00     0.060 C 
BRANCH  25  26
HETATM   26  C   UNL     1      44.819  -8.834   8.981  1.00  0.00    -0.029 A 
HETATM   27  C   UNL     1      44.170  -9.246  10.195  1.00  0.00     0.001 A 
HETATM   28  C   UNL     1      43.334  -8.199  10.597  1.00  0.00     0.043 A 
HETATM   29  C   UNL     1      44.193 -10.413  10.986  1.00  0.00     0.056 A 
HETATM   30  C   UNL     1      42.516  -8.266  11.734  1.00  0.00     0.033 A 
HETATM   31  N   UNL     1      43.509  -7.172   9.702  1.00  0.00    -0.365 N 
HETATM   32  C   UNL     1      42.544  -9.443  12.484  1.00  0.00     0.044 A 
HETATM   33  C   UNL     1      43.372 -10.490  12.111  1.00  0.00     0.117 A 
HETATM   34  F   UNL     1      43.376 -11.614  12.842  1.00  0.00    -0.206 F 
HETATM   35  H   UNL     1      43.055  -6.270   9.766  1.00  0.00     0.165 HD
HETATM   36  C   UNL     1      44.382  -7.548   8.719  1.00  0.00     0.096 A 
ENDBRANCH  25  26
ENDBRANCH  24  25
ENDBRANCH   4  24
TORSDOF 6
ENDMDL
MODEL 10
REMARK VINA RESULT:      -9.0      1.763     11.721
REMARK  6 active torsions:
REMARK  status: ('A' for Active; 'I' for Inactive)
REMARK    1  A    between atoms: C_2  and  N_3 
REMARK    2  A    between atoms: N_6  and  C_8 
REMARK    3  A    between atoms: C_8  and  C_9 
REMARK       I    between atoms: C_9  and  N_10 
REMARK       I    between atoms: N_10  and  C_11 
REMARK       I    between atoms: C_11  and  N_12 
REMARK    4  A    between atoms: N_12  and  C_13 
REMARK    5  A    between atoms: C_13  and  C_14 
REMARK    6  A    between atoms: C_14  and  C_15 
ROOT
HETATM    1  C   UNL     1      45.174 -11.130   6.960  1.00  0.00     0.251 C 
HETATM    2  N   UNL     1      45.238 -10.975   8.318  1.00  0.00    -0.278 N 
HETATM    3  C   UNL     1      44.282 -10.364   9.090  1.00  0.00     0.322 C 
HETATM    4  N   UNL     1      44.709 -10.126  10.368  1.00  0.00    -0.343 N 
HETATM    5  O   UNL     1      43.157 -10.109   8.680  1.00  0.00    -0.247 OA
HETATM    6  O   UNL     1      46.191 -11.375   6.304  1.00  0.00    -0.271 OA
HETATM    7  H   UNL     1      46.161 -11.079   8.715  1.00  0.00     0.173 HD
HETATM    8  H   UNL     1      45.706 -10.046  10.520  1.00  0.00     0.164 HD
ENDROOT
BRANCH   1   9
HETATM    9  C   UNL     1      43.827 -10.958   6.239  1.00  0.00     0.337 C 
BRANCH   9  10
HETATM   10  N   UNL     1      43.138 -12.315   6.062  1.00  0.00    -0.060 N 
HETATM   11  C   UNL     1      42.789 -12.610   4.602  1.00  0.00     0.255 C 
HETATM   12  C   UNL     1      42.003 -13.931   4.509  1.00  0.00     0.150 C 
HETATM   13  N   UNL     1      42.765 -15.013   5.149  1.00  0.00    -0.378 N 
HETATM   14  C   UNL     1      43.157 -14.795   6.549  1.00  0.00     0.150 C 
HETATM   15  C   UNL     1      43.923 -13.459   6.685  1.00  0.00     0.255 C 
HETATM   16  H   UNL     1      42.236 -12.229   6.557  1.00  0.00     0.280 HD
BRANCH  13  17
HETATM   17  C   UNL     1      43.150 -16.148   4.460  1.00  0.00     0.030 A 
HETATM   18  C   UNL     1      43.888 -17.175   5.075  1.00  0.00     0.032 A 
HETATM   19  C   UNL     1      44.268 -18.328   4.380  1.00  0.00     0.044 A 
HETATM   20  C   UNL     1      43.919 -18.470   3.047  1.00  0.00     0.116 A 
HETATM   21  C   UNL     1      43.200 -17.479   2.400  1.00  0.00     0.044 A 
HETATM   22  F   UNL     1      44.281 -19.572   2.379  1.00  0.00    -0.206 F 
HETATM   23  C   UNL     1      42.820 -16.330   3.105  1.00  0.00     0.032 A 
ENDBRANCH  13  17
ENDBRANCH   9  10
ENDBRANCH   1   9
BRANCH   4  24
HETATM   24  C   UNL     1      43.888  -9.326  11.269  1.00  0.00     0.129 C 
BRANCH  24  25
HETATM   25  C   UNL     1      42.837 -10.138  12.032  1.00  0.00     0.060 C 
BRANCH  25  26
HETATM   26  C   UNL     1      41.504  -9.464  12.209  1.00  0.00    -0.029 A 
HETATM   27  C   UNL     1      41.158  -8.345  13.043  1.00  0.00     0.001 A 
HETATM   28  C   UNL     1      39.787  -8.116  12.885  1.00  0.00     0.043 A 
HETATM   29  C   UNL     1      41.868  -7.513  13.931  1.00  0.00     0.056 A 
HETATM   30  C   UNL     1      39.094  -7.114  13.578  1.00  0.00     0.033 A 
HETATM   31  N   UNL     1      39.328  -9.016  11.954  1.00  0.00    -0.365 N 
HETATM   32  C   UNL     1      39.819  -6.321  14.468  1.00  0.00     0.044 A 
HETATM   33  C   UNL     1      41.181  -6.522  14.633  1.00  0.00     0.117 A 
HETATM   34  F   UNL     1      41.857  -5.754  15.499  1.00  0.00    -0.206 F 
HETATM   35  H   UNL     1      38.375  -9.058  11.615  1.00  0.00     0.165 HD
HETATM   36  C   UNL     1      40.344  -9.840  11.556  1.00  0.00     0.096 A 
ENDBRANCH  25  26
ENDBRANCH  24  25
ENDBRANCH   4  24
TORSDOF 6
ENDMDL
