MODEL 1
REMARK VINA RESULT:      -8.7      0.000      0.000
REMARK  6 active torsions:
REMARK  status: ('A' for Active; 'I' for Inactive)
REMARK    1  A    between atoms: C_3  and  C_4 
REMARK    2  A    between atoms: C_4  and  C_5 
REMARK       I    between atoms: C_5  and  N_6 
REMARK    3  A    between atoms: N_6  and  N_7 
REMARK       I    between atoms: N_7  and  C_8 
REMARK    4  A    between atoms: C_8  and  C_9 
REMARK    5  A    between atoms: C_13  and  C_14 
REMARK    6  A    between atoms: C_17  and  O_18 
ROOT
HETATM    1  N   UNL     1      43.709 -12.390   7.056  1.00  0.00    -0.262 N 
HETATM    2  C   UNL     1      44.643 -11.399   7.275  1.00  0.00     0.288 C 
HETATM    3  O   UNL     1      45.509 -11.117   6.449  1.00  0.00    -0.264 OA
HETATM    4  H   UNL     1      42.858 -12.451   7.611  1.00  0.00     0.190 HD
ENDROOT
BRANCH   2   5
HETATM    5  C   UNL     1      44.527 -10.733   8.545  1.00  0.00     0.121 A 
HETATM    6  N   UNL     1      45.613 -10.274   9.233  1.00  0.00    -0.272 N 
HETATM    7  H   UNL     1      46.587 -10.327   8.946  1.00  0.00     0.189 HD
HETATM    8  N   UNL     1      45.318  -9.717  10.417  1.00  0.00    -0.174 NA
HETATM    9  C   UNL     1      43.983  -9.818  10.523  1.00  0.00     0.089 A 
HETATM   10  C   UNL     1      43.450 -10.435   9.355  1.00  0.00     0.071 A 
BRANCH   9  11
HETATM   11  C   UNL     1      43.260  -9.363  11.718  1.00  0.00    -0.005 A 
HETATM   12  C   UNL     1      43.631  -8.179  12.369  1.00  0.00     0.016 A 
HETATM   13  C   UNL     1      42.970  -7.763  13.531  1.00  0.00     0.037 A 
HETATM   14  C   UNL     1      41.928  -8.519  14.067  1.00  0.00     0.068 A 
HETATM   15  C   UNL     1      41.538  -9.689  13.420  1.00  0.00     0.037 A 
HETATM   16  C   UNL     1      42.199 -10.107  12.256  1.00  0.00     0.016 A 
BRANCH  14  17
HETATM   17  O   UNL     1      41.377  -8.011  15.210  1.00  0.00    -0.356 OA
HETATM   18  C   UNL     1      42.127  -7.017  15.898  1.00  0.00     0.210 C 
ENDBRANCH  14  17
ENDBRANCH   9  11
ENDBRANCH   2   5
BRANCH   1  19
HETATM   19  N   UNL     1      43.663 -13.029   5.811  1.00  0.00    -0.267 N 
HETATM   20  C   UNL     1      42.586 -13.858   5.563  1.00  0.00     0.240 C 
HETATM   21  O   UNL     1      41.721 -14.070   6.413  1.00  0.00    -0.272 OA
HETATM   22  H   UNL     1      44.277 -12.670   5.082  1.00  0.00     0.190 HD
BRANCH  20  23
HETATM   23  C   UNL     1      42.594 -14.517   4.196  1.00  0.00     0.143 C 
BRANCH  23  24
HETATM   24  C   UNL     1      43.141 -15.934   4.156  1.00  0.00    -0.043 A 
HETATM   25  C   UNL     1      43.198 -16.653   2.939  1.00  0.00    -0.055 A 
HETATM   26  C   UNL     1      42.770 -16.050   1.628  1.00  0.00     0.049 C 
HETATM   27  C   UNL     1      43.707 -17.964   2.931  1.00  0.00     0.007 A 
HETATM   28  C   UNL     1      44.117 -18.582   4.109  1.00  0.00     0.001 A 
HETATM   29  C   UNL     1      44.026 -17.898   5.313  1.00  0.00     0.001 A 
HETATM   30  C   UNL     1      43.537 -16.591   5.338  1.00  0.00     0.008 A 
ENDBRANCH  23  24
ENDBRANCH  20  23
ENDBRANCH   1  19
TORSDOF 6
ENDMDL
MODEL 2
REMARK VINA RESULT:      -8.6      2.336     10.428
REMARK  6 active torsions:
REMARK  status: ('A' for Active; 'I' for Inactive)
REMARK    1  A    between atoms: C_3  and  C_4 
REMARK    2  A    between atoms: C_4  and  C_5 
REMARK       I    between atoms: C_5  and  N_6 
REMARK    3  A    between atoms: N_6  and  N_7 
REMARK       I    between atoms: N_7  and  C_8 
REMARK    4  A    between atoms: C_8  and  C_9 
REMARK    5  A    between atoms: C_13  and  C_14 
REMARK    6  A    between atoms: C_17  and  O_18 
ROOT
HETATM    1  N   UNL     1      43.437 -11.861   7.511  1.00  0.00    -0.262 N 
HETATM    2  C   UNL     1      42.700 -11.650   6.364  1.00  0.00     0.288 C 
HETATM    3  O   UNL     1      42.077 -10.608   6.166  1.00  0.00    -0.264 OA
HETATM    4  H   UNL     1      44.141 -12.595   7.562  1.00  0.00     0.190 HD
ENDROOT
BRANCH   2   5
HETATM    5  C   UNL     1      42.711 -12.744   5.431  1.00  0.00     0.121 A 
HETATM    6  N   UNL     1      42.148 -12.654   4.190  1.00  0.00    -0.272 N 
HETATM    7  H   UNL     1      41.689 -11.844   3.783  1.00  0.00     0.189 HD
HETATM    8  N   UNL     1      42.218 -13.785   3.473  1.00  0.00    -0.174 NA
HETATM    9  C   UNL     1      42.844 -14.664   4.272  1.00  0.00     0.089 A 
HETATM   10  C   UNL     1      43.186 -14.038   5.505  1.00  0.00     0.071 A 
BRANCH   9  11
HETATM   11  C   UNL     1      43.074 -16.058   3.869  1.00  0.00    -0.005 A 
HETATM   12  C   UNL     1      43.682 -16.964   4.748  1.00  0.00     0.016 A 
HETATM   13  C   UNL     1      43.940 -18.282   4.352  1.00  0.00     0.037 A 
HETATM   14  C   UNL     1      43.596 -18.722   3.074  1.00  0.00     0.068 A 
HETATM   15  C   UNL     1      42.975 -17.836   2.197  1.00  0.00     0.037 A 
HETATM   16  C   UNL     1      42.717 -16.516   2.592  1.00  0.00     0.016 A 
BRANCH  14  17
HETATM   17  O   UNL     1      43.914 -20.026   2.810  1.00  0.00    -0.356 OA
HETATM   18  C   UNL     1      43.947 -20.916   3.917  1.00  0.00     0.210 C 
ENDBRANCH  14  17
ENDBRANCH   9  11
ENDBRANCH   2   5
BRANCH   1  19
HETATM   19  N   UNL     1      43.582 -10.822   8.437  1.00  0.00    -0.267 N 
HETATM   20  C   UNL     1      44.867 -10.482   8.814  1.00  0.00     0.240 C 
HETATM   21  O   UNL     1      45.849 -11.094   8.393  1.00  0.00    -0.272 OA
HETATM   22  H   UNL     1      42.772 -10.224   8.594  1.00  0.00     0.190 HD
BRANCH  20  23
HETATM   23  C   UNL     1      44.956  -9.347   9.816  1.00  0.00     0.143 C 
BRANCH  23  24
HETATM   24  C   UNL     1      43.798  -9.248  10.796  1.00  0.00    -0.043 A 
HETATM   25  C   UNL     1      42.960  -8.108  10.811  1.00  0.00    -0.055 A 
HETATM   26  C   UNL     1      43.135  -6.968   9.845  1.00  0.00     0.049 C 
HETATM   27  C   UNL     1      41.897  -8.041  11.730  1.00  0.00     0.007 A 
HETATM   28  C   UNL     1      41.681  -9.060  12.653  1.00  0.00     0.001 A 
HETATM   29  C   UNL     1      42.524 -10.163  12.671  1.00  0.00     0.001 A 
HETATM   30  C   UNL     1      43.575 -10.252  11.758  1.00  0.00     0.008 A 
ENDBRANCH  23  24
ENDBRANCH  20  23
ENDBRANCH   1  19
TORSDOF 6
ENDMDL
MODEL 3
REMARK VINA RESULT:      -8.6      2.432     10.609
REMARK  6 active torsions:
REMARK  status: ('A' for Active; 'I' for Inactive)
REMARK    1  A    between atoms: C_3  and  C_4 
REMARK    2  A    between atoms: C_4  and  C_5 
REMARK       I    between atoms: C_5  and  N_6 
REMARK    3  A    between atoms: N_6  and  N_7 
REMARK       I    between atoms: N_7  and  C_8 
REMARK    4  A    between atoms: C_8  and  C_9 
REMARK    5  A    between atoms: C_13  and  C_14 
REMARK    6  A    between atoms: C_17  and  O_18 
ROOT
HETATM    1  N   UNL     1      43.681 -12.065   7.790  1.00  0.00    -0.262 N 
HETATM    2  C   UNL     1      42.971 -11.814   6.633  1.00  0.00     0.288 C 
HETATM    3  O   UNL     1      42.372 -10.757   6.447  1.00  0.00    -0.264 OA
HETATM    4  H   UNL     1      44.370 -12.813   7.838  1.00  0.00     0.190 HD
ENDROOT
BRANCH   2   5
HETATM    5  C   UNL     1      42.982 -12.887   5.676  1.00  0.00     0.121 A 
HETATM    6  N   UNL     1      42.520 -12.735   4.400  1.00  0.00    -0.272 N 
HETATM    7  H   UNL     1      42.145 -11.888   3.982  1.00  0.00     0.189 HD
HETATM    8  N   UNL     1      42.570 -13.852   3.661  1.00  0.00    -0.174 NA
HETATM    9  C   UNL     1      43.078 -14.787   4.481  1.00  0.00     0.089 A 
HETATM   10  C   UNL     1      43.367 -14.211   5.751  1.00  0.00     0.071 A 
BRANCH   9  11
HETATM   11  C   UNL     1      43.247 -16.184   4.060  1.00  0.00    -0.005 A 
HETATM   12  C   UNL     1      43.978 -17.083   4.847  1.00  0.00     0.016 A 
HETATM   13  C   UNL     1      44.177 -18.405   4.429  1.00  0.00     0.037 A 
HETATM   14  C   UNL     1      43.650 -18.855   3.219  1.00  0.00     0.068 A 
HETATM   15  C   UNL     1      42.907 -17.976   2.434  1.00  0.00     0.037 A 
HETATM   16  C   UNL     1      42.708 -16.652   2.852  1.00  0.00     0.016 A 
BRANCH  14  17
HETATM   17  O   UNL     1      43.928 -20.160   2.921  1.00  0.00    -0.356 OA
HETATM   18  C   UNL     1      43.667 -20.584   1.588  1.00  0.00     0.210 C 
ENDBRANCH  14  17
ENDBRANCH   9  11
ENDBRANCH   2   5
BRANCH   1  19
HETATM   19  N   UNL     1      43.825 -11.051   8.742  1.00  0.00    -0.267 N 
HETATM   20  C   UNL     1      45.068 -10.457   8.854  1.00  0.00     0.240 C 
HETATM   21  O   UNL     1      46.028 -10.830   8.179  1.00  0.00    -0.272 OA
HETATM   22  H   UNL     1      42.971 -10.645   9.122  1.00  0.00     0.190 HD
BRANCH  20  23
HETATM   23  C   UNL     1      45.157  -9.362   9.901  1.00  0.00     0.143 C 
BRANCH  23  24
HETATM   24  C   UNL     1      44.032  -8.340   9.876  1.00  0.00    -0.043 A 
HETATM   25  C   UNL     1      43.144  -8.216  10.970  1.00  0.00    -0.055 A 
HETATM   26  C   UNL     1      43.287  -9.043  12.219  1.00  0.00     0.049 C 
HETATM   27  C   UNL     1      42.110  -7.265  10.919  1.00  0.00     0.007 A 
HETATM   28  C   UNL     1      41.920  -6.470   9.792  1.00  0.00     0.001 A 
HETATM   29  C   UNL     1      42.762  -6.614   8.699  1.00  0.00     0.001 A 
HETATM   30  C   UNL     1      43.802  -7.544   8.737  1.00  0.00     0.008 A 
ENDBRANCH  23  24
ENDBRANCH  20  23
ENDBRANCH   1  19
TORSDOF 6
ENDMDL
MODEL 4
REMARK VINA RESULT:      -8.4      2.033     10.856
REMARK  6 active torsions:
REMARK  status: ('A' for Active; 'I' for Inactive)
REMARK    1  A    between atoms: C_3  and  C_4 
REMARK    2  A    between atoms: C_4  and  C_5 
REMARK       I    between atoms: C_5  and  N_6 
REMARK    3  A    between atoms: N_6  and  N_7 
REMARK       I    between atoms: N_7  and  C_8 
REMARK    4  A    between atoms: C_8  and  C_9 
REMARK    5  A    between atoms: C_13  and  C_14 
REMARK    6  A    between atoms: C_17  and  O_18 
ROOT
HETATM    1  N   UNL     1      43.436 -10.886   8.913  1.00  0.00    -0.262 N 
HETATM    2  C   UNL     1      44.321 -11.454   8.020  1.00  0.00     0.288 C 
HETATM    3  O   UNL     1      45.524 -11.203   8.038  1.00  0.00    -0.264 OA
HETATM    4  H   UNL     1      42.507 -11.276   9.061  1.00  0.00     0.190 HD
ENDROOT
BRANCH   2   5
HETATM    5  C   UNL     1      43.723 -12.349   7.066  1.00  0.00     0.121 A 
HETATM    6  N   UNL     1      42.409 -12.263   6.704  1.00  0.00    -0.272 N 
HETATM    7  H   UNL     1      41.728 -11.583   7.031  1.00  0.00     0.189 HD
HETATM    8  N   UNL     1      42.016 -13.205   5.836  1.00  0.00    -0.174 NA
HETATM    9  C   UNL     1      43.110 -13.954   5.618  1.00  0.00     0.089 A 
HETATM   10  C   UNL     1      44.208 -13.432   6.361  1.00  0.00     0.071 A 
BRANCH   9  11
HETATM   11  C   UNL     1      43.084 -15.139   4.751  1.00  0.00    -0.005 A 
HETATM   12  C   UNL     1      42.572 -15.060   3.449  1.00  0.00     0.016 A 
HETATM   13  C   UNL     1      42.508 -16.196   2.634  1.00  0.00     0.037 A 
HETATM   14  C   UNL     1      42.953 -17.432   3.100  1.00  0.00     0.068 A 
HETATM   15  C   UNL     1      43.481 -17.522   4.386  1.00  0.00     0.037 A 
HETATM   16  C   UNL     1      43.545 -16.384   5.204  1.00  0.00     0.016 A 
BRANCH  14  17
HETATM   17  O   UNL     1      42.823 -18.464   2.211  1.00  0.00    -0.356 OA
HETATM   18  C   UNL     1      43.558 -19.648   2.490  1.00  0.00     0.210 C 
ENDBRANCH  14  17
ENDBRANCH   9  11
ENDBRANCH   2   5
BRANCH   1  19
HETATM   19  N   UNL     1      43.924 -10.083   9.950  1.00  0.00    -0.267 N 
HETATM   20  C   UNL     1      42.997  -9.479  10.776  1.00  0.00     0.240 C 
HETATM   21  O   UNL     1      41.786  -9.598  10.588  1.00  0.00    -0.272 OA
HETATM   22  H   UNL     1      44.911 -10.180  10.186  1.00  0.00     0.190 HD
BRANCH  20  23
HETATM   23  C   UNL     1      43.591  -8.627  11.882  1.00  0.00     0.143 C 
BRANCH  23  24
HETATM   24  C   UNL     1      42.606  -8.142  12.934  1.00  0.00    -0.043 A 
HETATM   25  C   UNL     1      42.003  -6.867  12.827  1.00  0.00    -0.055 A 
HETATM   26  C   UNL     1      42.264  -5.950  11.661  1.00  0.00     0.049 C 
HETATM   27  C   UNL     1      41.098  -6.442  13.815  1.00  0.00     0.007 A 
HETATM   28  C   UNL     1      40.815  -7.240  14.920  1.00  0.00     0.001 A 
HETATM   29  C   UNL     1      41.433  -8.475  15.053  1.00  0.00     0.001 A 
HETATM   30  C   UNL     1      42.323  -8.918  14.075  1.00  0.00     0.008 A 
ENDBRANCH  23  24
ENDBRANCH  20  23
ENDBRANCH   1  19
TORSDOF 6
ENDMDL
MODEL 5
REMARK VINA RESULT:      -8.3      2.332     10.508
REMARK  6 active torsions:
REMARK  status: ('A' for Active; 'I' for Inactive)
REMARK    1  A    between atoms: C_3  and  C_4 
REMARK    2  A    between atoms: C_4  and  C_5 
REMARK       I    between atoms: C_5  and  N_6 
REMARK    3  A    between atoms: N_6  and  N_7 
REMARK       I    between atoms: N_7  and  C_8 
REMARK    4  A    between atoms: C_8  and  C_9 
REMARK    5  A    between atoms: C_13  and  C_14 
REMARK    6  A    between atoms: C_17  and  O_18 
ROOT
HETATM    1  N   UNL     1      42.573 -11.069   7.485  1.00  0.00    -0.262 N 
HETATM    2  C   UNL     1      43.645 -11.927   7.348  1.00  0.00     0.288 C 
HETATM    3  O   UNL     1      44.696 -11.770   7.966  1.00  0.00    -0.264 OA
HETATM    4  H   UNL     1      41.639 -11.333   7.180  1.00  0.00     0.190 HD
ENDROOT
BRANCH   2   5
HETATM    5  C   UNL     1      43.437 -13.007   6.420  1.00  0.00     0.121 A 
HETATM    6  N   UNL     1      42.506 -12.946   5.423  1.00  0.00    -0.272 N 
HETATM    7  H   UNL     1      41.887 -12.169   5.210  1.00  0.00     0.189 HD
HETATM    8  N   UNL     1      42.423 -14.061   4.682  1.00  0.00    -0.174 NA
HETATM    9  C   UNL     1      43.329 -14.898   5.213  1.00  0.00     0.089 A 
HETATM   10  C   UNL     1      43.999 -14.261   6.296  1.00  0.00     0.071 A 
BRANCH   9  11
HETATM   11  C   UNL     1      43.515 -16.266   4.709  1.00  0.00    -0.005 A 
HETATM   12  C   UNL     1      43.133 -16.604   3.405  1.00  0.00     0.016 A 
HETATM   13  C   UNL     1      43.272 -17.916   2.935  1.00  0.00     0.037 A 
HETATM   14  C   UNL     1      43.794 -18.915   3.757  1.00  0.00     0.068 A 
HETATM   15  C   UNL     1      44.193 -18.588   5.050  1.00  0.00     0.037 A 
HETATM   16  C   UNL     1      44.054 -17.274   5.522  1.00  0.00     0.016 A 
BRANCH  14  17
HETATM   17  O   UNL     1      43.863 -20.154   3.183  1.00  0.00    -0.356 OA
HETATM   18  C   UNL     1      43.431 -20.262   1.833  1.00  0.00     0.210 C 
ENDBRANCH  14  17
ENDBRANCH   9  11
ENDBRANCH   2   5
BRANCH   1  19
HETATM   19  N   UNL     1      42.628 -10.048   8.440  1.00  0.00    -0.267 N 
HETATM   20  C   UNL     1      41.494  -9.277   8.611  1.00  0.00     0.240 C 
HETATM   21  O   UNL     1      40.487  -9.444   7.923  1.00  0.00    -0.272 OA
HETATM   22  H   UNL     1      43.393 -10.081   9.112  1.00  0.00     0.190 HD
BRANCH  20  23
HETATM   23  C   UNL     1      41.617  -8.190   9.662  1.00  0.00     0.143 C 
BRANCH  23  24
HETATM   24  C   UNL     1      41.304  -8.620  11.086  1.00  0.00    -0.043 A 
HETATM   25  C   UNL     1      42.344  -8.897  12.003  1.00  0.00    -0.055 A 
HETATM   26  C   UNL     1      43.797  -8.739  11.642  1.00  0.00     0.049 C 
HETATM   27  C   UNL     1      42.027  -9.296  13.313  1.00  0.00     0.007 A 
HETATM   28  C   UNL     1      40.703  -9.464  13.712  1.00  0.00     0.001 A 
HETATM   29  C   UNL     1      39.677  -9.233  12.806  1.00  0.00     0.001 A 
HETATM   30  C   UNL     1      39.974  -8.823  11.505  1.00  0.00     0.008 A 
ENDBRANCH  23  24
ENDBRANCH  20  23
ENDBRANCH   1  19
TORSDOF 6
ENDMDL
MODEL 6
REMARK VINA RESULT:      -8.0      8.136     11.780
REMARK  6 active torsions:
REMARK  status: ('A' for Active; 'I' for Inactive)
REMARK    1  A    between atoms: C_3  and  C_4 
REMARK    2  A    between atoms: C_4  and  C_5 
REMARK       I    between atoms: C_5  and  N_6 
REMARK    3  A    between atoms: N_6  and  N_7 
REMARK       I    between atoms: N_7  and  C_8 
REMARK    4  A    between atoms: C_8  and  C_9 
REMARK    5  A    between atoms: C_13  and  C_14 
REMARK    6  A    between atoms: C_17  and  O_18 
ROOT
HETATM    1  N   UNL     1      41.568 -13.984   0.520  1.00  0.00    -0.262 N 
HETATM    2  C   UNL     1      40.557 -13.072   0.300  1.00  0.00     0.288 C 
HETATM    3  O   UNL     1      39.595 -12.961   1.058  1.00  0.00    -0.264 OA
HETATM    4  H   UNL     1      42.467 -13.904   0.049  1.00  0.00     0.190 HD
ENDROOT
BRANCH   2   5
HETATM    5  C   UNL     1      40.714 -12.273  -0.886  1.00  0.00     0.121 A 
HETATM    6  N   UNL     1      40.988 -12.820  -2.106  1.00  0.00    -0.272 N 
HETATM    7  H   UNL     1      41.094 -13.807  -2.325  1.00  0.00     0.189 HD
HETATM    8  N   UNL     1      41.142 -11.921  -3.089  1.00  0.00    -0.174 NA
HETATM    9  C   UNL     1      40.972 -10.728  -2.496  1.00  0.00     0.089 A 
HETATM   10  C   UNL     1      40.682 -10.912  -1.114  1.00  0.00     0.071 A 
BRANCH   9  11
HETATM   11  C   UNL     1      41.113  -9.464  -3.232  1.00  0.00    -0.005 A 
HETATM   12  C   UNL     1      40.455  -9.272  -4.454  1.00  0.00     0.016 A 
HETATM   13  C   UNL     1      40.620  -8.086  -5.178  1.00  0.00     0.037 A 
HETATM   14  C   UNL     1      41.444  -7.068  -4.698  1.00  0.00     0.068 A 
HETATM   15  C   UNL     1      42.091  -7.239  -3.477  1.00  0.00     0.037 A 
HETATM   16  C   UNL     1      41.927  -8.427  -2.751  1.00  0.00     0.016 A 
BRANCH  14  17
HETATM   17  O   UNL     1      41.530  -5.968  -5.506  1.00  0.00    -0.356 OA
HETATM   18  C   UNL     1      42.797  -5.700  -6.093  1.00  0.00     0.210 C 
ENDBRANCH  14  17
ENDBRANCH   9  11
ENDBRANCH   2   5
BRANCH   1  19
HETATM   19  N   UNL     1      41.570 -14.737   1.699  1.00  0.00    -0.267 N 
HETATM   20  C   UNL     1      42.798 -15.060   2.244  1.00  0.00     0.240 C 
HETATM   21  O   UNL     1      43.854 -14.743   1.696  1.00  0.00    -0.272 OA
HETATM   22  H   UNL     1      40.693 -14.797   2.214  1.00  0.00     0.190 HD
BRANCH  20  23
HETATM   23  C   UNL     1      42.732 -15.874   3.523  1.00  0.00     0.143 C 
BRANCH  23  24
HETATM   24  C   UNL     1      43.124 -17.337   3.387  1.00  0.00    -0.043 A 
HETATM   25  C   UNL     1      43.901 -17.972   4.384  1.00  0.00    -0.055 A 
HETATM   26  C   UNL     1      44.339 -17.261   5.637  1.00  0.00     0.049 C 
HETATM   27  C   UNL     1      44.253 -19.325   4.233  1.00  0.00     0.007 A 
HETATM   28  C   UNL     1      43.882 -20.040   3.097  1.00  0.00     0.001 A 
HETATM   29  C   UNL     1      43.154 -19.412   2.096  1.00  0.00     0.001 A 
HETATM   30  C   UNL     1      42.785 -18.074   2.236  1.00  0.00     0.008 A 
ENDBRANCH  23  24
ENDBRANCH  20  23
ENDBRANCH   1  19
TORSDOF 6
ENDMDL
MODEL 7
REMARK VINA RESULT:      -8.0      2.347     10.506
REMARK  6 active torsions:
REMARK  status: ('A' for Active; 'I' for Inactive)
REMARK    1  A    between atoms: C_3  and  C_4 
REMARK    2  A    between atoms: C_4  and  C_5 
REMARK       I    between atoms: C_5  and  N_6 
REMARK    3  A    between atoms: N_6  and  N_7 
REMARK       I    between atoms: N_7  and  C_8 
REMARK    4  A    between atoms: C_8  and  C_9 
REMARK    5  A    between atoms: C_13  and  C_14 
REMARK    6  A    between atoms: C_17  and  O_18 
ROOT
HETATM    1  N   UNL     1      42.823 -10.986   7.848  1.00  0.00    -0.262 N 
HETATM    2  C   UNL     1      43.904 -11.766   7.494  1.00  0.00     0.288 C 
HETATM    3  O   UNL     1      45.027 -11.583   7.959  1.00  0.00    -0.264 OA
HETATM    4  H   UNL     1      41.868 -11.288   7.667  1.00  0.00     0.190 HD
ENDROOT
BRANCH   2   5
HETATM    5  C   UNL     1      43.614 -12.798   6.536  1.00  0.00     0.121 A 
HETATM    6  N   UNL     1      42.695 -12.635   5.539  1.00  0.00    -0.272 N 
HETATM    7  H   UNL     1      42.141 -11.805   5.347  1.00  0.00     0.189 HD
HETATM    8  N   UNL     1      42.525 -13.717   4.766  1.00  0.00    -0.174 NA
HETATM    9  C   UNL     1      43.359 -14.640   5.274  1.00  0.00     0.089 A 
HETATM   10  C   UNL     1      44.074 -14.090   6.377  1.00  0.00     0.071 A 
BRANCH   9  11
HETATM   11  C   UNL     1      43.437 -16.003   4.732  1.00  0.00    -0.005 A 
HETATM   12  C   UNL     1      44.160 -16.997   5.402  1.00  0.00     0.016 A 
HETATM   13  C   UNL     1      44.271 -18.287   4.868  1.00  0.00     0.037 A 
HETATM   14  C   UNL     1      43.662 -18.609   3.655  1.00  0.00     0.068 A 
HETATM   15  C   UNL     1      42.925 -17.634   2.987  1.00  0.00     0.037 A 
HETATM   16  C   UNL     1      42.814 -16.342   3.521  1.00  0.00     0.016 A 
BRANCH  14  17
HETATM   17  O   UNL     1      43.858 -19.896   3.237  1.00  0.00    -0.356 OA
HETATM   18  C   UNL     1      43.516 -20.193   1.889  1.00  0.00     0.210 C 
ENDBRANCH  14  17
ENDBRANCH   9  11
ENDBRANCH   2   5
BRANCH   1  19
HETATM   19  N   UNL     1      42.969 -10.022   8.852  1.00  0.00    -0.267 N 
HETATM   20  C   UNL     1      42.146  -8.914   8.794  1.00  0.00     0.240 C 
HETATM   21  O   UNL     1      41.345  -8.750   7.874  1.00  0.00    -0.272 OA
HETATM   22  H   UNL     1      43.488 -10.295   9.686  1.00  0.00     0.190 HD
BRANCH  20  23
HETATM   23  C   UNL     1      42.352  -7.910   9.913  1.00  0.00     0.143 C 
BRANCH  23  24
HETATM   24  C   UNL     1      41.895  -8.364  11.290  1.00  0.00    -0.043 A 
HETATM   25  C   UNL     1      40.544  -8.227  11.685  1.00  0.00    -0.055 A 
HETATM   26  C   UNL     1      39.489  -7.676  10.763  1.00  0.00     0.049 C 
HETATM   27  C   UNL     1      40.148  -8.652  12.965  1.00  0.00     0.007 A 
HETATM   28  C   UNL     1      41.074  -9.168  13.868  1.00  0.00     0.001 A 
HETATM   29  C   UNL     1      42.410  -9.268  13.503  1.00  0.00     0.001 A 
HETATM   30  C   UNL     1      42.817  -8.863  12.231  1.00  0.00     0.008 A 
ENDBRANCH  23  24
ENDBRANCH  20  23
ENDBRANCH   1  19
TORSDOF 6
ENDMDL
MODEL 8
REMARK VINA RESULT:      -8.0     18.552     20.632
REMARK  6 active torsions:
REMARK  status: ('A' for Active; 'I' for Inactive)
REMARK    1  A    between atoms: C_3  and  C_4 
REMARK    2  A    between atoms: C_4  and  C_5 
REMARK       I    between atoms: C_5  and  N_6 
REMARK    3  A    between atoms: N_6  and  N_7 
REMARK       I    between atoms: N_7  and  C_8 
REMARK    4  A    between atoms: C_8  and  C_9 
REMARK    5  A    between atoms: C_13  and  C_14 
REMARK    6  A    between atoms: C_17  and  O_18 
ROOT
HETATM    1  N   UNL     1      43.456 -29.544   3.150  1.00  0.00    -0.262 N 
HETATM    2  C   UNL     1      42.322 -29.714   2.382  1.00  0.00     0.288 C 
HETATM    3  O   UNL     1      42.138 -29.092   1.337  1.00  0.00    -0.264 OA
HETATM    4  H   UNL     1      43.723 -30.223   3.859  1.00  0.00     0.190 HD
ENDROOT
BRANCH   2   5
HETATM    5  C   UNL     1      41.377 -30.663   2.905  1.00  0.00     0.121 A 
HETATM    6  N   UNL     1      40.636 -31.478   2.099  1.00  0.00    -0.272 N 
HETATM    7  H   UNL     1      40.667 -31.528   1.084  1.00  0.00     0.189 HD
HETATM    8  N   UNL     1      39.777 -32.269   2.759  1.00  0.00    -0.174 NA
HETATM    9  C   UNL     1      39.948 -31.960   4.055  1.00  0.00     0.089 A 
HETATM   10  C   UNL     1      40.961 -30.967   4.186  1.00  0.00     0.071 A 
BRANCH   9  11
HETATM   11  C   UNL     1      39.144 -32.581   5.116  1.00  0.00    -0.005 A 
HETATM   12  C   UNL     1      37.955 -33.254   4.810  1.00  0.00     0.016 A 
HETATM   13  C   UNL     1      37.165 -33.811   5.823  1.00  0.00     0.037 A 
HETATM   14  C   UNL     1      37.547 -33.708   7.161  1.00  0.00     0.068 A 
HETATM   15  C   UNL     1      38.736 -33.057   7.477  1.00  0.00     0.037 A 
HETATM   16  C   UNL     1      39.528 -32.498   6.464  1.00  0.00     0.016 A 
BRANCH  14  17
HETATM   17  O   UNL     1      36.682 -34.282   8.051  1.00  0.00    -0.356 OA
HETATM   18  C   UNL     1      35.480 -34.824   7.521  1.00  0.00     0.210 C 
ENDBRANCH  14  17
ENDBRANCH   9  11
ENDBRANCH   2   5
BRANCH   1  19
HETATM   19  N   UNL     1      44.489 -28.725   2.681  1.00  0.00    -0.267 N 
HETATM   20  C   UNL     1      45.744 -29.290   2.564  1.00  0.00     0.240 C 
HETATM   21  O   UNL     1      45.965 -30.454   2.900  1.00  0.00    -0.272 OA
HETATM   22  H   UNL     1      44.220 -27.851   2.231  1.00  0.00     0.190 HD
BRANCH  20  23
HETATM   23  C   UNL     1      46.818 -28.352   2.047  1.00  0.00     0.143 C 
BRANCH  23  24
HETATM   24  C   UNL     1      47.243 -28.577   0.605  1.00  0.00    -0.043 A 
HETATM   25  C   UNL     1      48.394 -29.344   0.302  1.00  0.00    -0.055 A 
HETATM   26  C   UNL     1      49.222 -30.007   1.371  1.00  0.00     0.049 C 
HETATM   27  C   UNL     1      48.767 -29.534  -1.040  1.00  0.00     0.007 A 
HETATM   28  C   UNL     1      48.046 -28.947  -2.076  1.00  0.00     0.001 A 
HETATM   29  C   UNL     1      46.940 -28.160  -1.785  1.00  0.00     0.001 A 
HETATM   30  C   UNL     1      46.548 -27.971  -0.460  1.00  0.00     0.008 A 
ENDBRANCH  23  24
ENDBRANCH  20  23
ENDBRANCH   1  19
TORSDOF 6
ENDMDL
MODEL 9
REMARK VINA RESULT:      -7.9      8.563     11.623
REMARK  6 active torsions:
REMARK  status: ('A' for Active; 'I' for Inactive)
REMARK    1  A    between atoms: C_3  and  C_4 
REMARK    2  A    between atoms: C_4  and  C_5 
REMARK       I    between atoms: C_5  and  N_6 
REMARK    3  A    between atoms: N_6  and  N_7 
REMARK       I    between atoms: N_7  and  C_8 
REMARK    4  A    between atoms: C_8  and  C_9 
REMARK    5  A    between atoms: C_13  and  C_14 
REMARK    6  A    between atoms: C_17  and  O_18 
ROOT
HETATM    1  N   UNL     1      41.340 -12.512  -0.495  1.00  0.00    -0.262 N 
HETATM    2  C   UNL     1      40.243 -13.251  -0.101  1.00  0.00     0.288 C 
HETATM    3  O   UNL     1      39.105 -12.997  -0.491  1.00  0.00    -0.264 OA
HETATM    4  H   UNL     1      42.287 -12.866  -0.383  1.00  0.00     0.190 HD
ENDROOT
BRANCH   2   5
HETATM    5  C   UNL     1      40.538 -14.330   0.803  1.00  0.00     0.121 A 
HETATM    6  N   UNL     1      39.594 -14.875   1.625  1.00  0.00    -0.272 N 
HETATM    7  H   UNL     1      38.614 -14.615   1.688  1.00  0.00     0.189 HD
HETATM    8  N   UNL     1      40.059 -15.843   2.428  1.00  0.00    -0.174 NA
HETATM    9  C   UNL     1      41.367 -15.939   2.135  1.00  0.00     0.089 A 
HETATM   10  C   UNL     1      41.699 -15.015   1.102  1.00  0.00     0.071 A 
BRANCH   9  11
HETATM   11  C   UNL     1      42.259 -16.865   2.844  1.00  0.00    -0.005 A 
HETATM   12  C   UNL     1      42.794 -17.982   2.190  1.00  0.00     0.016 A 
HETATM   13  C   UNL     1      43.612 -18.889   2.875  1.00  0.00     0.037 A 
HETATM   14  C   UNL     1      43.913 -18.699   4.223  1.00  0.00     0.068 A 
HETATM   15  C   UNL     1      43.402 -17.583   4.880  1.00  0.00     0.037 A 
HETATM   16  C   UNL     1      42.582 -16.674   4.196  1.00  0.00     0.016 A 
BRANCH  14  17
HETATM   17  O   UNL     1      44.709 -19.663   4.776  1.00  0.00    -0.356 OA
HETATM   18  C   UNL     1      44.064 -20.844   5.236  1.00  0.00     0.210 C 
ENDBRANCH  14  17
ENDBRANCH   9  11
ENDBRANCH   2   5
BRANCH   1  19
HETATM   19  N   UNL     1      41.182 -11.507  -1.456  1.00  0.00    -0.267 N 
HETATM   20  C   UNL     1      41.529 -10.220  -1.092  1.00  0.00     0.240 C 
HETATM   21  O   UNL     1      41.917  -9.950   0.045  1.00  0.00    -0.272 OA
HETATM   22  H   UNL     1      41.058 -11.804  -2.423  1.00  0.00     0.190 HD
BRANCH  20  23
HETATM   23  C   UNL     1      41.339  -9.178  -2.179  1.00  0.00     0.143 C 
BRANCH  23  24
HETATM   24  C   UNL     1      41.924  -7.808  -1.880  1.00  0.00    -0.043 A 
HETATM   25  C   UNL     1      41.087  -6.730  -1.506  1.00  0.00    -0.055 A 
HETATM   26  C   UNL     1      39.599  -6.888  -1.342  1.00  0.00     0.049 C 
HETATM   27  C   UNL     1      41.654  -5.472  -1.238  1.00  0.00     0.007 A 
HETATM   28  C   UNL     1      43.023  -5.258  -1.374  1.00  0.00     0.001 A 
HETATM   29  C   UNL     1      43.846  -6.299  -1.779  1.00  0.00     0.001 A 
HETATM   30  C   UNL     1      43.302  -7.558  -2.036  1.00  0.00     0.008 A 
ENDBRANCH  23  24
ENDBRANCH  20  23
ENDBRANCH   1  19
TORSDOF 6
ENDMDL
MODEL 10
REMARK VINA RESULT:      -7.9      1.221      2.312
REMARK  6 active torsions:
REMARK  status: ('A' for Active; 'I' for Inactive)
REMARK    1  A    between atoms: C_3  and  C_4 
REMARK    2  A    between atoms: C_4  and  C_5 
REMARK       I    between atoms: C_5  and  N_6 
REMARK    3  A    between atoms: N_6  and  N_7 
REMARK       I    between atoms: N_7  and  C_8 
REMARK    4  A    between atoms: C_8  and  C_9 
REMARK    5  A    between atoms: C_13  and  C_14 
REMARK    6  A    between atoms: C_17  and  O_18 
ROOT
HETATM    1  N   UNL     1      43.869 -12.696   7.352  1.00  0.00    -0.262 N 
HETATM    2  C   UNL     1      44.661 -11.568   7.404  1.00  0.00     0.288 C 
HETATM    3  O   UNL     1      45.437 -11.267   6.499  1.00  0.00    -0.264 OA
HETATM    4  H   UNL     1      43.062 -12.808   7.963  1.00  0.00     0.190 HD
ENDROOT
BRANCH   2   5
HETATM    5  C   UNL     1      44.513 -10.783   8.600  1.00  0.00     0.121 A 
HETATM    6  N   UNL     1      45.511  -9.986   9.081  1.00  0.00    -0.272 N 
HETATM    7  H   UNL     1      46.430  -9.841   8.672  1.00  0.00     0.189 HD
HETATM    8  N   UNL     1      45.209  -9.361  10.229  1.00  0.00    -0.174 NA
HETATM    9  C   UNL     1      43.963  -9.765  10.526  1.00  0.00     0.089 A 
HETATM   10  C   UNL     1      43.486 -10.646   9.513  1.00  0.00     0.071 A 
BRANCH   9  11
HETATM   11  C   UNL     1      43.278  -9.339  11.753  1.00  0.00    -0.005 A 
HETATM   12  C   UNL     1      42.213 -10.087  12.273  1.00  0.00     0.016 A 
HETATM   13  C   UNL     1      41.531  -9.662  13.419  1.00  0.00     0.037 A 
HETATM   14  C   UNL     1      41.897  -8.484  14.069  1.00  0.00     0.068 A 
HETATM   15  C   UNL     1      42.964  -7.740  13.573  1.00  0.00     0.037 A 
HETATM   16  C   UNL     1      43.648  -8.164  12.425  1.00  0.00     0.016 A 
BRANCH  14  17
HETATM   17  O   UNL     1      41.142  -8.175  15.167  1.00  0.00    -0.356 OA
HETATM   18  C   UNL     1      40.411  -6.956  15.121  1.00  0.00     0.210 C 
ENDBRANCH  14  17
ENDBRANCH   9  11
ENDBRANCH   2   5
BRANCH   1  19
HETATM   19  N   UNL     1      43.854 -13.474   6.188  1.00  0.00    -0.267 N 
HETATM   20  C   UNL     1      43.064 -14.607   6.191  1.00  0.00     0.240 C 
HETATM   21  O   UNL     1      42.430 -14.952   7.189  1.00  0.00    -0.272 OA
HETATM   22  H   UNL     1      44.223 -13.046   5.340  1.00  0.00     0.190 HD
BRANCH  20  23
HETATM   23  C   UNL     1      43.089 -15.403   4.900  1.00  0.00     0.143 C 
BRANCH  23  24
HETATM   24  C   UNL     1      41.913 -15.170   3.966  1.00  0.00    -0.043 A 
HETATM   25  C   UNL     1      41.642 -16.068   2.907  1.00  0.00    -0.055 A 
HETATM   26  C   UNL     1      42.462 -17.309   2.675  1.00  0.00     0.049 C 
HETATM   27  C   UNL     1      40.549 -15.827   2.055  1.00  0.00     0.007 A 
HETATM   28  C   UNL     1      39.752 -14.696   2.212  1.00  0.00     0.001 A 
HETATM   29  C   UNL     1      40.036 -13.790   3.224  1.00  0.00     0.001 A 
HETATM   30  C   UNL     1      41.108 -14.020   4.087  1.00  0.00     0.008 A 
ENDBRANCH  23  24
ENDBRANCH  20  23
ENDBRANCH   1  19
TORSDOF 6
ENDMDL
