MODEL 1
REMARK VINA RESULT:      -8.7      0.000      0.000
REMARK  4 active torsions:
REMARK  status: ('A' for Active; 'I' for Inactive)
REMARK    1  A    between atoms: C_2  and  C_3 
REMARK    2  A    between atoms: C_4  and  C_5 
REMARK       I    between atoms: C_5  and  N_6 
REMARK    3  A    between atoms: N_6  and  C_7 
REMARK    4  A    between atoms: C_14  and  C_15 
REMARK       I    between atoms: C_15  and  N_16 
ROOT
HETATM    1  C   UNL     1      44.459 -12.034   6.966  1.00  0.00     0.035 A 
HETATM    2  C   UNL     1      43.897 -11.748   8.218  1.00  0.00     0.046 A 
HETATM    3  C   UNL     1      44.471 -10.743   9.028  1.00  0.00     0.030 A 
HETATM    4  C   UNL     1      45.583 -10.057   8.558  1.00  0.00     0.063 A 
HETATM    5  N   UNL     1      45.906  -9.169   9.545  1.00  0.00    -0.277 N 
HETATM    6  H   UNL     1      46.670  -8.502   9.545  1.00  0.00     0.189 HD
HETATM    7  N   UNL     1      45.103  -9.215  10.621  1.00  0.00    -0.168 NA
HETATM    8  C   UNL     1      44.209 -10.184  10.317  1.00  0.00     0.156 A 
HETATM    9  C   UNL     1      46.165 -10.309   7.315  1.00  0.00     0.034 A 
HETATM   10  C   UNL     1      45.580 -11.313   6.533  1.00  0.00     0.032 A 
ENDROOT
BRANCH   1  11
HETATM   11  N   UNL     1      43.976 -13.037   6.096  1.00  0.00    -0.324 N 
HETATM   12  C   UNL     1      42.676 -13.219   5.666  1.00  0.00     0.245 C 
HETATM   13  O   UNL     1      41.707 -12.517   5.917  1.00  0.00    -0.268 OA
HETATM   14  H   UNL     1      44.665 -13.703   5.777  1.00  0.00     0.169 HD
BRANCH  12  15
HETATM   15  C   UNL     1      42.538 -14.442   4.822  1.00  0.00     0.075 C 
HETATM   16  C   UNL     1      43.414 -15.449   4.965  1.00  0.00     0.017 C 
BRANCH  16  17
HETATM   17  C   UNL     1      43.387 -16.688   4.177  1.00  0.00    -0.036 A 
HETATM   18  C   UNL     1      42.659 -16.805   2.984  1.00  0.00     0.013 A 
HETATM   19  C   UNL     1      42.697 -17.989   2.241  1.00  0.00     0.024 A 
HETATM   20  C   UNL     1      43.473 -19.059   2.680  1.00  0.00     0.034 A 
HETATM   21  C   UNL     1      44.213 -18.954   3.854  1.00  0.00     0.024 A 
HETATM   22 CL   UNL     1      43.523 -20.512   1.760  1.00  0.00    -0.084 Cl
HETATM   23  C   UNL     1      44.175 -17.770   4.597  1.00  0.00     0.013 A 
ENDBRANCH  16  17
ENDBRANCH  12  15
ENDBRANCH   1  11
BRANCH   8  24
HETATM   24  C   UNL     1      43.140 -10.552  11.255  1.00  0.00     0.270 C 
HETATM   25  N   UNL     1      43.486 -11.540  12.136  1.00  0.00    -0.365 N 
HETATM   26  H   UNL     1      44.417 -11.936  12.080  1.00  0.00     0.159 HD
HETATM   27  H   UNL     1      42.814 -11.860  12.815  1.00  0.00     0.159 HD
HETATM   28  O   UNL     1      42.025 -10.044  11.280  1.00  0.00    -0.266 OA
ENDBRANCH   8  24
TORSDOF 4
ENDMDL
MODEL 2
REMARK VINA RESULT:      -8.4      6.742      8.817
REMARK  4 active torsions:
REMARK  status: ('A' for Active; 'I' for Inactive)
REMARK    1  A    between atoms: C_2  and  C_3 
REMARK    2  A    between atoms: C_4  and  C_5 
REMARK       I    between atoms: C_5  and  N_6 
REMARK    3  A    between atoms: N_6  and  C_7 
REMARK    4  A    between atoms: C_14  and  C_15 
REMARK       I    between atoms: C_15  and  N_16 
ROOT
HETATM    1  C   UNL     1      40.671 -13.537  -0.613  1.00  0.00     0.035 A 
HETATM    2  C   UNL     1      41.201 -12.244  -0.499  1.00  0.00     0.046 A 
HETATM    3  C   UNL     1      40.935 -11.289  -1.505  1.00  0.00     0.030 A 
HETATM    4  C   UNL     1      40.145 -11.657  -2.586  1.00  0.00     0.063 A 
HETATM    5  N   UNL     1      40.072 -10.545  -3.377  1.00  0.00    -0.277 N 
HETATM    6  H   UNL     1      39.576 -10.449  -4.256  1.00  0.00     0.189 HD
HETATM    7  N   UNL     1      40.746  -9.482  -2.908  1.00  0.00    -0.168 NA
HETATM    8  C   UNL     1      41.286  -9.926  -1.750  1.00  0.00     0.156 A 
HETATM    9  C   UNL     1      39.595 -12.931  -2.730  1.00  0.00     0.034 A 
HETATM   10  C   UNL     1      39.877 -13.860  -1.721  1.00  0.00     0.032 A 
ENDROOT
BRANCH   1  11
HETATM   11  N   UNL     1      40.902 -14.569   0.325  1.00  0.00    -0.324 N 
HETATM   12  C   UNL     1      40.340 -14.702   1.579  1.00  0.00     0.245 C 
HETATM   13  O   UNL     1      39.499 -13.981   2.096  1.00  0.00    -0.268 OA
HETATM   14  H   UNL     1      41.573 -15.269   0.043  1.00  0.00     0.169 HD
BRANCH  12  15
HETATM   15  C   UNL     1      40.896 -15.876   2.314  1.00  0.00     0.075 C 
HETATM   16  C   UNL     1      42.225 -16.062   2.356  1.00  0.00     0.017 C 
BRANCH  16  17
HETATM   17  C   UNL     1      42.883 -17.189   3.030  1.00  0.00    -0.036 A 
HETATM   18  C   UNL     1      43.250 -17.145   4.383  1.00  0.00     0.013 A 
HETATM   19  C   UNL     1      43.834 -18.256   4.998  1.00  0.00     0.024 A 
HETATM   20  C   UNL     1      44.045 -19.423   4.267  1.00  0.00     0.034 A 
HETATM   21  C   UNL     1      43.674 -19.488   2.927  1.00  0.00     0.024 A 
HETATM   22 CL   UNL     1      44.758 -20.791   5.028  1.00  0.00    -0.084 Cl
HETATM   23  C   UNL     1      43.089 -18.376   2.313  1.00  0.00     0.013 A 
ENDBRANCH  16  17
ENDBRANCH  12  15
ENDBRANCH   1  11
BRANCH   8  24
HETATM   24  C   UNL     1      42.118  -9.048  -0.915  1.00  0.00     0.270 C 
HETATM   25  N   UNL     1      41.557  -8.730   0.292  1.00  0.00    -0.365 N 
HETATM   26  H   UNL     1      40.642  -9.105   0.516  1.00  0.00     0.159 HD
HETATM   27  H   UNL     1      42.054  -8.129   0.930  1.00  0.00     0.159 HD
HETATM   28  O   UNL     1      43.220  -8.617  -1.234  1.00  0.00    -0.266 OA
ENDBRANCH   8  24
TORSDOF 4
ENDMDL
MODEL 3
REMARK VINA RESULT:      -8.3      1.815      1.835
REMARK  4 active torsions:
REMARK  status: ('A' for Active; 'I' for Inactive)
REMARK    1  A    between atoms: C_2  and  C_3 
REMARK    2  A    between atoms: C_4  and  C_5 
REMARK       I    between atoms: C_5  and  N_6 
REMARK    3  A    between atoms: N_6  and  C_7 
REMARK    4  A    between atoms: C_14  and  C_15 
REMARK       I    between atoms: C_15  and  N_16 
ROOT
HETATM    1  C   UNL     1      44.148 -11.686   6.740  1.00  0.00     0.035 A 
HETATM    2  C   UNL     1      43.219 -10.821   7.334  1.00  0.00     0.046 A 
HETATM    3  C   UNL     1      43.674  -9.691   8.050  1.00  0.00     0.030 A 
HETATM    4  C   UNL     1      45.041  -9.463   8.142  1.00  0.00     0.063 A 
HETATM    5  N   UNL     1      45.169  -8.322   8.883  1.00  0.00    -0.277 N 
HETATM    6  H   UNL     1      46.029  -7.858   9.153  1.00  0.00     0.189 HD
HETATM    7  N   UNL     1      44.005  -7.784   9.285  1.00  0.00    -0.168 NA
HETATM    8  C   UNL     1      43.070  -8.620   8.777  1.00  0.00     0.156 A 
HETATM    9  C   UNL     1      45.995 -10.297   7.557  1.00  0.00     0.034 A 
HETATM   10  C   UNL     1      45.518 -11.412   6.857  1.00  0.00     0.032 A 
ENDROOT
BRANCH   1  11
HETATM   11  N   UNL     1      43.794 -12.854   6.028  1.00  0.00    -0.324 N 
HETATM   12  C   UNL     1      43.464 -14.088   6.551  1.00  0.00     0.245 C 
HETATM   13  O   UNL     1      43.367 -14.390   7.732  1.00  0.00    -0.268 OA
HETATM   14  H   UNL     1      43.810 -12.769   5.021  1.00  0.00     0.169 HD
BRANCH  12  15
HETATM   15  C   UNL     1      43.236 -15.102   5.481  1.00  0.00     0.075 C 
HETATM   16  C   UNL     1      43.865 -16.286   5.544  1.00  0.00     0.017 C 
BRANCH  16  17
HETATM   17  C   UNL     1      43.733 -17.350   4.540  1.00  0.00    -0.036 A 
HETATM   18  C   UNL     1      43.241 -17.107   3.250  1.00  0.00     0.013 A 
HETATM   19  C   UNL     1      43.173 -18.140   2.309  1.00  0.00     0.024 A 
HETATM   20  C   UNL     1      43.608 -19.418   2.649  1.00  0.00     0.034 A 
HETATM   21  C   UNL     1      44.113 -19.673   3.922  1.00  0.00     0.024 A 
HETATM   22 CL   UNL     1      43.530 -20.685   1.489  1.00  0.00    -0.084 Cl
HETATM   23  C   UNL     1      44.181 -18.639   4.862  1.00  0.00     0.013 A 
ENDBRANCH  16  17
ENDBRANCH  12  15
ENDBRANCH   1  11
BRANCH   8  24
HETATM   24  C   UNL     1      41.637  -8.381   8.999  1.00  0.00     0.270 C 
HETATM   25  N   UNL     1      40.957  -9.468   9.476  1.00  0.00    -0.365 N 
HETATM   26  H   UNL     1      41.467 -10.329   9.634  1.00  0.00     0.159 HD
HETATM   27  H   UNL     1      39.968  -9.397   9.655  1.00  0.00     0.159 HD
HETATM   28  O   UNL     1      41.065  -7.317   8.789  1.00  0.00    -0.266 OA
ENDBRANCH   8  24
TORSDOF 4
ENDMDL
MODEL 4
REMARK VINA RESULT:      -8.1      7.201      9.392
REMARK  4 active torsions:
REMARK  status: ('A' for Active; 'I' for Inactive)
REMARK    1  A    between atoms: C_2  and  C_3 
REMARK    2  A    between atoms: C_4  and  C_5 
REMARK       I    between atoms: C_5  and  N_6 
REMARK    3  A    between atoms: N_6  and  C_7 
REMARK    4  A    between atoms: C_14  and  C_15 
REMARK       I    between atoms: C_15  and  N_16 
ROOT
HETATM    1  C   UNL     1      39.436 -13.887  -0.663  1.00  0.00     0.035 A 
HETATM    2  C   UNL     1      38.831 -12.667  -0.329  1.00  0.00     0.046 A 
HETATM    3  C   UNL     1      38.336 -11.829  -1.354  1.00  0.00     0.030 A 
HETATM    4  C   UNL     1      38.459 -12.242  -2.675  1.00  0.00     0.063 A 
HETATM    5  N   UNL     1      37.904 -11.240  -3.421  1.00  0.00    -0.277 N 
HETATM    6  H   UNL     1      37.821 -11.201  -4.430  1.00  0.00     0.189 HD
HETATM    7  N   UNL     1      37.430 -10.208  -2.704  1.00  0.00    -0.168 NA
HETATM    8  C   UNL     1      37.690 -10.557  -1.422  1.00  0.00     0.156 A 
HETATM    9  C   UNL     1      39.048 -13.452  -3.044  1.00  0.00     0.034 A 
HETATM   10  C   UNL     1      39.534 -14.262  -2.010  1.00  0.00     0.032 A 
ENDROOT
BRANCH   1  11
HETATM   11  N   UNL     1      39.984 -14.780   0.285  1.00  0.00    -0.324 N 
HETATM   12  C   UNL     1      41.132 -14.608   1.033  1.00  0.00     0.245 C 
HETATM   13  O   UNL     1      41.864 -13.629   1.053  1.00  0.00    -0.268 OA
HETATM   14  H   UNL     1      39.482 -15.648   0.403  1.00  0.00     0.169 HD
BRANCH  12  15
HETATM   15  C   UNL     1      41.438 -15.810   1.862  1.00  0.00     0.075 C 
HETATM   16  C   UNL     1      42.709 -16.223   1.987  1.00  0.00     0.017 C 
BRANCH  16  17
HETATM   17  C   UNL     1      43.126 -17.401   2.759  1.00  0.00    -0.036 A 
HETATM   18  C   UNL     1      43.187 -18.685   2.197  1.00  0.00     0.013 A 
HETATM   19  C   UNL     1      43.632 -19.772   2.954  1.00  0.00     0.024 A 
HETATM   20  C   UNL     1      44.031 -19.581   4.275  1.00  0.00     0.034 A 
HETATM   21  C   UNL     1      43.990 -18.311   4.844  1.00  0.00     0.024 A 
HETATM   22 CL   UNL     1      44.585 -20.919   5.203  1.00  0.00    -0.084 Cl
HETATM   23  C   UNL     1      43.545 -17.224   4.085  1.00  0.00     0.013 A 
ENDBRANCH  16  17
ENDBRANCH  12  15
ENDBRANCH   1  11
BRANCH   8  24
HETATM   24  C   UNL     1      37.321  -9.676  -0.306  1.00  0.00     0.270 C 
HETATM   25  N   UNL     1      36.274 -10.135   0.445  1.00  0.00    -0.365 N 
HETATM   26  H   UNL     1      35.841 -11.015   0.189  1.00  0.00     0.159 HD
HETATM   27  H   UNL     1      35.949  -9.594   1.231  1.00  0.00     0.159 HD
HETATM   28  O   UNL     1      37.875  -8.616  -0.039  1.00  0.00    -0.266 OA
ENDBRANCH   8  24
TORSDOF 4
ENDMDL
MODEL 5
REMARK VINA RESULT:      -8.1      5.640      8.280
REMARK  4 active torsions:
REMARK  status: ('A' for Active; 'I' for Inactive)
REMARK    1  A    between atoms: C_2  and  C_3 
REMARK    2  A    between atoms: C_4  and  C_5 
REMARK       I    between atoms: C_5  and  N_6 
REMARK    3  A    between atoms: N_6  and  C_7 
REMARK    4  A    between atoms: C_14  and  C_15 
REMARK       I    between atoms: C_15  and  N_16 
ROOT
HETATM    1  C   UNL     1      42.488 -16.246   2.523  1.00  0.00     0.035 A 
HETATM    2  C   UNL     1      42.291 -16.044   3.896  1.00  0.00     0.046 A 
HETATM    3  C   UNL     1      42.816 -16.974   4.821  1.00  0.00     0.030 A 
HETATM    4  C   UNL     1      43.522 -18.070   4.342  1.00  0.00     0.063 A 
HETATM    5  N   UNL     1      43.892 -18.776   5.452  1.00  0.00    -0.277 N 
HETATM    6  H   UNL     1      44.423 -19.640   5.481  1.00  0.00     0.189 HD
HETATM    7  N   UNL     1      43.489 -18.239   6.615  1.00  0.00    -0.168 NA
HETATM    8  C   UNL     1      42.822 -17.123   6.242  1.00  0.00     0.156 A 
HETATM    9  C   UNL     1      43.744 -18.300   2.984  1.00  0.00     0.034 A 
HETATM   10  C   UNL     1      43.210 -17.365   2.087  1.00  0.00     0.032 A 
ENDROOT
BRANCH   1  11
HETATM   11  N   UNL     1      41.981 -15.389   1.520  1.00  0.00    -0.324 N 
HETATM   12  C   UNL     1      40.662 -15.219   1.150  1.00  0.00     0.245 C 
HETATM   13  O   UNL     1      39.678 -15.740   1.654  1.00  0.00    -0.268 OA
HETATM   14  H   UNL     1      42.676 -14.864   1.008  1.00  0.00     0.169 HD
BRANCH  12  15
HETATM   15  C   UNL     1      40.527 -14.293  -0.011  1.00  0.00     0.075 C 
HETATM   16  C   UNL     1      40.966 -13.029   0.094  1.00  0.00     0.017 C 
BRANCH  16  17
HETATM   17  C   UNL     1      40.868 -12.025  -0.974  1.00  0.00    -0.036 A 
HETATM   18  C   UNL     1      40.854 -10.648  -0.710  1.00  0.00     0.013 A 
HETATM   19  C   UNL     1      40.804  -9.723  -1.759  1.00  0.00     0.024 A 
HETATM   20  C   UNL     1      40.781 -10.171  -3.077  1.00  0.00     0.034 A 
HETATM   21  C   UNL     1      40.809 -11.534  -3.357  1.00  0.00     0.024 A 
HETATM   22 CL   UNL     1      40.727  -9.033  -4.366  1.00  0.00    -0.084 Cl
HETATM   23  C   UNL     1      40.859 -12.458  -2.308  1.00  0.00     0.013 A 
ENDBRANCH  16  17
ENDBRANCH  12  15
ENDBRANCH   1  11
BRANCH   8  24
HETATM   24  C   UNL     1      42.209 -16.236   7.241  1.00  0.00     0.270 C 
HETATM   25  N   UNL     1      43.060 -15.848   8.240  1.00  0.00    -0.365 N 
HETATM   26  H   UNL     1      44.014 -16.188   8.223  1.00  0.00     0.159 HD
HETATM   27  H   UNL     1      42.725 -15.242   8.971  1.00  0.00     0.159 HD
HETATM   28  O   UNL     1      41.044 -15.855   7.217  1.00  0.00    -0.266 OA
ENDBRANCH   8  24
TORSDOF 4
ENDMDL
MODEL 6
REMARK VINA RESULT:      -7.9      4.785      9.390
REMARK  4 active torsions:
REMARK  status: ('A' for Active; 'I' for Inactive)
REMARK    1  A    between atoms: C_2  and  C_3 
REMARK    2  A    between atoms: C_4  and  C_5 
REMARK       I    between atoms: C_5  and  N_6 
REMARK    3  A    between atoms: N_6  and  C_7 
REMARK    4  A    between atoms: C_14  and  C_15 
REMARK       I    between atoms: C_15  and  N_16 
ROOT
HETATM    1  C   UNL     1      43.296 -15.721   4.100  1.00  0.00     0.035 A 
HETATM    2  C   UNL     1      43.514 -16.977   4.684  1.00  0.00     0.046 A 
HETATM    3  C   UNL     1      43.533 -18.132   3.871  1.00  0.00     0.030 A 
HETATM    4  C   UNL     1      43.337 -17.992   2.503  1.00  0.00     0.063 A 
HETATM    5  N   UNL     1      43.404 -19.258   1.995  1.00  0.00    -0.277 N 
HETATM    6  H   UNL     1      43.304 -19.537   1.025  1.00  0.00     0.189 HD
HETATM    7  N   UNL     1      43.625 -20.216   2.911  1.00  0.00    -0.168 NA
HETATM    8  C   UNL     1      43.707 -19.535   4.077  1.00  0.00     0.156 A 
HETATM    9  C   UNL     1      43.125 -16.758   1.885  1.00  0.00     0.034 A 
HETATM   10  C   UNL     1      43.107 -15.630   2.714  1.00  0.00     0.032 A 
ENDROOT
BRANCH   1  11
HETATM   11  N   UNL     1      43.233 -14.513   4.830  1.00  0.00    -0.324 N 
HETATM   12  C   UNL     1      43.637 -14.298   6.132  1.00  0.00     0.245 C 
HETATM   13  O   UNL     1      44.173 -15.100   6.884  1.00  0.00    -0.268 OA
HETATM   14  H   UNL     1      42.822 -13.732   4.339  1.00  0.00     0.169 HD
BRANCH  12  15
HETATM   15  C   UNL     1      43.329 -12.911   6.587  1.00  0.00     0.075 C 
HETATM   16  C   UNL     1      44.314 -12.139   7.073  1.00  0.00     0.017 C 
BRANCH  16  17
HETATM   17  C   UNL     1      44.126 -10.768   7.567  1.00  0.00    -0.036 A 
HETATM   18  C   UNL     1      42.882 -10.122   7.534  1.00  0.00     0.013 A 
HETATM   19  C   UNL     1      42.736  -8.833   8.055  1.00  0.00     0.024 A 
HETATM   20  C   UNL     1      43.830  -8.187   8.624  1.00  0.00     0.034 A 
HETATM   21  C   UNL     1      45.069  -8.820   8.678  1.00  0.00     0.024 A 
HETATM   22 CL   UNL     1      43.647  -6.604   9.271  1.00  0.00    -0.084 Cl
HETATM   23  C   UNL     1      45.214 -10.109   8.156  1.00  0.00     0.013 A 
ENDBRANCH  16  17
ENDBRANCH  12  15
ENDBRANCH   1  11
BRANCH   8  24
HETATM   24  C   UNL     1      43.944 -20.233   5.348  1.00  0.00     0.270 C 
HETATM   25  N   UNL     1      44.764 -21.323   5.241  1.00  0.00    -0.365 N 
HETATM   26  H   UNL     1      45.134 -21.565   4.329  1.00  0.00     0.159 HD
HETATM   27  H   UNL     1      44.981 -21.867   6.062  1.00  0.00     0.159 HD
HETATM   28  O   UNL     1      43.469 -19.902   6.428  1.00  0.00    -0.266 OA
ENDBRANCH   8  24
TORSDOF 4
ENDMDL
MODEL 7
REMARK VINA RESULT:      -7.7      4.576      9.154
REMARK  4 active torsions:
REMARK  status: ('A' for Active; 'I' for Inactive)
REMARK    1  A    between atoms: C_2  and  C_3 
REMARK    2  A    between atoms: C_4  and  C_5 
REMARK       I    between atoms: C_5  and  N_6 
REMARK    3  A    between atoms: N_6  and  C_7 
REMARK    4  A    between atoms: C_14  and  C_15 
REMARK       I    between atoms: C_15  and  N_16 
ROOT
HETATM    1  C   UNL     1      43.089 -13.752   4.838  1.00  0.00     0.035 A 
HETATM    2  C   UNL     1      43.294 -15.089   5.206  1.00  0.00     0.046 A 
HETATM    3  C   UNL     1      43.324 -16.091   4.209  1.00  0.00     0.030 A 
HETATM    4  C   UNL     1      43.154 -15.721   2.881  1.00  0.00     0.063 A 
HETATM    5  N   UNL     1      43.227 -16.884   2.169  1.00  0.00    -0.277 N 
HETATM    6  H   UNL     1      43.143 -16.995   1.164  1.00  0.00     0.189 HD
HETATM    7  N   UNL     1      43.428 -17.983   2.914  1.00  0.00    -0.168 NA
HETATM    8  C   UNL     1      43.491 -17.509   4.180  1.00  0.00     0.156 A 
HETATM    9  C   UNL     1      42.956 -14.400   2.477  1.00  0.00     0.034 A 
HETATM   10  C   UNL     1      42.926 -13.427   3.484  1.00  0.00     0.032 A 
ENDROOT
BRANCH   1  11
HETATM   11  N   UNL     1      43.017 -12.684   5.760  1.00  0.00    -0.324 N 
HETATM   12  C   UNL     1      43.851 -11.588   5.841  1.00  0.00     0.245 C 
HETATM   13  O   UNL     1      44.782 -11.307   5.098  1.00  0.00    -0.268 OA
HETATM   14  H   UNL     1      42.279 -12.754   6.447  1.00  0.00     0.169 HD
BRANCH  12  15
HETATM   15  C   UNL     1      43.512 -10.717   7.004  1.00  0.00     0.075 C 
HETATM   16  C   UNL     1      44.218 -10.824   8.141  1.00  0.00     0.017 C 
BRANCH  16  17
HETATM   17  C   UNL     1      43.962 -10.036   9.353  1.00  0.00    -0.036 A 
HETATM   18  C   UNL     1      43.785  -8.645   9.321  1.00  0.00     0.013 A 
HETATM   19  C   UNL     1      43.498  -7.937  10.493  1.00  0.00     0.024 A 
HETATM   20  C   UNL     1      43.376  -8.618  11.702  1.00  0.00     0.034 A 
HETATM   21  C   UNL     1      43.535 -10.000  11.749  1.00  0.00     0.024 A 
HETATM   22 CL   UNL     1      43.017  -7.746  13.141  1.00  0.00    -0.084 Cl
HETATM   23  C   UNL     1      43.821 -10.707  10.576  1.00  0.00     0.013 A 
ENDBRANCH  16  17
ENDBRANCH  12  15
ENDBRANCH   1  11
BRANCH   8  24
HETATM   24  C   UNL     1      43.703 -18.413   5.318  1.00  0.00     0.270 C 
HETATM   25  N   UNL     1      44.302 -19.598   4.987  1.00  0.00    -0.365 N 
HETATM   26  H   UNL     1      44.546 -19.764   4.017  1.00  0.00     0.159 HD
HETATM   27  H   UNL     1      44.484 -20.282   5.703  1.00  0.00     0.159 HD
HETATM   28  O   UNL     1      43.387 -18.166   6.477  1.00  0.00    -0.266 OA
ENDBRANCH   8  24
TORSDOF 4
ENDMDL
MODEL 8
REMARK VINA RESULT:      -7.6      5.799      8.317
REMARK  4 active torsions:
REMARK  status: ('A' for Active; 'I' for Inactive)
REMARK    1  A    between atoms: C_2  and  C_3 
REMARK    2  A    between atoms: C_4  and  C_5 
REMARK       I    between atoms: C_5  and  N_6 
REMARK    3  A    between atoms: N_6  and  C_7 
REMARK    4  A    between atoms: C_14  and  C_15 
REMARK       I    between atoms: C_15  and  N_16 
ROOT
HETATM    1  C   UNL     1      42.032 -15.604   2.514  1.00  0.00     0.035 A 
HETATM    2  C   UNL     1      41.995 -15.632   3.915  1.00  0.00     0.046 A 
HETATM    3  C   UNL     1      42.692 -16.645   4.611  1.00  0.00     0.030 A 
HETATM    4  C   UNL     1      43.404 -17.590   3.884  1.00  0.00     0.063 A 
HETATM    5  N   UNL     1      43.957 -18.424   4.815  1.00  0.00    -0.277 N 
HETATM    6  H   UNL     1      44.543 -19.233   4.644  1.00  0.00     0.189 HD
HETATM    7  N   UNL     1      43.667 -18.108   6.088  1.00  0.00    -0.168 NA
HETATM    8  C   UNL     1      42.885 -17.009   5.979  1.00  0.00     0.156 A 
HETATM    9  C   UNL     1      43.470 -17.589   2.490  1.00  0.00     0.034 A 
HETATM   10  C   UNL     1      42.768 -16.577   1.824  1.00  0.00     0.032 A 
ENDROOT
BRANCH   1  11
HETATM   11  N   UNL     1      41.348 -14.649   1.727  1.00  0.00    -0.324 N 
HETATM   12  C   UNL     1      41.624 -13.302   1.615  1.00  0.00     0.245 C 
HETATM   13  O   UNL     1      42.545 -12.688   2.136  1.00  0.00    -0.268 OA
HETATM   14  H   UNL     1      40.555 -15.003   1.211  1.00  0.00     0.169 HD
BRANCH  12  15
HETATM   15  C   UNL     1      40.626 -12.600   0.757  1.00  0.00     0.075 C 
HETATM   16  C   UNL     1      39.860 -13.311  -0.086  1.00  0.00     0.017 C 
BRANCH  16  17
HETATM   17  C   UNL     1      38.861 -12.728  -0.991  1.00  0.00    -0.036 A 
HETATM   18  C   UNL     1      38.169 -13.494  -1.939  1.00  0.00     0.013 A 
HETATM   19  C   UNL     1      37.192 -12.909  -2.751  1.00  0.00     0.024 A 
HETATM   20  C   UNL     1      36.893 -11.556  -2.611  1.00  0.00     0.034 A 
HETATM   21  C   UNL     1      37.561 -10.784  -1.664  1.00  0.00     0.024 A 
HETATM   22 CL   UNL     1      35.687 -10.839  -3.606  1.00  0.00    -0.084 Cl
HETATM   23  C   UNL     1      38.537 -11.370  -0.852  1.00  0.00     0.013 A 
ENDBRANCH  16  17
ENDBRANCH  12  15
ENDBRANCH   1  11
BRANCH   8  24
HETATM   24  C   UNL     1      42.343 -16.342   7.171  1.00  0.00     0.270 C 
HETATM   25  N   UNL     1      43.247 -16.195   8.188  1.00  0.00    -0.365 N 
HETATM   26  H   UNL     1      44.189 -16.545   8.054  1.00  0.00     0.159 HD
HETATM   27  H   UNL     1      42.964 -15.751   9.046  1.00  0.00     0.159 HD
HETATM   28  O   UNL     1      41.191 -15.939   7.285  1.00  0.00    -0.266 OA
ENDBRANCH   8  24
TORSDOF 4
ENDMDL
MODEL 9
REMARK VINA RESULT:      -7.6      4.660      9.569
REMARK  4 active torsions:
REMARK  status: ('A' for Active; 'I' for Inactive)
REMARK    1  A    between atoms: C_2  and  C_3 
REMARK    2  A    between atoms: C_4  and  C_5 
REMARK       I    between atoms: C_5  and  N_6 
REMARK    3  A    between atoms: N_6  and  C_7 
REMARK    4  A    between atoms: C_14  and  C_15 
REMARK       I    between atoms: C_15  and  N_16 
ROOT
HETATM    1  C   UNL     1      42.940 -13.817   6.039  1.00  0.00     0.035 A 
HETATM    2  C   UNL     1      42.202 -14.041   4.869  1.00  0.00     0.046 A 
HETATM    3  C   UNL     1      42.290 -15.291   4.216  1.00  0.00     0.030 A 
HETATM    4  C   UNL     1      43.109 -16.273   4.757  1.00  0.00     0.063 A 
HETATM    5  N   UNL     1      42.992 -17.345   3.918  1.00  0.00    -0.277 N 
HETATM    6  H   UNL     1      43.454 -18.244   4.002  1.00  0.00     0.189 HD
HETATM    7  N   UNL     1      42.169 -17.150   2.874  1.00  0.00    -0.168 NA
HETATM    8  C   UNL     1      41.726 -15.883   3.044  1.00  0.00     0.156 A 
HETATM    9  C   UNL     1      43.853 -16.089   5.923  1.00  0.00     0.034 A 
HETATM   10  C   UNL     1      43.751 -14.840   6.549  1.00  0.00     0.032 A 
ENDROOT
BRANCH   1  11
HETATM   11  N   UNL     1      42.940 -12.595   6.749  1.00  0.00    -0.324 N 
HETATM   12  C   UNL     1      44.025 -11.791   7.035  1.00  0.00     0.245 C 
HETATM   13  O   UNL     1      45.185 -11.958   6.685  1.00  0.00    -0.268 OA
HETATM   14  H   UNL     1      42.041 -12.299   7.101  1.00  0.00     0.169 HD
BRANCH  12  15
HETATM   15  C   UNL     1      43.643 -10.625   7.883  1.00  0.00     0.075 C 
HETATM   16  C   UNL     1      43.960 -10.621   9.188  1.00  0.00     0.017 C 
BRANCH  16  17
HETATM   17  C   UNL     1      43.619  -9.540  10.121  1.00  0.00    -0.036 A 
HETATM   18  C   UNL     1      43.301  -8.245   9.686  1.00  0.00     0.013 A 
HETATM   19  C   UNL     1      42.937  -7.255  10.605  1.00  0.00     0.024 A 
HETATM   20  C   UNL     1      42.878  -7.558  11.963  1.00  0.00     0.034 A 
HETATM   21  C   UNL     1      43.177  -8.842  12.410  1.00  0.00     0.024 A 
HETATM   22 CL   UNL     1      42.425  -6.341  13.091  1.00  0.00    -0.084 Cl
HETATM   23  C   UNL     1      43.540  -9.831  11.490  1.00  0.00     0.013 A 
ENDBRANCH  16  17
ENDBRANCH  12  15
ENDBRANCH   1  11
BRANCH   8  24
HETATM   24  C   UNL     1      40.788 -15.273   2.092  1.00  0.00     0.270 C 
HETATM   25  N   UNL     1      39.492 -15.236   2.531  1.00  0.00    -0.365 N 
HETATM   26  H   UNL     1      39.278 -15.618   3.444  1.00  0.00     0.159 HD
HETATM   27  H   UNL     1      38.778 -14.838   1.942  1.00  0.00     0.159 HD
HETATM   28  O   UNL     1      41.097 -14.826   0.993  1.00  0.00    -0.266 OA
ENDBRANCH   8  24
TORSDOF 4
ENDMDL
MODEL 10
REMARK VINA RESULT:      -7.5      2.400      2.915
REMARK  4 active torsions:
REMARK  status: ('A' for Active; 'I' for Inactive)
REMARK    1  A    between atoms: C_2  and  C_3 
REMARK    2  A    between atoms: C_4  and  C_5 
REMARK       I    between atoms: C_5  and  N_6 
REMARK    3  A    between atoms: N_6  and  C_7 
REMARK    4  A    between atoms: C_14  and  C_15 
REMARK       I    between atoms: C_15  and  N_16 
ROOT
HETATM    1  C   UNL     1      41.925 -11.296   5.998  1.00  0.00     0.035 A 
HETATM    2  C   UNL     1      42.810 -10.777   6.953  1.00  0.00     0.046 A 
HETATM    3  C   UNL     1      42.798  -9.393   7.238  1.00  0.00     0.030 A 
HETATM    4  C   UNL     1      41.900  -8.577   6.561  1.00  0.00     0.063 A 
HETATM    5  N   UNL     1      42.125  -7.316   7.037  1.00  0.00    -0.277 N 
HETATM    6  H   UNL     1      41.649  -6.463   6.764  1.00  0.00     0.189 HD
HETATM    7  N   UNL     1      43.092  -7.235   7.966  1.00  0.00    -0.168 NA
HETATM    8  C   UNL     1      43.519  -8.512   8.101  1.00  0.00     0.156 A 
HETATM    9  C   UNL     1      41.000  -9.059   5.609  1.00  0.00     0.034 A 
HETATM   10  C   UNL     1      41.035 -10.433   5.343  1.00  0.00     0.032 A 
ENDROOT
BRANCH   1  11
HETATM   11  N   UNL     1      41.879 -12.658   5.625  1.00  0.00    -0.324 N 
HETATM   12  C   UNL     1      40.902 -13.581   5.942  1.00  0.00     0.245 C 
HETATM   13  O   UNL     1      39.868 -13.383   6.563  1.00  0.00    -0.268 OA
HETATM   14  H   UNL     1      42.667 -12.986   5.084  1.00  0.00     0.169 HD
BRANCH  12  15
HETATM   15  C   UNL     1      41.246 -14.944   5.443  1.00  0.00     0.075 C 
HETATM   16  C   UNL     1      42.191 -15.087   4.501  1.00  0.00     0.017 C 
BRANCH  16  17
HETATM   17  C   UNL     1      42.597 -16.375   3.921  1.00  0.00    -0.036 A 
HETATM   18  C   UNL     1      42.179 -16.791   2.649  1.00  0.00     0.013 A 
HETATM   19  C   UNL     1      42.625 -18.004   2.116  1.00  0.00     0.024 A 
HETATM   20  C   UNL     1      43.500 -18.803   2.847  1.00  0.00     0.034 A 
HETATM   21  C   UNL     1      43.936 -18.398   4.105  1.00  0.00     0.024 A 
HETATM   22 CL   UNL     1      44.052 -20.292   2.187  1.00  0.00    -0.084 Cl
HETATM   23  C   UNL     1      43.490 -17.184   4.638  1.00  0.00     0.013 A 
ENDBRANCH  16  17
ENDBRANCH  12  15
ENDBRANCH   1  11
BRANCH   8  24
HETATM   24  C   UNL     1      44.596  -8.856   9.040  1.00  0.00     0.270 C 
HETATM   25  N   UNL     1      45.837  -8.917   8.467  1.00  0.00    -0.365 N 
HETATM   26  H   UNL     1      45.923  -8.731   7.475  1.00  0.00     0.159 HD
HETATM   27  H   UNL     1      46.637  -9.150   9.034  1.00  0.00     0.159 HD
HETATM   28  O   UNL     1      44.439  -9.077  10.235  1.00  0.00    -0.266 OA
ENDBRANCH   8  24
TORSDOF 4
ENDMDL
