MODEL 1
REMARK VINA RESULT:      -8.8      0.000      0.000
REMARK  10 active torsions:
REMARK  status: ('A' for Active; 'I' for Inactive)
REMARK    1  A    between atoms: O_2  and  C_3 
REMARK    2  A    between atoms: C_6  and  C_7 
REMARK    3  A    between atoms: C_7  and  C_8 
REMARK    4  A    between atoms: C_8  and  N_9 
REMARK    5  A    between atoms: N_12  and  C_13 
REMARK    6  A    between atoms: C_16  and  O_17 
REMARK    7  A    between atoms: C_23  and  C_24 
REMARK    8  A    between atoms: C_24  and  C_25 
REMARK       I    between atoms: C_25  and  N_26 
REMARK    9  A    between atoms: N_26  and  C_27 
REMARK   10  A    between atoms: C_30  and  O_31 
ROOT
HETATM    1  N   UNL     1      42.064 -14.319   5.730  1.00  0.00    -0.319 N 
HETATM    2  C   UNL     1      41.320 -14.721   4.612  1.00  0.00     0.332 C 
HETATM    3  O   UNL     1      40.523 -15.646   4.652  1.00  0.00    -0.246 OA
HETATM    4  N   UNL     1      41.710 -13.960   3.529  1.00  0.00    -0.232 N 
HETATM    5  C   UNL     1      42.845 -13.271   3.876  1.00  0.00     0.256 C 
HETATM    6  O   UNL     1      43.625 -12.646   3.162  1.00  0.00    -0.270 OA
HETATM    7  C   UNL     1      43.027 -13.291   5.389  1.00  0.00     0.190 C 
ENDROOT
BRANCH   7   8
HETATM    8  C   UNL     1      42.625 -11.912   5.909  1.00  0.00     0.138 C 
BRANCH   8   9
HETATM    9  C   UNL     1      43.289 -11.503   7.215  1.00  0.00     0.224 C 
HETATM   10  N   UNL     1      42.922 -10.263   7.695  1.00  0.00    -0.327 N 
HETATM   11  H   UNL     1      42.427  -9.624   7.072  1.00  0.00     0.169 HD
HETATM   12  O   UNL     1      44.040 -12.292   7.783  1.00  0.00    -0.273 OA
BRANCH  10  13
HETATM   13  C   UNL     1      43.149  -9.740   8.983  1.00  0.00     0.034 A 
HETATM   14  C   UNL     1      42.024  -9.340   9.713  1.00  0.00     0.032 A 
HETATM   15  C   UNL     1      42.158  -8.872  11.022  1.00  0.00     0.039 A 
HETATM   16  C   UNL     1      43.410  -8.842  11.633  1.00  0.00     0.068 A 
HETATM   17  C   UNL     1      44.537  -9.221  10.905  1.00  0.00     0.039 A 
HETATM   18  C   UNL     1      44.408  -9.662   9.581  1.00  0.00     0.032 A 
BRANCH  16  19
HETATM   19  O   UNL     1      43.419  -8.401  12.927  1.00  0.00    -0.356 OA
HETATM   20  C   UNL     1      42.339  -8.865  13.731  1.00  0.00     0.210 C 
ENDBRANCH  16  19
ENDBRANCH  10  13
ENDBRANCH   8   9
ENDBRANCH   7   8
BRANCH   1  21
HETATM   21  C   UNL     1      42.214 -15.205   6.883  1.00  0.00     0.133 C 
BRANCH  21  22
HETATM   22  C   UNL     1      43.602 -15.826   7.048  1.00  0.00     0.058 C 
BRANCH  22  23
HETATM   23  C   UNL     1      43.727 -17.127   6.294  1.00  0.00    -0.057 A 
HETATM   24  C   UNL     1      43.373 -18.342   6.895  1.00  0.00     0.010 A 
HETATM   25  C   UNL     1      43.505 -19.550   6.196  1.00  0.00     0.037 A 
HETATM   26  C   UNL     1      43.992 -19.555   4.890  1.00  0.00     0.068 A 
HETATM   27  C   UNL     1      44.352 -18.346   4.293  1.00  0.00     0.037 A 
HETATM   28  C   UNL     1      44.222 -17.140   4.987  1.00  0.00     0.010 A 
BRANCH  26  29
HETATM   29  O   UNL     1      44.166 -20.657   4.099  1.00  0.00    -0.356 OA
HETATM   30  C   UNL     1      43.685 -20.574   2.764  1.00  0.00     0.210 C 
ENDBRANCH  26  29
ENDBRANCH  22  23
ENDBRANCH  21  22
ENDBRANCH   1  21
BRANCH   4  31
HETATM   31  C   UNL     1      41.084 -13.934   2.245  1.00  0.00     0.047 A 
HETATM   32  C   UNL     1      40.969 -15.083   1.450  1.00  0.00     0.033 A 
HETATM   33  C   UNL     1      40.278 -15.063   0.228  1.00  0.00     0.039 A 
HETATM   34  C   UNL     1      39.663 -13.902  -0.227  1.00  0.00     0.068 A 
HETATM   35  C   UNL     1      39.783 -12.745   0.529  1.00  0.00     0.039 A 
HETATM   36  C   UNL     1      40.482 -12.765   1.747  1.00  0.00     0.033 A 
BRANCH  34  37
HETATM   37  O   UNL     1      38.991 -14.020  -1.411  1.00  0.00    -0.356 OA
HETATM   38  C   UNL     1      39.787 -14.062  -2.589  1.00  0.00     0.210 C 
ENDBRANCH  34  37
ENDBRANCH   4  31
TORSDOF 10
ENDMDL
MODEL 2
REMARK VINA RESULT:      -8.7      2.533      6.896
REMARK  10 active torsions:
REMARK  status: ('A' for Active; 'I' for Inactive)
REMARK    1  A    between atoms: O_2  and  C_3 
REMARK    2  A    between atoms: C_6  and  C_7 
REMARK    3  A    between atoms: C_7  and  C_8 
REMARK    4  A    between atoms: C_8  and  N_9 
REMARK    5  A    between atoms: N_12  and  C_13 
REMARK    6  A    between atoms: C_16  and  O_17 
REMARK    7  A    between atoms: C_23  and  C_24 
REMARK    8  A    between atoms: C_24  and  C_25 
REMARK       I    between atoms: C_25  and  N_26 
REMARK    9  A    between atoms: N_26  and  C_27 
REMARK   10  A    between atoms: C_30  and  O_31 
ROOT
HETATM    1  N   UNL     1      41.522 -12.846   2.489  1.00  0.00    -0.319 N 
HETATM    2  C   UNL     1      42.546 -13.799   2.553  1.00  0.00     0.332 C 
HETATM    3  O   UNL     1      43.699 -13.547   2.238  1.00  0.00    -0.246 OA
HETATM    4  N   UNL     1      41.999 -15.005   2.943  1.00  0.00    -0.232 N 
HETATM    5  C   UNL     1      40.633 -14.895   2.880  1.00  0.00     0.256 C 
HETATM    6  O   UNL     1      39.777 -15.774   2.945  1.00  0.00    -0.270 OA
HETATM    7  C   UNL     1      40.229 -13.428   2.791  1.00  0.00     0.190 C 
ENDROOT
BRANCH   7   8
HETATM    8  C   UNL     1      39.707 -13.020   4.167  1.00  0.00     0.138 C 
BRANCH   8   9
HETATM    9  C   UNL     1      40.600 -12.052   4.929  1.00  0.00     0.224 C 
HETATM   10  N   UNL     1      41.568 -12.643   5.713  1.00  0.00    -0.327 N 
HETATM   11  H   UNL     1      41.496 -13.642   5.911  1.00  0.00     0.169 HD
HETATM   12  O   UNL     1      40.458 -10.843   4.763  1.00  0.00    -0.273 OA
BRANCH  10  13
HETATM   13  C   UNL     1      42.688 -12.026   6.303  1.00  0.00     0.034 A 
HETATM   14  C   UNL     1      43.927 -12.651   6.121  1.00  0.00     0.032 A 
HETATM   15  C   UNL     1      45.095 -12.069   6.617  1.00  0.00     0.039 A 
HETATM   16  C   UNL     1      45.047 -10.835   7.261  1.00  0.00     0.068 A 
HETATM   17  C   UNL     1      43.813 -10.216   7.464  1.00  0.00     0.039 A 
HETATM   18  C   UNL     1      42.636 -10.814   6.993  1.00  0.00     0.032 A 
BRANCH  16  19
HETATM   19  O   UNL     1      46.253 -10.342   7.674  1.00  0.00    -0.356 OA
HETATM   20  C   UNL     1      46.204  -9.050   8.272  1.00  0.00     0.210 C 
ENDBRANCH  16  19
ENDBRANCH  10  13
ENDBRANCH   8   9
ENDBRANCH   7   8
BRANCH   1  21
HETATM   21  C   UNL     1      41.685 -11.629   1.695  1.00  0.00     0.133 C 
BRANCH  21  22
HETATM   22  C   UNL     1      40.406 -11.108   1.036  1.00  0.00     0.058 C 
BRANCH  22  23
HETATM   23  C   UNL     1      40.101 -11.835  -0.250  1.00  0.00    -0.057 A 
HETATM   24  C   UNL     1      41.063 -11.936  -1.263  1.00  0.00     0.010 A 
HETATM   25  C   UNL     1      40.771 -12.599  -2.463  1.00  0.00     0.037 A 
HETATM   26  C   UNL     1      39.515 -13.169  -2.662  1.00  0.00     0.068 A 
HETATM   27  C   UNL     1      38.553 -13.063  -1.656  1.00  0.00     0.037 A 
HETATM   28  C   UNL     1      38.841 -12.402  -0.458  1.00  0.00     0.010 A 
BRANCH  26  29
HETATM   29  O   UNL     1      39.102 -13.844  -3.777  1.00  0.00    -0.356 OA
HETATM   30  C   UNL     1      38.120 -14.855  -3.593  1.00  0.00     0.210 C 
ENDBRANCH  26  29
ENDBRANCH  22  23
ENDBRANCH  21  22
ENDBRANCH   1  21
BRANCH   4  31
HETATM   31  C   UNL     1      42.721 -16.188   3.291  1.00  0.00     0.047 A 
HETATM   32  C   UNL     1      43.167 -16.431   4.598  1.00  0.00     0.033 A 
HETATM   33  C   UNL     1      43.800 -17.635   4.944  1.00  0.00     0.039 A 
HETATM   34  C   UNL     1      43.989 -18.641   4.003  1.00  0.00     0.068 A 
HETATM   35  C   UNL     1      43.579 -18.416   2.697  1.00  0.00     0.039 A 
HETATM   36  C   UNL     1      42.954 -17.207   2.350  1.00  0.00     0.033 A 
BRANCH  34  37
HETATM   37  O   UNL     1      44.584 -19.778   4.472  1.00  0.00    -0.356 OA
HETATM   38  C   UNL     1      43.945 -20.418   5.570  1.00  0.00     0.210 C 
ENDBRANCH  34  37
ENDBRANCH   4  31
TORSDOF 10
ENDMDL
MODEL 3
REMARK VINA RESULT:      -8.7      2.651      4.653
REMARK  10 active torsions:
REMARK  status: ('A' for Active; 'I' for Inactive)
REMARK    1  A    between atoms: O_2  and  C_3 
REMARK    2  A    between atoms: C_6  and  C_7 
REMARK    3  A    between atoms: C_7  and  C_8 
REMARK    4  A    between atoms: C_8  and  N_9 
REMARK    5  A    between atoms: N_12  and  C_13 
REMARK    6  A    between atoms: C_16  and  O_17 
REMARK    7  A    between atoms: C_23  and  C_24 
REMARK    8  A    between atoms: C_24  and  C_25 
REMARK       I    between atoms: C_25  and  N_26 
REMARK    9  A    between atoms: N_26  and  C_27 
REMARK   10  A    between atoms: C_30  and  O_31 
ROOT
HETATM    1  N   UNL     1      40.223 -14.438   1.163  1.00  0.00    -0.319 N 
HETATM    2  C   UNL     1      39.711 -14.099  -0.096  1.00  0.00     0.332 C 
HETATM    3  O   UNL     1      39.498 -14.931  -0.965  1.00  0.00    -0.246 OA
HETATM    4  N   UNL     1      39.584 -12.727  -0.163  1.00  0.00    -0.232 N 
HETATM    5  C   UNL     1      40.233 -12.184   0.917  1.00  0.00     0.256 C 
HETATM    6  O   UNL     1      40.536 -11.013   1.136  1.00  0.00    -0.270 OA
HETATM    7  C   UNL     1      40.505 -13.261   1.960  1.00  0.00     0.190 C 
ENDROOT
BRANCH   7   8
HETATM    8  C   UNL     1      39.496 -13.060   3.089  1.00  0.00     0.138 C 
BRANCH   8   9
HETATM    9  C   UNL     1      40.110 -12.852   4.466  1.00  0.00     0.224 C 
HETATM   10  N   UNL     1      41.486 -12.777   4.488  1.00  0.00    -0.327 N 
HETATM   11  H   UNL     1      42.006 -13.075   3.662  1.00  0.00     0.169 HD
HETATM   12  O   UNL     1      39.373 -12.705   5.438  1.00  0.00    -0.273 OA
BRANCH  10  13
HETATM   13  C   UNL     1      42.304 -12.326   5.543  1.00  0.00     0.034 A 
HETATM   14  C   UNL     1      43.331 -13.181   5.960  1.00  0.00     0.032 A 
HETATM   15  C   UNL     1      44.225 -12.781   6.955  1.00  0.00     0.039 A 
HETATM   16  C   UNL     1      44.134 -11.508   7.513  1.00  0.00     0.068 A 
HETATM   17  C   UNL     1      43.102 -10.658   7.115  1.00  0.00     0.039 A 
HETATM   18  C   UNL     1      42.184 -11.070   6.139  1.00  0.00     0.032 A 
BRANCH  16  19
HETATM   19  O   UNL     1      45.082 -11.210   8.451  1.00  0.00    -0.356 OA
HETATM   20  C   UNL     1      46.087 -10.295   8.024  1.00  0.00     0.210 C 
ENDBRANCH  16  19
ENDBRANCH  10  13
ENDBRANCH   8   9
ENDBRANCH   7   8
BRANCH   1  21
HETATM   21  C   UNL     1      40.882 -15.726   1.377  1.00  0.00     0.133 C 
BRANCH  21  22
HETATM   22  C   UNL     1      42.403 -15.659   1.529  1.00  0.00     0.058 C 
BRANCH  22  23
HETATM   23  C   UNL     1      42.907 -16.645   2.555  1.00  0.00    -0.057 A 
HETATM   24  C   UNL     1      42.959 -16.306   3.913  1.00  0.00     0.010 A 
HETATM   25  C   UNL     1      43.442 -17.218   4.860  1.00  0.00     0.037 A 
HETATM   26  C   UNL     1      43.878 -18.481   4.459  1.00  0.00     0.068 A 
HETATM   27  C   UNL     1      43.834 -18.818   3.106  1.00  0.00     0.037 A 
HETATM   28  C   UNL     1      43.352 -17.909   2.158  1.00  0.00     0.010 A 
BRANCH  26  29
HETATM   29  O   UNL     1      44.366 -19.462   5.277  1.00  0.00    -0.356 OA
HETATM   30  C   UNL     1      43.946 -20.793   5.008  1.00  0.00     0.210 C 
ENDBRANCH  26  29
ENDBRANCH  22  23
ENDBRANCH  21  22
ENDBRANCH   1  21
BRANCH   4  31
HETATM   31  C   UNL     1      38.944 -11.986  -1.204  1.00  0.00     0.047 A 
HETATM   32  C   UNL     1      37.572 -11.699  -1.179  1.00  0.00     0.033 A 
HETATM   33  C   UNL     1      36.972 -10.899  -2.164  1.00  0.00     0.039 A 
HETATM   34  C   UNL     1      37.726 -10.344  -3.192  1.00  0.00     0.068 A 
HETATM   35  C   UNL     1      39.082 -10.633  -3.254  1.00  0.00     0.039 A 
HETATM   36  C   UNL     1      39.679 -11.441  -2.272  1.00  0.00     0.033 A 
BRANCH  34  37
HETATM   37  O   UNL     1      37.034  -9.555  -4.066  1.00  0.00    -0.356 OA
HETATM   38  C   UNL     1      35.640  -9.811  -4.182  1.00  0.00     0.210 C 
ENDBRANCH  34  37
ENDBRANCH   4  31
TORSDOF 10
ENDMDL
MODEL 4
REMARK VINA RESULT:      -8.6      2.842      5.143
REMARK  10 active torsions:
REMARK  status: ('A' for Active; 'I' for Inactive)
REMARK    1  A    between atoms: O_2  and  C_3 
REMARK    2  A    between atoms: C_6  and  C_7 
REMARK    3  A    between atoms: C_7  and  C_8 
REMARK    4  A    between atoms: C_8  and  N_9 
REMARK    5  A    between atoms: N_12  and  C_13 
REMARK    6  A    between atoms: C_16  and  O_17 
REMARK    7  A    between atoms: C_23  and  C_24 
REMARK    8  A    between atoms: C_24  and  C_25 
REMARK       I    between atoms: C_25  and  N_26 
REMARK    9  A    between atoms: N_26  and  C_27 
REMARK   10  A    between atoms: C_30  and  O_31 
ROOT
HETATM    1  N   UNL     1      39.962 -13.961   0.600  1.00  0.00    -0.319 N 
HETATM    2  C   UNL     1      39.667 -13.469  -0.679  1.00  0.00     0.332 C 
HETATM    3  O   UNL     1      39.235 -14.181  -1.573  1.00  0.00    -0.246 OA
HETATM    4  N   UNL     1      40.016 -12.135  -0.727  1.00  0.00    -0.232 N 
HETATM    5  C   UNL     1      40.749 -11.844   0.396  1.00  0.00     0.256 C 
HETATM    6  O   UNL     1      41.418 -10.846   0.652  1.00  0.00    -0.270 OA
HETATM    7  C   UNL     1      40.581 -12.949   1.432  1.00  0.00     0.190 C 
ENDROOT
BRANCH   7   8
HETATM    8  C   UNL     1      39.637 -12.416   2.509  1.00  0.00     0.138 C 
BRANCH   8   9
HETATM    9  C   UNL     1      40.192 -12.462   3.925  1.00  0.00     0.224 C 
HETATM   10  N   UNL     1      41.555 -12.282   4.026  1.00  0.00    -0.327 N 
HETATM   11  H   UNL     1      42.122 -12.350   3.180  1.00  0.00     0.169 HD
HETATM   12  O   UNL     1      39.418 -12.590   4.871  1.00  0.00    -0.273 OA
BRANCH  10  13
HETATM   13  C   UNL     1      42.300 -12.006   5.189  1.00  0.00     0.034 A 
HETATM   14  C   UNL     1      43.157 -13.012   5.648  1.00  0.00     0.032 A 
HETATM   15  C   UNL     1      43.978 -12.794   6.756  1.00  0.00     0.039 A 
HETATM   16  C   UNL     1      43.987 -11.554   7.391  1.00  0.00     0.068 A 
HETATM   17  C   UNL     1      43.122 -10.552   6.951  1.00  0.00     0.039 A 
HETATM   18  C   UNL     1      42.275 -10.781   5.857  1.00  0.00     0.032 A 
BRANCH  16  19
HETATM   19  O   UNL     1      44.855 -11.439   8.441  1.00  0.00    -0.356 OA
HETATM   20  C   UNL     1      45.712 -10.303   8.395  1.00  0.00     0.210 C 
ENDBRANCH  16  19
ENDBRANCH  10  13
ENDBRANCH   8   9
ENDBRANCH   7   8
BRANCH   1  21
HETATM   21  C   UNL     1      40.133 -15.395   0.825  1.00  0.00     0.133 C 
BRANCH  21  22
HETATM   22  C   UNL     1      39.809 -15.873   2.242  1.00  0.00     0.058 C 
BRANCH  22  23
HETATM   23  C   UNL     1      41.056 -16.244   3.007  1.00  0.00    -0.057 A 
HETATM   24  C   UNL     1      42.171 -16.775   2.347  1.00  0.00     0.010 A 
HETATM   25  C   UNL     1      43.321 -17.134   3.063  1.00  0.00     0.037 A 
HETATM   26  C   UNL     1      43.368 -16.964   4.446  1.00  0.00     0.068 A 
HETATM   27  C   UNL     1      42.255 -16.442   5.106  1.00  0.00     0.037 A 
HETATM   28  C   UNL     1      41.106 -16.084   4.394  1.00  0.00     0.010 A 
BRANCH  26  29
HETATM   29  O   UNL     1      44.424 -17.267   5.260  1.00  0.00    -0.356 OA
HETATM   30  C   UNL     1      44.572 -16.489   6.441  1.00  0.00     0.210 C 
ENDBRANCH  26  29
ENDBRANCH  22  23
ENDBRANCH  21  22
ENDBRANCH   1  21
BRANCH   4  31
HETATM   31  C   UNL     1      39.725 -11.223  -1.787  1.00  0.00     0.047 A 
HETATM   32  C   UNL     1      40.707 -10.797  -2.693  1.00  0.00     0.033 A 
HETATM   33  C   UNL     1      40.390  -9.967  -3.781  1.00  0.00     0.039 A 
HETATM   34  C   UNL     1      39.082  -9.555  -4.009  1.00  0.00     0.068 A 
HETATM   35  C   UNL     1      38.096  -9.942  -3.112  1.00  0.00     0.039 A 
HETATM   36  C   UNL     1      38.416 -10.765  -2.020  1.00  0.00     0.033 A 
BRANCH  34  37
HETATM   37  O   UNL     1      38.897  -8.781  -5.119  1.00  0.00    -0.356 OA
HETATM   38  C   UNL     1      40.073  -8.311  -5.766  1.00  0.00     0.210 C 
ENDBRANCH  34  37
ENDBRANCH   4  31
TORSDOF 10
ENDMDL
MODEL 5
REMARK VINA RESULT:      -8.5      1.598      2.208
REMARK  10 active torsions:
REMARK  status: ('A' for Active; 'I' for Inactive)
REMARK    1  A    between atoms: O_2  and  C_3 
REMARK    2  A    between atoms: C_6  and  C_7 
REMARK    3  A    between atoms: C_7  and  C_8 
REMARK    4  A    between atoms: C_8  and  N_9 
REMARK    5  A    between atoms: N_12  and  C_13 
REMARK    6  A    between atoms: C_16  and  O_17 
REMARK    7  A    between atoms: C_23  and  C_24 
REMARK    8  A    between atoms: C_24  and  C_25 
REMARK       I    between atoms: C_25  and  N_26 
REMARK    9  A    between atoms: N_26  and  C_27 
REMARK   10  A    between atoms: C_30  and  O_31 
ROOT
HETATM    1  N   UNL     1      41.241 -13.500   3.999  1.00  0.00    -0.319 N 
HETATM    2  C   UNL     1      40.554 -14.003   2.886  1.00  0.00     0.332 C 
HETATM    3  O   UNL     1      40.017 -15.101   2.886  1.00  0.00    -0.246 OA
HETATM    4  N   UNL     1      40.672 -13.097   1.852  1.00  0.00    -0.232 N 
HETATM    5  C   UNL     1      41.617 -12.167   2.203  1.00  0.00     0.256 C 
HETATM    6  O   UNL     1      42.170 -11.318   1.509  1.00  0.00    -0.270 OA
HETATM    7  C   UNL     1      41.893 -12.241   3.700  1.00  0.00     0.190 C 
ENDROOT
BRANCH   7   8
HETATM    8  C   UNL     1      41.191 -11.048   4.347  1.00  0.00     0.138 C 
BRANCH   8   9
HETATM    9  C   UNL     1      41.432 -10.897   5.841  1.00  0.00     0.224 C 
HETATM   10  N   UNL     1      42.752 -10.747   6.210  1.00  0.00    -0.327 N 
HETATM   11  H   UNL     1      43.479 -10.959   5.526  1.00  0.00     0.169 HD
HETATM   12  O   UNL     1      40.470 -10.857   6.606  1.00  0.00    -0.273 OA
BRANCH  10  13
HETATM   13  C   UNL     1      43.252 -10.322   7.457  1.00  0.00     0.034 A 
HETATM   14  C   UNL     1      42.542  -9.310   8.113  1.00  0.00     0.032 A 
HETATM   15  C   UNL     1      42.933  -8.878   9.382  1.00  0.00     0.039 A 
HETATM   16  C   UNL     1      44.008  -9.482  10.030  1.00  0.00     0.068 A 
HETATM   17  C   UNL     1      44.732 -10.477   9.373  1.00  0.00     0.039 A 
HETATM   18  C   UNL     1      44.359 -10.890   8.087  1.00  0.00     0.032 A 
BRANCH  16  19
HETATM   19  O   UNL     1      44.281  -9.006  11.281  1.00  0.00    -0.356 OA
HETATM   20  C   UNL     1      43.234  -8.246  11.879  1.00  0.00     0.210 C 
ENDBRANCH  16  19
ENDBRANCH  10  13
ENDBRANCH   8   9
ENDBRANCH   7   8
BRANCH   1  21
HETATM   21  C   UNL     1      41.680 -14.394   5.070  1.00  0.00     0.133 C 
BRANCH  21  22
HETATM   22  C   UNL     1      43.165 -14.761   5.041  1.00  0.00     0.058 C 
BRANCH  22  23
HETATM   23  C   UNL     1      43.386 -16.156   4.510  1.00  0.00    -0.057 A 
HETATM   24  C   UNL     1      43.210 -16.444   3.151  1.00  0.00     0.010 A 
HETATM   25  C   UNL     1      43.402 -17.744   2.665  1.00  0.00     0.037 A 
HETATM   26  C   UNL     1      43.773 -18.770   3.532  1.00  0.00     0.068 A 
HETATM   27  C   UNL     1      43.942 -18.486   4.889  1.00  0.00     0.037 A 
HETATM   28  C   UNL     1      43.751 -17.190   5.377  1.00  0.00     0.010 A 
BRANCH  26  29
HETATM   29  O   UNL     1      43.995 -20.075   3.190  1.00  0.00    -0.356 OA
HETATM   30  C   UNL     1      43.646 -20.463   1.868  1.00  0.00     0.210 C 
ENDBRANCH  26  29
ENDBRANCH  22  23
ENDBRANCH  21  22
ENDBRANCH   1  21
BRANCH   4  31
HETATM   31  C   UNL     1      39.981 -13.146   0.602  1.00  0.00     0.047 A 
HETATM   32  C   UNL     1      40.180 -14.184  -0.319  1.00  0.00     0.033 A 
HETATM   33  C   UNL     1      39.433 -14.266  -1.505  1.00  0.00     0.039 A 
HETATM   34  C   UNL     1      38.450 -13.326  -1.798  1.00  0.00     0.068 A 
HETATM   35  C   UNL     1      38.250 -12.275  -0.914  1.00  0.00     0.039 A 
HETATM   36  C   UNL     1      39.004 -12.190   0.267  1.00  0.00     0.033 A 
BRANCH  34  37
HETATM   37  O   UNL     1      37.768 -13.536  -2.962  1.00  0.00    -0.356 OA
HETATM   38  C   UNL     1      38.108 -14.709  -3.692  1.00  0.00     0.210 C 
ENDBRANCH  34  37
ENDBRANCH   4  31
TORSDOF 10
ENDMDL
MODEL 6
REMARK VINA RESULT:      -8.3      1.637      9.200
REMARK  10 active torsions:
REMARK  status: ('A' for Active; 'I' for Inactive)
REMARK    1  A    between atoms: O_2  and  C_3 
REMARK    2  A    between atoms: C_6  and  C_7 
REMARK    3  A    between atoms: C_7  and  C_8 
REMARK    4  A    between atoms: C_8  and  N_9 
REMARK    5  A    between atoms: N_12  and  C_13 
REMARK    6  A    between atoms: C_16  and  O_17 
REMARK    7  A    between atoms: C_23  and  C_24 
REMARK    8  A    between atoms: C_24  and  C_25 
REMARK       I    between atoms: C_25  and  N_26 
REMARK    9  A    between atoms: N_26  and  C_27 
REMARK   10  A    between atoms: C_30  and  O_31 
ROOT
HETATM    1  N   UNL     1      41.735 -11.419   5.061  1.00  0.00    -0.319 N 
HETATM    2  C   UNL     1      41.595 -10.218   5.769  1.00  0.00     0.332 C 
HETATM    3  O   UNL     1      40.882  -9.305   5.380  1.00  0.00    -0.246 OA
HETATM    4  N   UNL     1      42.428 -10.257   6.868  1.00  0.00    -0.232 N 
HETATM    5  C   UNL     1      43.267 -11.335   6.731  1.00  0.00     0.256 C 
HETATM    6  O   UNL     1      44.279 -11.619   7.366  1.00  0.00    -0.270 OA
HETATM    7  C   UNL     1      42.733 -12.281   5.663  1.00  0.00     0.190 C 
ENDROOT
BRANCH   7   8
HETATM    8  C   UNL     1      42.117 -13.477   6.387  1.00  0.00     0.138 C 
BRANCH   8   9
HETATM    9  C   UNL     1      41.996 -14.740   5.548  1.00  0.00     0.224 C 
HETATM   10  N   UNL     1      43.170 -15.171   4.968  1.00  0.00    -0.327 N 
HETATM   11  H   UNL     1      43.968 -14.535   4.944  1.00  0.00     0.169 HD
HETATM   12  O   UNL     1      40.915 -15.321   5.485  1.00  0.00    -0.273 OA
BRANCH  10  13
HETATM   13  C   UNL     1      43.426 -16.426   4.379  1.00  0.00     0.034 A 
HETATM   14  C   UNL     1      43.891 -17.440   5.223  1.00  0.00     0.032 A 
HETATM   15  C   UNL     1      44.105 -18.729   4.731  1.00  0.00     0.039 A 
HETATM   16  C   UNL     1      43.815 -19.032   3.403  1.00  0.00     0.068 A 
HETATM   17  C   UNL     1      43.370 -18.021   2.551  1.00  0.00     0.039 A 
HETATM   18  C   UNL     1      43.184 -16.720   3.036  1.00  0.00     0.032 A 
BRANCH  16  19
HETATM   19  O   UNL     1      44.029 -20.332   3.038  1.00  0.00    -0.356 OA
HETATM   20  C   UNL     1      43.683 -20.646   1.693  1.00  0.00     0.210 C 
ENDBRANCH  16  19
ENDBRANCH  10  13
ENDBRANCH   8   9
ENDBRANCH   7   8
BRANCH   1  21
HETATM   21  C   UNL     1      41.350 -11.503   3.653  1.00  0.00     0.133 C 
BRANCH  21  22
HETATM   22  C   UNL     1      42.218 -12.426   2.796  1.00  0.00     0.058 C 
BRANCH  22  23
HETATM   23  C   UNL     1      41.404 -13.157   1.757  1.00  0.00    -0.057 A 
HETATM   24  C   UNL     1      40.873 -14.426   2.024  1.00  0.00     0.010 A 
HETATM   25  C   UNL     1      40.130 -15.108   1.051  1.00  0.00     0.037 A 
HETATM   26  C   UNL     1      39.910 -14.529  -0.198  1.00  0.00     0.068 A 
HETATM   27  C   UNL     1      40.445 -13.268  -0.467  1.00  0.00     0.037 A 
HETATM   28  C   UNL     1      41.187 -12.585   0.501  1.00  0.00     0.010 A 
BRANCH  26  29
HETATM   29  O   UNL     1      39.204 -15.082  -1.231  1.00  0.00    -0.356 OA
HETATM   30  C   UNL     1      39.078 -14.305  -2.414  1.00  0.00     0.210 C 
ENDBRANCH  26  29
ENDBRANCH  22  23
ENDBRANCH  21  22
ENDBRANCH   1  21
BRANCH   4  31
HETATM   31  C   UNL     1      42.464  -9.309   7.937  1.00  0.00     0.047 A 
HETATM   32  C   UNL     1      41.460  -9.251   8.914  1.00  0.00     0.033 A 
HETATM   33  C   UNL     1      41.550  -8.373  10.006  1.00  0.00     0.039 A 
HETATM   34  C   UNL     1      42.653  -7.541  10.166  1.00  0.00     0.068 A 
HETATM   35  C   UNL     1      43.648  -7.561   9.199  1.00  0.00     0.039 A 
HETATM   36  C   UNL     1      43.553  -8.434   8.103  1.00  0.00     0.033 A 
BRANCH  34  37
HETATM   37  O   UNL     1      42.640  -6.760  11.286  1.00  0.00    -0.356 OA
HETATM   38  C   UNL     1      42.604  -7.444  12.533  1.00  0.00     0.210 C 
ENDBRANCH  34  37
ENDBRANCH   4  31
TORSDOF 10
ENDMDL
MODEL 7
REMARK VINA RESULT:      -8.2      1.694      2.457
REMARK  10 active torsions:
REMARK  status: ('A' for Active; 'I' for Inactive)
REMARK    1  A    between atoms: O_2  and  C_3 
REMARK    2  A    between atoms: C_6  and  C_7 
REMARK    3  A    between atoms: C_7  and  C_8 
REMARK    4  A    between atoms: C_8  and  N_9 
REMARK    5  A    between atoms: N_12  and  C_13 
REMARK    6  A    between atoms: C_16  and  O_17 
REMARK    7  A    between atoms: C_23  and  C_24 
REMARK    8  A    between atoms: C_24  and  C_25 
REMARK       I    between atoms: C_25  and  N_26 
REMARK    9  A    between atoms: N_26  and  C_27 
REMARK   10  A    between atoms: C_30  and  O_31 
ROOT
HETATM    1  N   UNL     1      40.974 -12.825   4.181  1.00  0.00    -0.319 N 
HETATM    2  C   UNL     1      40.218 -13.085   3.031  1.00  0.00     0.332 C 
HETATM    3  O   UNL     1      38.997 -13.130   3.044  1.00  0.00    -0.246 OA
HETATM    4  N   UNL     1      41.082 -13.337   1.986  1.00  0.00    -0.232 N 
HETATM    5  C   UNL     1      42.345 -13.489   2.501  1.00  0.00     0.256 C 
HETATM    6  O   UNL     1      43.361 -13.916   1.959  1.00  0.00    -0.270 OA
HETATM    7  C   UNL     1      42.396 -12.955   3.928  1.00  0.00     0.190 C 
ENDROOT
BRANCH   7   8
HETATM    8  C   UNL     1      43.110 -11.606   3.879  1.00  0.00     0.138 C 
BRANCH   8   9
HETATM    9  C   UNL     1      43.006 -10.781   5.153  1.00  0.00     0.224 C 
HETATM   10  N   UNL     1      43.636 -11.322   6.254  1.00  0.00    -0.327 N 
HETATM   11  H   UNL     1      43.929 -12.298   6.220  1.00  0.00     0.169 HD
HETATM   12  O   UNL     1      42.442  -9.690   5.119  1.00  0.00    -0.273 OA
BRANCH  10  13
HETATM   13  C   UNL     1      43.941 -10.678   7.470  1.00  0.00     0.034 A 
HETATM   14  C   UNL     1      42.868 -10.143   8.191  1.00  0.00     0.032 A 
HETATM   15  C   UNL     1      43.078  -9.547   9.436  1.00  0.00     0.039 A 
HETATM   16  C   UNL     1      44.354  -9.519   9.996  1.00  0.00     0.068 A 
HETATM   17  C   UNL     1      45.430 -10.032   9.274  1.00  0.00     0.039 A 
HETATM   18  C   UNL     1      45.226 -10.603   8.010  1.00  0.00     0.032 A 
BRANCH  16  19
HETATM   19  O   UNL     1      44.437  -8.944  11.233  1.00  0.00    -0.356 OA
HETATM   20  C   UNL     1      43.196  -8.515  11.785  1.00  0.00     0.210 C 
ENDBRANCH  16  19
ENDBRANCH  10  13
ENDBRANCH   8   9
ENDBRANCH   7   8
BRANCH   1  21
HETATM   21  C   UNL     1      40.383 -12.968   5.511  1.00  0.00     0.133 C 
BRANCH  21  22
HETATM   22  C   UNL     1      40.147 -14.410   5.964  1.00  0.00     0.058 C 
BRANCH  22  23
HETATM   23  C   UNL     1      41.377 -15.265   5.779  1.00  0.00    -0.057 A 
HETATM   24  C   UNL     1      42.499 -15.095   6.601  1.00  0.00     0.010 A 
HETATM   25  C   UNL     1      43.645 -15.880   6.417  1.00  0.00     0.037 A 
HETATM   26  C   UNL     1      43.682 -16.843   5.409  1.00  0.00     0.068 A 
HETATM   27  C   UNL     1      42.568 -17.007   4.584  1.00  0.00     0.037 A 
HETATM   28  C   UNL     1      41.423 -16.226   4.766  1.00  0.00     0.010 A 
BRANCH  26  29
HETATM   29  O   UNL     1      44.730 -17.673   5.125  1.00  0.00    -0.356 OA
HETATM   30  C   UNL     1      44.443 -18.835   4.357  1.00  0.00     0.210 C 
ENDBRANCH  26  29
ENDBRANCH  22  23
ENDBRANCH  21  22
ENDBRANCH   1  21
BRANCH   4  31
HETATM   31  C   UNL     1      40.726 -13.480   0.609  1.00  0.00     0.047 A 
HETATM   32  C   UNL     1      40.054 -14.613   0.128  1.00  0.00     0.033 A 
HETATM   33  C   UNL     1      39.634 -14.704  -1.208  1.00  0.00     0.039 A 
HETATM   34  C   UNL     1      39.853 -13.659  -2.100  1.00  0.00     0.068 A 
HETATM   35  C   UNL     1      40.537 -12.537  -1.655  1.00  0.00     0.039 A 
HETATM   36  C   UNL     1      40.964 -12.451  -0.320  1.00  0.00     0.033 A 
BRANCH  34  37
HETATM   37  O   UNL     1      39.365 -13.853  -3.361  1.00  0.00    -0.356 OA
HETATM   38  C   UNL     1      38.202 -14.665  -3.471  1.00  0.00     0.210 C 
ENDBRANCH  34  37
ENDBRANCH   4  31
TORSDOF 10
ENDMDL
MODEL 8
REMARK VINA RESULT:      -8.1      2.516      6.605
REMARK  10 active torsions:
REMARK  status: ('A' for Active; 'I' for Inactive)
REMARK    1  A    between atoms: O_2  and  C_3 
REMARK    2  A    between atoms: C_6  and  C_7 
REMARK    3  A    between atoms: C_7  and  C_8 
REMARK    4  A    between atoms: C_8  and  N_9 
REMARK    5  A    between atoms: N_12  and  C_13 
REMARK    6  A    between atoms: C_16  and  O_17 
REMARK    7  A    between atoms: C_23  and  C_24 
REMARK    8  A    between atoms: C_24  and  C_25 
REMARK       I    between atoms: C_25  and  N_26 
REMARK    9  A    between atoms: N_26  and  C_27 
REMARK   10  A    between atoms: C_30  and  O_31 
ROOT
HETATM    1  N   UNL     1      41.327 -13.063   5.495  1.00  0.00    -0.319 N 
HETATM    2  C   UNL     1      41.374 -14.252   4.756  1.00  0.00     0.332 C 
HETATM    3  O   UNL     1      40.500 -14.567   3.962  1.00  0.00    -0.246 OA
HETATM    4  N   UNL     1      42.489 -14.966   5.144  1.00  0.00    -0.232 N 
HETATM    5  C   UNL     1      42.999 -14.381   6.275  1.00  0.00     0.256 C 
HETATM    6  O   UNL     1      43.850 -14.804   7.054  1.00  0.00    -0.270 OA
HETATM    7  C   UNL     1      42.411 -12.987   6.455  1.00  0.00     0.190 C 
ENDROOT
BRANCH   7   8
HETATM    8  C   UNL     1      43.490 -11.986   6.046  1.00  0.00     0.138 C 
BRANCH   8   9
HETATM    9  C   UNL     1      44.039 -11.137   7.182  1.00  0.00     0.224 C 
HETATM   10  N   UNL     1      43.087 -10.573   8.004  1.00  0.00    -0.327 N 
HETATM   11  H   UNL     1      42.115 -10.565   7.694  1.00  0.00     0.169 HD
HETATM   12  O   UNL     1      45.255 -11.054   7.339  1.00  0.00    -0.273 OA
BRANCH  10  13
HETATM   13  C   UNL     1      43.286  -9.979   9.266  1.00  0.00     0.034 A 
HETATM   14  C   UNL     1      43.217  -8.583   9.330  1.00  0.00     0.032 A 
HETATM   15  C   UNL     1      43.338  -7.923  10.554  1.00  0.00     0.039 A 
HETATM   16  C   UNL     1      43.483  -8.649  11.734  1.00  0.00     0.068 A 
HETATM   17  C   UNL     1      43.572 -10.039  11.676  1.00  0.00     0.039 A 
HETATM   18  C   UNL     1      43.482 -10.702  10.444  1.00  0.00     0.032 A 
BRANCH  16  19
HETATM   19  O   UNL     1      43.556  -7.902  12.876  1.00  0.00    -0.356 OA
HETATM   20  C   UNL     1      42.583  -8.219  13.867  1.00  0.00     0.210 C 
ENDBRANCH  16  19
ENDBRANCH  10  13
ENDBRANCH   8   9
ENDBRANCH   7   8
BRANCH   1  21
HETATM   21  C   UNL     1      40.072 -12.328   5.646  1.00  0.00     0.133 C 
BRANCH  21  22
HETATM   22  C   UNL     1      40.105 -10.879   5.157  1.00  0.00     0.058 C 
BRANCH  22  23
HETATM   23  C   UNL     1      40.008  -9.899   6.300  1.00  0.00    -0.057 A 
HETATM   24  C   UNL     1      40.417  -8.568   6.142  1.00  0.00     0.010 A 
HETATM   25  C   UNL     1      40.339  -7.665   7.210  1.00  0.00     0.037 A 
HETATM   26  C   UNL     1      39.851  -8.082   8.448  1.00  0.00     0.068 A 
HETATM   27  C   UNL     1      39.450  -9.410   8.609  1.00  0.00     0.037 A 
HETATM   28  C   UNL     1      39.527 -10.313   7.545  1.00  0.00     0.010 A 
BRANCH  26  29
HETATM   29  O   UNL     1      39.720  -7.306   9.566  1.00  0.00    -0.356 OA
HETATM   30  C   UNL     1      38.599  -7.565  10.402  1.00  0.00     0.210 C 
ENDBRANCH  26  29
ENDBRANCH  22  23
ENDBRANCH  21  22
ENDBRANCH   1  21
BRANCH   4  31
HETATM   31  C   UNL     1      42.995 -16.148   4.521  1.00  0.00     0.047 A 
HETATM   32  C   UNL     1      43.453 -17.245   5.265  1.00  0.00     0.033 A 
HETATM   33  C   UNL     1      43.868 -18.432   4.642  1.00  0.00     0.039 A 
HETATM   34  C   UNL     1      43.820 -18.569   3.259  1.00  0.00     0.068 A 
HETATM   35  C   UNL     1      43.394 -17.489   2.498  1.00  0.00     0.039 A 
HETATM   36  C   UNL     1      42.988 -16.299   3.122  1.00  0.00     0.033 A 
BRANCH  34  37
HETATM   37  O   UNL     1      44.215 -19.784   2.776  1.00  0.00    -0.356 OA
HETATM   38  C   UNL     1      43.416 -20.345   1.742  1.00  0.00     0.210 C 
ENDBRANCH  34  37
ENDBRANCH   4  31
TORSDOF 10
ENDMDL
MODEL 9
REMARK VINA RESULT:      -8.1      2.960      9.060
REMARK  10 active torsions:
REMARK  status: ('A' for Active; 'I' for Inactive)
REMARK    1  A    between atoms: O_2  and  C_3 
REMARK    2  A    between atoms: C_6  and  C_7 
REMARK    3  A    between atoms: C_7  and  C_8 
REMARK    4  A    between atoms: C_8  and  N_9 
REMARK    5  A    between atoms: N_12  and  C_13 
REMARK    6  A    between atoms: C_16  and  O_17 
REMARK    7  A    between atoms: C_23  and  C_24 
REMARK    8  A    between atoms: C_24  and  C_25 
REMARK       I    between atoms: C_25  and  N_26 
REMARK    9  A    between atoms: N_26  and  C_27 
REMARK   10  A    between atoms: C_30  and  O_31 
ROOT
HETATM    1  N   UNL     1      40.734 -13.723   2.857  1.00  0.00    -0.319 N 
HETATM    2  C   UNL     1      41.126 -14.758   3.716  1.00  0.00     0.332 C 
HETATM    3  O   UNL     1      40.593 -14.951   4.799  1.00  0.00    -0.246 OA
HETATM    4  N   UNL     1      42.205 -15.409   3.155  1.00  0.00    -0.232 N 
HETATM    5  C   UNL     1      42.656 -14.659   2.099  1.00  0.00     0.256 C 
HETATM    6  O   UNL     1      43.700 -14.762   1.459  1.00  0.00    -0.270 OA
HETATM    7  C   UNL     1      41.604 -13.629   1.702  1.00  0.00     0.190 C 
ENDROOT
BRANCH   7   8
HETATM    8  C   UNL     1      40.940 -14.135   0.423  1.00  0.00     0.138 C 
BRANCH   8   9
HETATM    9  C   UNL     1      40.262 -13.059  -0.414  1.00  0.00     0.224 C 
HETATM   10  N   UNL     1      38.888 -13.019  -0.312  1.00  0.00    -0.327 N 
HETATM   11  H   UNL     1      38.404 -13.809   0.115  1.00  0.00     0.169 HD
HETATM   12  O   UNL     1      40.952 -12.275  -1.061  1.00  0.00    -0.273 OA
BRANCH  10  13
HETATM   13  C   UNL     1      38.026 -11.988  -0.739  1.00  0.00     0.034 A 
HETATM   14  C   UNL     1      37.673 -11.976  -2.092  1.00  0.00     0.032 A 
HETATM   15  C   UNL     1      36.772 -11.027  -2.581  1.00  0.00     0.039 A 
HETATM   16  C   UNL     1      36.180 -10.109  -1.717  1.00  0.00     0.068 A 
HETATM   17  C   UNL     1      36.542 -10.103  -0.370  1.00  0.00     0.039 A 
HETATM   18  C   UNL     1      37.469 -11.036   0.116  1.00  0.00     0.032 A 
BRANCH  16  19
HETATM   19  O   UNL     1      35.287  -9.251  -2.296  1.00  0.00    -0.356 OA
HETATM   20  C   UNL     1      34.097  -9.022  -1.547  1.00  0.00     0.210 C 
ENDBRANCH  16  19
ENDBRANCH  10  13
ENDBRANCH   8   9
ENDBRANCH   7   8
BRANCH   1  21
HETATM   21  C   UNL     1      39.944 -12.599   3.357  1.00  0.00     0.133 C 
BRANCH  21  22
HETATM   22  C   UNL     1      40.714 -11.287   3.522  1.00  0.00     0.058 C 
BRANCH  22  23
HETATM   23  C   UNL     1      41.924 -11.455   4.408  1.00  0.00    -0.057 A 
HETATM   24  C   UNL     1      41.780 -11.737   5.773  1.00  0.00     0.010 A 
HETATM   25  C   UNL     1      42.906 -11.877   6.595  1.00  0.00     0.037 A 
HETATM   26  C   UNL     1      44.187 -11.737   6.062  1.00  0.00     0.068 A 
HETATM   27  C   UNL     1      44.330 -11.449   4.704  1.00  0.00     0.037 A 
HETATM   28  C   UNL     1      43.209 -11.309   3.881  1.00  0.00     0.010 A 
BRANCH  26  29
HETATM   29  O   UNL     1      45.363 -11.852   6.750  1.00  0.00    -0.356 OA
HETATM   30  C   UNL     1      45.696 -10.794   7.639  1.00  0.00     0.210 C 
ENDBRANCH  26  29
ENDBRANCH  22  23
ENDBRANCH  21  22
ENDBRANCH   1  21
BRANCH   4  31
HETATM   31  C   UNL     1      42.799 -16.622   3.624  1.00  0.00     0.047 A 
HETATM   32  C   UNL     1      42.948 -17.745   2.799  1.00  0.00     0.033 A 
HETATM   33  C   UNL     1      43.609 -18.900   3.246  1.00  0.00     0.039 A 
HETATM   34  C   UNL     1      44.159 -18.962   4.521  1.00  0.00     0.068 A 
HETATM   35  C   UNL     1      44.003 -17.873   5.366  1.00  0.00     0.039 A 
HETATM   36  C   UNL     1      43.334 -16.721   4.921  1.00  0.00     0.033 A 
BRANCH  34  37
HETATM   37  O   UNL     1      44.808 -20.125   4.824  1.00  0.00    -0.356 OA
HETATM   38  C   UNL     1      43.997 -21.201   5.283  1.00  0.00     0.210 C 
ENDBRANCH  34  37
ENDBRANCH   4  31
TORSDOF 10
ENDMDL
MODEL 10
REMARK VINA RESULT:      -8.0     16.656     19.325
REMARK  10 active torsions:
REMARK  status: ('A' for Active; 'I' for Inactive)
REMARK    1  A    between atoms: O_2  and  C_3 
REMARK    2  A    between atoms: C_6  and  C_7 
REMARK    3  A    between atoms: C_7  and  C_8 
REMARK    4  A    between atoms: C_8  and  N_9 
REMARK    5  A    between atoms: N_12  and  C_13 
REMARK    6  A    between atoms: C_16  and  O_17 
REMARK    7  A    between atoms: C_23  and  C_24 
REMARK    8  A    between atoms: C_24  and  C_25 
REMARK       I    between atoms: C_25  and  N_26 
REMARK    9  A    between atoms: N_26  and  C_27 
REMARK   10  A    between atoms: C_30  and  O_31 
ROOT
HETATM    1  N   UNL     1      45.739 -28.670  -0.146  1.00  0.00    -0.319 N 
HETATM    2  C   UNL     1      47.097 -28.695   0.199  1.00  0.00     0.332 C 
HETATM    3  O   UNL     1      47.935 -28.024  -0.385  1.00  0.00    -0.246 OA
HETATM    4  N   UNL     1      47.278 -29.624   1.203  1.00  0.00    -0.232 N 
HETATM    5  C   UNL     1      46.124 -30.356   1.322  1.00  0.00     0.256 C 
HETATM    6  O   UNL     1      45.923 -31.398   1.940  1.00  0.00    -0.270 OA
HETATM    7  C   UNL     1      44.979 -29.649   0.607  1.00  0.00     0.190 C 
ENDROOT
BRANCH   7   8
HETATM    8  C   UNL     1      44.102 -29.010   1.682  1.00  0.00     0.138 C 
BRANCH   8   9
HETATM    9  C   UNL     1      42.746 -29.673   1.879  1.00  0.00     0.224 C 
HETATM   10  N   UNL     1      42.739 -30.742   2.749  1.00  0.00    -0.327 N 
HETATM   11  H   UNL     1      43.629 -31.155   3.027  1.00  0.00     0.169 HD
HETATM   12  O   UNL     1      41.758 -29.200   1.322  1.00  0.00    -0.273 OA
BRANCH  10  13
HETATM   13  C   UNL     1      41.617 -31.367   3.330  1.00  0.00     0.034 A 
HETATM   14  C   UNL     1      41.292 -30.996   4.639  1.00  0.00     0.032 A 
HETATM   15  C   UNL     1      40.157 -31.520   5.263  1.00  0.00     0.039 A 
HETATM   16  C   UNL     1      39.310 -32.383   4.572  1.00  0.00     0.068 A 
HETATM   17  C   UNL     1      39.639 -32.772   3.274  1.00  0.00     0.039 A 
HETATM   18  C   UNL     1      40.794 -32.271   2.657  1.00  0.00     0.032 A 
BRANCH  16  19
HETATM   19  O   UNL     1      38.211 -32.806   5.267  1.00  0.00    -0.356 OA
HETATM   20  C   UNL     1      37.179 -33.382   4.471  1.00  0.00     0.210 C 
ENDBRANCH  16  19
ENDBRANCH  10  13
ENDBRANCH   8   9
ENDBRANCH   7   8
BRANCH   1  21
HETATM   21  C   UNL     1      45.308 -28.147  -1.441  1.00  0.00     0.133 C 
BRANCH  21  22
HETATM   22  C   UNL     1      44.151 -28.905  -2.095  1.00  0.00     0.058 C 
BRANCH  22  23
HETATM   23  C   UNL     1      44.606 -29.693  -3.299  1.00  0.00    -0.057 A 
HETATM   24  C   UNL     1      43.813 -29.766  -4.451  1.00  0.00     0.010 A 
HETATM   25  C   UNL     1      44.232 -30.511  -5.561  1.00  0.00     0.037 A 
HETATM   26  C   UNL     1      45.449 -31.190  -5.531  1.00  0.00     0.068 A 
HETATM   27  C   UNL     1      46.237 -31.124  -4.381  1.00  0.00     0.037 A 
HETATM   28  C   UNL     1      45.821 -30.382  -3.272  1.00  0.00     0.010 A 
BRANCH  26  29
HETATM   29  O   UNL     1      45.976 -31.947  -6.542  1.00  0.00    -0.356 OA
HETATM   30  C   UNL     1      47.002 -32.866  -6.191  1.00  0.00     0.210 C 
ENDBRANCH  26  29
ENDBRANCH  22  23
ENDBRANCH  21  22
ENDBRANCH   1  21
BRANCH   4  31
HETATM   31  C   UNL     1      48.476 -29.837   1.952  1.00  0.00     0.047 A 
HETATM   32  C   UNL     1      48.552 -29.572   3.327  1.00  0.00     0.033 A 
HETATM   33  C   UNL     1      49.708 -29.866   4.067  1.00  0.00     0.039 A 
HETATM   34  C   UNL     1      50.816 -30.452   3.463  1.00  0.00     0.068 A 
HETATM   35  C   UNL     1      50.775 -30.701   2.098  1.00  0.00     0.039 A 
HETATM   36  C   UNL     1      49.621 -30.399   1.358  1.00  0.00     0.033 A 
BRANCH  34  37
HETATM   37  O   UNL     1      51.863 -30.722   4.296  1.00  0.00    -0.356 OA
HETATM   38  C   UNL     1      51.531 -31.147   5.612  1.00  0.00     0.210 C 
ENDBRANCH  34  37
ENDBRANCH   4  31
TORSDOF 10
ENDMDL
