MODEL 1
REMARK VINA RESULT:      -9.9      0.000      0.000
REMARK  6 active torsions:
REMARK  status: ('A' for Active; 'I' for Inactive)
REMARK    1  A    between atoms: C_4  and  C_5 
REMARK    2  A    between atoms: C_5  and  N_6 
REMARK    3  A    between atoms: C_10  and  C_11 
REMARK    4  A    between atoms: C_11  and  C_12 
REMARK    5  A    between atoms: N_21  and  C_22 
REMARK    6  A    between atoms: C_22  and  C_23 
ROOT
HETATM    1  C   UNL     1      42.323 -15.784   4.420  1.00  0.00     0.164 A 
HETATM    2  N   UNL     1      43.262 -14.746   4.021  1.00  0.00    -0.319 N 
HETATM    3  C   UNL     1      42.771 -13.962   3.003  1.00  0.00     0.326 A 
HETATM    4  O   UNL     1      43.425 -13.072   2.489  1.00  0.00    -0.247 OA
HETATM    5  N   UNL     1      41.493 -14.330   2.742  1.00  0.00    -0.265 N 
HETATM    6  C   UNL     1      41.149 -15.428   3.480  1.00  0.00     0.263 A 
HETATM    7  O   UNL     1      40.060 -15.986   3.463  1.00  0.00    -0.270 OA
HETATM    8  H   UNL     1      44.249 -14.980   3.943  1.00  0.00     0.166 HD
ENDROOT
BRANCH   1   9
HETATM    9  C   UNL     1      41.876 -15.644   5.922  1.00  0.00     0.033 C 
HETATM   10  C   UNL     1      40.739 -14.638   6.186  1.00  0.00     0.036 C 
HETATM   11  C   UNL     1      41.144 -13.181   6.028  1.00  0.00     0.235 C 
HETATM   12  N   UNL     1      42.367 -12.850   6.853  1.00  0.00    -0.067 N 
HETATM   13  H   UNL     1      42.041 -12.797   7.825  1.00  0.00     0.280 HD
HETATM   14  C   UNL     1      43.495 -13.857   6.801  1.00  0.00     0.235 C 
HETATM   15  C   UNL     1      42.995 -15.288   6.919  1.00  0.00     0.036 C 
BRANCH  12  16
HETATM   16  C   UNL     1      42.923 -11.467   6.509  1.00  0.00     0.274 C 
BRANCH  16  17
HETATM   17  C   UNL     1      43.845 -10.868   7.540  1.00  0.00    -0.026 A 
HETATM   18  C   UNL     1      43.271 -10.342   8.719  1.00  0.00     0.016 A 
HETATM   19  C   UNL     1      44.059  -9.795   9.734  1.00  0.00    -0.061 A 
HETATM   20  C   UNL     1      43.434  -9.212  10.969  1.00  0.00     0.048 C 
HETATM   21  C   UNL     1      45.441  -9.750   9.562  1.00  0.00     0.007 A 
HETATM   22  C   UNL     1      46.026 -10.256   8.399  1.00  0.00     0.008 A 
HETATM   23  C   UNL     1      45.245 -10.827   7.381  1.00  0.00    -0.054 A 
HETATM   24  C   UNL     1      45.934 -11.291   6.127  1.00  0.00     0.049 C 
ENDBRANCH  16  17
ENDBRANCH  12  16
ENDBRANCH   1   9
BRANCH   1  25
HETATM   25  C   UNL     1      42.952 -17.142   4.129  1.00  0.00     0.072 A 
HETATM   26  N   UNL     1      43.431 -17.802   5.229  1.00  0.00    -0.262 NA
HETATM   27  C   UNL     1      44.010 -19.010   5.034  1.00  0.00     0.117 A 
HETATM   28  C   UNL     1      44.133 -19.609   3.795  1.00  0.00     0.019 A 
HETATM   29  C   UNL     1      43.629 -18.937   2.689  1.00  0.00     0.003 A 
HETATM   30  C   UNL     1      43.023 -17.694   2.853  1.00  0.00     0.030 A 
ENDBRANCH   1  25
BRANCH   5  31
HETATM   31  C   UNL     1      40.580 -13.576   1.900  1.00  0.00     0.168 C 
BRANCH  31  32
HETATM   32  C   UNL     1      40.740 -13.967   0.424  1.00  0.00     0.140 C 
HETATM   33  O   UNL     1      39.730 -14.924   0.019  1.00  0.00    -0.384 OA
HETATM   34  C   UNL     1      39.363 -14.631  -1.342  1.00  0.00     0.168 C 
HETATM   35  C   UNL     1      40.260 -13.507  -1.819  1.00  0.00     0.029 C 
HETATM   36  C   UNL     1      40.598 -12.797  -0.532  1.00  0.00     0.036 C 
ENDBRANCH  31  32
ENDBRANCH   5  31
TORSDOF 6
ENDMDL
MODEL 2
REMARK VINA RESULT:      -9.4      2.388      7.765
REMARK  6 active torsions:
REMARK  status: ('A' for Active; 'I' for Inactive)
REMARK    1  A    between atoms: C_4  and  C_5 
REMARK    2  A    between atoms: C_5  and  N_6 
REMARK    3  A    between atoms: C_10  and  C_11 
REMARK    4  A    between atoms: C_11  and  C_12 
REMARK    5  A    between atoms: N_21  and  C_22 
REMARK    6  A    between atoms: C_22  and  C_23 
ROOT
HETATM    1  C   UNL     1      40.491 -11.984   2.929  1.00  0.00     0.164 A 
HETATM    2  N   UNL     1      41.915 -12.166   2.684  1.00  0.00    -0.319 N 
HETATM    3  C   UNL     1      42.683 -11.263   3.380  1.00  0.00     0.326 A 
HETATM    4  O   UNL     1      43.895 -11.213   3.269  1.00  0.00    -0.247 OA
HETATM    5  N   UNL     1      41.877 -10.526   4.182  1.00  0.00    -0.265 N 
HETATM    6  C   UNL     1      40.564 -10.831   3.955  1.00  0.00     0.263 A 
HETATM    7  O   UNL     1      39.606 -10.334   4.532  1.00  0.00    -0.270 OA
HETATM    8  H   UNL     1      42.229 -12.355   1.735  1.00  0.00     0.166 HD
ENDROOT
BRANCH   1   9
HETATM    9  C   UNL     1      39.828 -13.251   3.583  1.00  0.00     0.033 C 
HETATM   10  C   UNL     1      40.420 -13.687   4.938  1.00  0.00     0.036 C 
HETATM   11  C   UNL     1      41.812 -14.293   4.846  1.00  0.00     0.235 C 
HETATM   12  N   UNL     1      41.862 -15.422   3.841  1.00  0.00    -0.067 N 
HETATM   13  H   UNL     1      41.396 -16.217   4.292  1.00  0.00     0.280 HD
HETATM   14  C   UNL     1      41.166 -15.168   2.522  1.00  0.00     0.235 C 
HETATM   15  C   UNL     1      39.803 -14.519   2.706  1.00  0.00     0.036 C 
BRANCH  12  16
HETATM   16  C   UNL     1      43.299 -15.867   3.564  1.00  0.00     0.274 C 
BRANCH  16  17
HETATM   17  C   UNL     1      43.579 -17.329   3.800  1.00  0.00    -0.026 A 
HETATM   18  C   UNL     1      43.450 -18.215   2.707  1.00  0.00     0.016 A 
HETATM   19  C   UNL     1      43.719 -19.579   2.837  1.00  0.00    -0.061 A 
HETATM   20  C   UNL     1      43.548 -20.515   1.674  1.00  0.00     0.048 C 
HETATM   21  C   UNL     1      44.100 -20.073   4.082  1.00  0.00     0.007 A 
HETATM   22  C   UNL     1      44.224 -19.215   5.177  1.00  0.00     0.008 A 
HETATM   23  C   UNL     1      43.976 -17.838   5.053  1.00  0.00    -0.054 A 
HETATM   24  C   UNL     1      44.062 -16.983   6.287  1.00  0.00     0.049 C 
ENDBRANCH  16  17
ENDBRANCH  12  16
ENDBRANCH   1   9
BRANCH   1  25
HETATM   25  C   UNL     1      39.821 -11.595   1.616  1.00  0.00     0.072 A 
HETATM   26  N   UNL     1      40.650 -11.586   0.527  1.00  0.00    -0.262 NA
HETATM   27  C   UNL     1      40.115 -11.239  -0.667  1.00  0.00     0.117 A 
HETATM   28  C   UNL     1      38.786 -10.906  -0.843  1.00  0.00     0.019 A 
HETATM   29  C   UNL     1      37.951 -10.934   0.266  1.00  0.00     0.003 A 
HETATM   30  C   UNL     1      38.467 -11.291   1.510  1.00  0.00     0.030 A 
ENDBRANCH   1  25
BRANCH   5  31
HETATM   31  C   UNL     1      42.355  -9.641   5.232  1.00  0.00     0.168 C 
BRANCH  31  32
HETATM   32  C   UNL     1      42.538 -10.401   6.553  1.00  0.00     0.140 C 
HETATM   33  O   UNL     1      43.285 -11.627   6.357  1.00  0.00    -0.384 OA
HETATM   34  C   UNL     1      44.117 -11.828   7.516  1.00  0.00     0.168 C 
HETATM   35  C   UNL     1      43.788 -10.728   8.504  1.00  0.00     0.029 C 
HETATM   36  C   UNL     1      43.307  -9.618   7.601  1.00  0.00     0.036 C 
ENDBRANCH  31  32
ENDBRANCH   5  31
TORSDOF 6
ENDMDL
MODEL 3
REMARK VINA RESULT:      -9.4      2.926      8.293
REMARK  6 active torsions:
REMARK  status: ('A' for Active; 'I' for Inactive)
REMARK    1  A    between atoms: C_4  and  C_5 
REMARK    2  A    between atoms: C_5  and  N_6 
REMARK    3  A    between atoms: C_10  and  C_11 
REMARK    4  A    between atoms: C_11  and  C_12 
REMARK    5  A    between atoms: N_21  and  C_22 
REMARK    6  A    between atoms: C_22  and  C_23 
ROOT
HETATM    1  C   UNL     1      40.851 -11.489   4.266  1.00  0.00     0.164 A 
HETATM    2  N   UNL     1      42.152 -11.583   3.619  1.00  0.00    -0.319 N 
HETATM    3  C   UNL     1      43.189 -11.442   4.511  1.00  0.00     0.326 A 
HETATM    4  O   UNL     1      44.356 -11.435   4.161  1.00  0.00    -0.247 OA
HETATM    5  N   UNL     1      42.682 -11.360   5.765  1.00  0.00    -0.265 N 
HETATM    6  C   UNL     1      41.316 -11.323   5.730  1.00  0.00     0.263 A 
HETATM    7  O   UNL     1      40.579 -11.255   6.705  1.00  0.00    -0.270 OA
HETATM    8  H   UNL     1      42.289 -11.119   2.724  1.00  0.00     0.166 HD
ENDROOT
BRANCH   1   9
HETATM    9  C   UNL     1      40.007 -12.808   4.112  1.00  0.00     0.033 C 
HETATM   10  C   UNL     1      40.302 -13.911   5.148  1.00  0.00     0.036 C 
HETATM   11  C   UNL     1      41.651 -14.590   4.969  1.00  0.00     0.235 C 
HETATM   12  N   UNL     1      41.835 -15.104   3.559  1.00  0.00    -0.067 N 
HETATM   13  H   UNL     1      41.248 -15.943   3.490  1.00  0.00     0.280 HD
HETATM   14  C   UNL     1      41.421 -14.161   2.451  1.00  0.00     0.235 C 
HETATM   15  C   UNL     1      40.085 -13.492   2.733  1.00  0.00     0.036 C 
BRANCH  12  16
HETATM   16  C   UNL     1      43.272 -15.561   3.308  1.00  0.00     0.274 C 
BRANCH  16  17
HETATM   17  C   UNL     1      43.543 -17.018   3.584  1.00  0.00    -0.026 A 
HETATM   18  C   UNL     1      43.269 -17.950   2.559  1.00  0.00     0.016 A 
HETATM   19  C   UNL     1      43.519 -19.314   2.725  1.00  0.00    -0.061 A 
HETATM   20  C   UNL     1      43.194 -20.298   1.637  1.00  0.00     0.048 C 
HETATM   21  C   UNL     1      44.029 -19.760   3.942  1.00  0.00     0.007 A 
HETATM   22  C   UNL     1      44.297 -18.855   4.972  1.00  0.00     0.008 A 
HETATM   23  C   UNL     1      44.070 -17.479   4.807  1.00  0.00    -0.054 A 
HETATM   24  C   UNL     1      44.317 -16.570   5.980  1.00  0.00     0.049 C 
ENDBRANCH  16  17
ENDBRANCH  12  16
ENDBRANCH   1   9
BRANCH   1  25
HETATM   25  C   UNL     1      40.122 -10.270   3.711  1.00  0.00     0.072 A 
HETATM   26  N   UNL     1      40.929  -9.206   3.409  1.00  0.00    -0.262 NA
HETATM   27  C   UNL     1      40.339  -8.090   2.920  1.00  0.00     0.117 A 
HETATM   28  C   UNL     1      38.979  -7.973   2.706  1.00  0.00     0.019 A 
HETATM   29  C   UNL     1      38.173  -9.065   3.002  1.00  0.00     0.003 A 
HETATM   30  C   UNL     1      38.747 -10.232   3.501  1.00  0.00     0.030 A 
ENDBRANCH   1  25
BRANCH   5  31
HETATM   31  C   UNL     1      43.480 -11.442   6.977  1.00  0.00     0.168 C 
BRANCH  31  32
HETATM   32  C   UNL     1      44.139 -10.093   7.297  1.00  0.00     0.140 C 
HETATM   33  O   UNL     1      43.434  -9.401   8.357  1.00  0.00    -0.384 OA
HETATM   34  C   UNL     1      44.410  -8.706   9.156  1.00  0.00     0.168 C 
HETATM   35  C   UNL     1      45.759  -8.904   8.495  1.00  0.00     0.029 C 
HETATM   36  C   UNL     1      45.574 -10.217   7.775  1.00  0.00     0.036 C 
ENDBRANCH  31  32
ENDBRANCH   5  31
TORSDOF 6
ENDMDL
MODEL 4
REMARK VINA RESULT:      -9.2      1.746      2.283
REMARK  6 active torsions:
REMARK  status: ('A' for Active; 'I' for Inactive)
REMARK    1  A    between atoms: C_4  and  C_5 
REMARK    2  A    between atoms: C_5  and  N_6 
REMARK    3  A    between atoms: C_10  and  C_11 
REMARK    4  A    between atoms: C_11  and  C_12 
REMARK    5  A    between atoms: N_21  and  C_22 
REMARK    6  A    between atoms: C_22  and  C_23 
ROOT
HETATM    1  C   UNL     1      41.388 -13.608   3.611  1.00  0.00     0.164 A 
HETATM    2  N   UNL     1      42.320 -12.506   3.419  1.00  0.00    -0.319 N 
HETATM    3  C   UNL     1      41.810 -11.530   2.596  1.00  0.00     0.326 A 
HETATM    4  O   UNL     1      42.455 -10.550   2.266  1.00  0.00    -0.247 OA
HETATM    5  N   UNL     1      40.528 -11.840   2.287  1.00  0.00    -0.265 N 
HETATM    6  C   UNL     1      40.197 -13.069   2.788  1.00  0.00     0.263 A 
HETATM    7  O   UNL     1      39.107 -13.615   2.675  1.00  0.00    -0.270 OA
HETATM    8  H   UNL     1      43.305 -12.716   3.276  1.00  0.00     0.166 HD
ENDROOT
BRANCH   1   9
HETATM    9  C   UNL     1      40.970 -13.785   5.117  1.00  0.00     0.033 C 
HETATM   10  C   UNL     1      40.158 -12.622   5.723  1.00  0.00     0.036 C 
HETATM   11  C   UNL     1      40.963 -11.352   5.953  1.00  0.00     0.235 C 
HETATM   12  N   UNL     1      42.213 -11.622   6.759  1.00  0.00    -0.067 N 
HETATM   13  H   UNL     1      41.896 -11.761   7.725  1.00  0.00     0.280 HD
HETATM   14  C   UNL     1      43.011 -12.843   6.357  1.00  0.00     0.235 C 
HETATM   15  C   UNL     1      42.124 -14.052   6.103  1.00  0.00     0.036 C 
BRANCH  12  16
HETATM   16  C   UNL     1      43.143 -10.409   6.781  1.00  0.00     0.274 C 
BRANCH  16  17
HETATM   17  C   UNL     1      43.695 -10.042   8.135  1.00  0.00    -0.026 A 
HETATM   18  C   UNL     1      42.804  -9.509   9.093  1.00  0.00     0.016 A 
HETATM   19  C   UNL     1      43.230  -9.171  10.379  1.00  0.00    -0.061 A 
HETATM   20  C   UNL     1      42.278  -8.576  11.378  1.00  0.00     0.048 C 
HETATM   21  C   UNL     1      44.572  -9.346  10.710  1.00  0.00     0.007 A 
HETATM   22  C   UNL     1      45.470  -9.863   9.774  1.00  0.00     0.008 A 
HETATM   23  C   UNL     1      45.048 -10.226   8.485  1.00  0.00    -0.054 A 
HETATM   24  C   UNL     1      46.081 -10.713   7.505  1.00  0.00     0.049 C 
ENDBRANCH  16  17
ENDBRANCH  12  16
ENDBRANCH   1   9
BRANCH   1  25
HETATM   25  C   UNL     1      42.011 -14.874   3.033  1.00  0.00     0.072 A 
HETATM   26  N   UNL     1      41.504 -16.044   3.530  1.00  0.00    -0.262 NA
HETATM   27  C   UNL     1      42.023 -17.203   3.062  1.00  0.00     0.117 A 
HETATM   28  C   UNL     1      43.023 -17.265   2.111  1.00  0.00     0.019 A 
HETATM   29  C   UNL     1      43.519 -16.072   1.602  1.00  0.00     0.003 A 
HETATM   30  C   UNL     1      43.005 -14.860   2.058  1.00  0.00     0.030 A 
ENDBRANCH   1  25
BRANCH   5  31
HETATM   31  C   UNL     1      39.599 -10.930   1.638  1.00  0.00     0.168 C 
BRANCH  31  32
HETATM   32  C   UNL     1      39.474 -11.246   0.140  1.00  0.00     0.140 C 
HETATM   33  O   UNL     1      40.429 -12.256  -0.267  1.00  0.00    -0.384 OA
HETATM   34  C   UNL     1      39.801 -13.081  -1.267  1.00  0.00     0.168 C 
HETATM   35  C   UNL     1      38.437 -12.485  -1.552  1.00  0.00     0.029 C 
HETATM   36  C   UNL     1      38.113 -11.790  -0.253  1.00  0.00     0.036 C 
ENDBRANCH  31  32
ENDBRANCH   5  31
TORSDOF 6
ENDMDL
MODEL 5
REMARK VINA RESULT:      -9.1      2.136      7.184
REMARK  6 active torsions:
REMARK  status: ('A' for Active; 'I' for Inactive)
REMARK    1  A    between atoms: C_4  and  C_5 
REMARK    2  A    between atoms: C_5  and  N_6 
REMARK    3  A    between atoms: C_10  and  C_11 
REMARK    4  A    between atoms: C_11  and  C_12 
REMARK    5  A    between atoms: N_21  and  C_22 
REMARK    6  A    between atoms: C_22  and  C_23 
ROOT
HETATM    1  C   UNL     1      42.142 -10.847   6.243  1.00  0.00     0.164 A 
HETATM    2  N   UNL     1      41.160 -11.866   6.585  1.00  0.00    -0.319 N 
HETATM    3  C   UNL     1      40.053 -11.816   5.772  1.00  0.00     0.326 A 
HETATM    4  O   UNL     1      39.092 -12.549   5.929  1.00  0.00    -0.247 OA
HETATM    5  N   UNL     1      40.255 -10.884   4.809  1.00  0.00    -0.265 N 
HETATM    6  C   UNL     1      41.428 -10.216   5.026  1.00  0.00     0.263 A 
HETATM    7  O   UNL     1      41.881  -9.324   4.322  1.00  0.00    -0.270 OA
HETATM    8  H   UNL     1      40.964 -12.048   7.566  1.00  0.00     0.166 HD
ENDROOT
BRANCH   1   9
HETATM    9  C   UNL     1      43.520 -11.464   5.802  1.00  0.00     0.033 C 
HETATM   10  C   UNL     1      43.603 -11.926   4.333  1.00  0.00     0.036 C 
HETATM   11  C   UNL     1      42.789 -13.172   4.024  1.00  0.00     0.235 C 
HETATM   12  N   UNL     1      43.121 -14.304   4.970  1.00  0.00    -0.067 N 
HETATM   13  H   UNL     1      44.035 -14.660   4.669  1.00  0.00     0.280 HD
HETATM   14  C   UNL     1      43.228 -13.935   6.433  1.00  0.00     0.235 C 
HETATM   15  C   UNL     1      44.018 -12.654   6.646  1.00  0.00     0.036 C 
BRANCH  12  16
HETATM   16  C   UNL     1      42.138 -15.467   4.824  1.00  0.00     0.274 C 
BRANCH  16  17
HETATM   17  C   UNL     1      42.665 -16.668   4.081  1.00  0.00    -0.026 A 
HETATM   18  C   UNL     1      43.302 -17.684   4.828  1.00  0.00     0.016 A 
HETATM   19  C   UNL     1      43.792 -18.841   4.219  1.00  0.00    -0.061 A 
HETATM   20  C   UNL     1      44.494 -19.900   5.021  1.00  0.00     0.048 C 
HETATM   21  C   UNL     1      43.667 -18.978   2.838  1.00  0.00     0.007 A 
HETATM   22  C   UNL     1      43.049 -17.980   2.081  1.00  0.00     0.008 A 
HETATM   23  C   UNL     1      42.534 -16.823   2.687  1.00  0.00    -0.054 A 
HETATM   24  C   UNL     1      41.943 -15.758   1.804  1.00  0.00     0.049 C 
ENDBRANCH  16  17
ENDBRANCH  12  16
ENDBRANCH   1   9
BRANCH   1  25
HETATM   25  C   UNL     1      42.288  -9.899   7.428  1.00  0.00     0.072 A 
HETATM   26  N   UNL     1      41.125  -9.636   8.101  1.00  0.00    -0.262 NA
HETATM   27  C   UNL     1      41.188  -8.793   9.158  1.00  0.00     0.117 A 
HETATM   28  C   UNL     1      42.356  -8.196   9.593  1.00  0.00     0.019 A 
HETATM   29  C   UNL     1      43.531  -8.482   8.912  1.00  0.00     0.003 A 
HETATM   30  C   UNL     1      43.505  -9.349   7.822  1.00  0.00     0.030 A 
ENDBRANCH   1  25
BRANCH   5  31
HETATM   31  C   UNL     1      39.409 -10.720   3.639  1.00  0.00     0.168 C 
BRANCH  31  32
HETATM   32  C   UNL     1      39.792 -11.717   2.537  1.00  0.00     0.140 C 
HETATM   33  O   UNL     1      38.640 -12.094   1.743  1.00  0.00    -0.384 OA
HETATM   34  C   UNL     1      39.077 -12.262   0.381  1.00  0.00     0.168 C 
HETATM   35  C   UNL     1      40.581 -12.076   0.364  1.00  0.00     0.029 C 
HETATM   36  C   UNL     1      40.806 -11.170   1.549  1.00  0.00     0.036 C 
ENDBRANCH  31  32
ENDBRANCH   5  31
TORSDOF 6
ENDMDL
MODEL 6
REMARK VINA RESULT:      -8.9      2.022      7.886
REMARK  6 active torsions:
REMARK  status: ('A' for Active; 'I' for Inactive)
REMARK    1  A    between atoms: C_4  and  C_5 
REMARK    2  A    between atoms: C_5  and  N_6 
REMARK    3  A    between atoms: C_10  and  C_11 
REMARK    4  A    between atoms: C_11  and  C_12 
REMARK    5  A    between atoms: N_21  and  C_22 
REMARK    6  A    between atoms: C_22  and  C_23 
ROOT
HETATM    1  C   UNL     1      42.452 -12.752   4.518  1.00  0.00     0.164 A 
HETATM    2  N   UNL     1      43.065 -12.882   3.204  1.00  0.00    -0.319 N 
HETATM    3  C   UNL     1      43.142 -14.192   2.792  1.00  0.00     0.326 A 
HETATM    4  O   UNL     1      43.672 -14.518   1.745  1.00  0.00    -0.247 OA
HETATM    5  N   UNL     1      42.517 -14.977   3.704  1.00  0.00    -0.265 N 
HETATM    6  C   UNL     1      42.123 -14.238   4.785  1.00  0.00     0.263 A 
HETATM    7  O   UNL     1      41.530 -14.669   5.765  1.00  0.00    -0.270 OA
HETATM    8  H   UNL     1      43.881 -12.316   2.986  1.00  0.00     0.166 HD
ENDROOT
BRANCH   1   9
HETATM    9  C   UNL     1      41.128 -11.903   4.482  1.00  0.00     0.033 C 
HETATM   10  C   UNL     1      39.919 -12.585   3.813  1.00  0.00     0.036 C 
HETATM   11  C   UNL     1      40.035 -12.722   2.303  1.00  0.00     0.235 C 
HETATM   12  N   UNL     1      40.345 -11.397   1.645  1.00  0.00    -0.067 N 
HETATM   13  H   UNL     1      39.469 -10.863   1.667  1.00  0.00     0.280 HD
HETATM   14  C   UNL     1      41.412 -10.558   2.314  1.00  0.00     0.235 C 
HETATM   15  C   UNL     1      41.246 -10.514   3.825  1.00  0.00     0.036 C 
BRANCH  12  16
HETATM   16  C   UNL     1      40.706 -11.571   0.169  1.00  0.00     0.274 C 
BRANCH  16  17
HETATM   17  C   UNL     1      39.580 -12.034  -0.720  1.00  0.00    -0.026 A 
HETATM   18  C   UNL     1      39.649 -13.341  -1.252  1.00  0.00     0.016 A 
HETATM   19  C   UNL     1      38.634 -13.855  -2.061  1.00  0.00    -0.061 A 
HETATM   20  C   UNL     1      38.735 -15.236  -2.645  1.00  0.00     0.048 C 
HETATM   21  C   UNL     1      37.541 -13.045  -2.365  1.00  0.00     0.007 A 
HETATM   22  C   UNL     1      37.460 -11.747  -1.856  1.00  0.00     0.008 A 
HETATM   23  C   UNL     1      38.465 -11.228  -1.025  1.00  0.00    -0.054 A 
HETATM   24  C   UNL     1      38.347  -9.799  -0.568  1.00  0.00     0.049 C 
ENDBRANCH  16  17
ENDBRANCH  12  16
ENDBRANCH   1   9
BRANCH   1  25
HETATM   25  C   UNL     1      43.484 -12.171   5.478  1.00  0.00     0.072 A 
HETATM   26  N   UNL     1      43.090 -12.123   6.788  1.00  0.00    -0.262 NA
HETATM   27  C   UNL     1      43.961 -11.608   7.688  1.00  0.00     0.117 A 
HETATM   28  C   UNL     1      45.218 -11.140   7.356  1.00  0.00     0.019 A 
HETATM   29  C   UNL     1      45.612 -11.208   6.026  1.00  0.00     0.003 A 
HETATM   30  C   UNL     1      44.744 -11.736   5.074  1.00  0.00     0.030 A 
ENDBRANCH   1  25
BRANCH   5  31
HETATM   31  C   UNL     1      42.192 -16.377   3.491  1.00  0.00     0.168 C 
BRANCH  31  32
HETATM   32  C   UNL     1      43.409 -17.274   3.759  1.00  0.00     0.140 C 
HETATM   33  O   UNL     1      43.428 -17.741   5.130  1.00  0.00    -0.384 OA
HETATM   34  C   UNL     1      43.947 -19.084   5.133  1.00  0.00     0.168 C 
HETATM   35  C   UNL     1      44.353 -19.414   3.710  1.00  0.00     0.029 C 
HETATM   36  C   UNL     1      43.441 -18.525   2.902  1.00  0.00     0.036 C 
ENDBRANCH  31  32
ENDBRANCH   5  31
TORSDOF 6
ENDMDL
MODEL 7
REMARK VINA RESULT:      -8.8      1.361      2.170
REMARK  6 active torsions:
REMARK  status: ('A' for Active; 'I' for Inactive)
REMARK    1  A    between atoms: C_4  and  C_5 
REMARK    2  A    between atoms: C_5  and  N_6 
REMARK    3  A    between atoms: C_10  and  C_11 
REMARK    4  A    between atoms: C_11  and  C_12 
REMARK    5  A    between atoms: N_21  and  C_22 
REMARK    6  A    between atoms: C_22  and  C_23 
ROOT
HETATM    1  C   UNL     1      42.319 -15.927   4.199  1.00  0.00     0.164 A 
HETATM    2  N   UNL     1      43.301 -14.921   3.821  1.00  0.00    -0.319 N 
HETATM    3  C   UNL     1      42.871 -14.140   2.773  1.00  0.00     0.326 A 
HETATM    4  O   UNL     1      43.568 -13.277   2.271  1.00  0.00    -0.247 OA
HETATM    5  N   UNL     1      41.594 -14.479   2.468  1.00  0.00    -0.265 N 
HETATM    6  C   UNL     1      41.192 -15.554   3.209  1.00  0.00     0.263 A 
HETATM    7  O   UNL     1      40.089 -16.083   3.158  1.00  0.00    -0.270 OA
HETATM    8  H   UNL     1      44.283 -15.183   3.785  1.00  0.00     0.166 HD
ENDROOT
BRANCH   1   9
HETATM    9  C   UNL     1      41.819 -15.750   5.680  1.00  0.00     0.033 C 
HETATM   10  C   UNL     1      40.778 -14.635   5.902  1.00  0.00     0.036 C 
HETATM   11  C   UNL     1      41.336 -13.226   5.778  1.00  0.00     0.235 C 
HETATM   12  N   UNL     1      42.546 -13.026   6.662  1.00  0.00    -0.067 N 
HETATM   13  H   UNL     1      42.182 -12.945   7.618  1.00  0.00     0.280 HD
HETATM   14  C   UNL     1      43.568 -14.141   6.650  1.00  0.00     0.235 C 
HETATM   15  C   UNL     1      42.921 -15.515   6.732  1.00  0.00     0.036 C 
BRANCH  12  16
HETATM   16  C   UNL     1      43.254 -11.704   6.358  1.00  0.00     0.274 C 
BRANCH  16  17
HETATM   17  C   UNL     1      43.244 -10.694   7.477  1.00  0.00    -0.026 A 
HETATM   18  C   UNL     1      44.279 -10.758   8.437  1.00  0.00     0.016 A 
HETATM   19  C   UNL     1      44.357  -9.841   9.488  1.00  0.00    -0.061 A 
HETATM   20  C   UNL     1      45.445  -9.939  10.519  1.00  0.00     0.048 C 
HETATM   21  C   UNL     1      43.374  -8.859   9.598  1.00  0.00     0.007 A 
HETATM   22  C   UNL     1      42.338  -8.787   8.665  1.00  0.00     0.008 A 
HETATM   23  C   UNL     1      42.262  -9.690   7.592  1.00  0.00    -0.054 A 
HETATM   24  C   UNL     1      41.082  -9.597   6.663  1.00  0.00     0.049 C 
ENDBRANCH  16  17
ENDBRANCH  12  16
ENDBRANCH   1   9
BRANCH   1  25
HETATM   25  C   UNL     1      42.921 -17.306   3.954  1.00  0.00     0.072 A 
HETATM   26  N   UNL     1      43.398 -17.933   5.072  1.00  0.00    -0.262 NA
HETATM   27  C   UNL     1      43.954 -19.158   4.918  1.00  0.00     0.117 A 
HETATM   28  C   UNL     1      44.054 -19.804   3.701  1.00  0.00     0.019 A 
HETATM   29  C   UNL     1      43.552 -19.165   2.575  1.00  0.00     0.003 A 
HETATM   30  C   UNL     1      42.970 -17.906   2.698  1.00  0.00     0.030 A 
ENDBRANCH   1  25
BRANCH   5  31
HETATM   31  C   UNL     1      40.735 -13.713   1.580  1.00  0.00     0.168 C 
BRANCH  31  32
HETATM   32  C   UNL     1      40.365 -12.359   2.202  1.00  0.00     0.140 C 
HETATM   33  O   UNL     1      40.144 -11.354   1.183  1.00  0.00    -0.384 OA
HETATM   34  C   UNL     1      39.078 -10.495   1.632  1.00  0.00     0.168 C 
HETATM   35  C   UNL     1      38.701 -10.939   3.031  1.00  0.00     0.029 C 
HETATM   36  C   UNL     1      39.088 -12.397   3.020  1.00  0.00     0.036 C 
ENDBRANCH  31  32
ENDBRANCH   5  31
TORSDOF 6
ENDMDL
MODEL 8
REMARK VINA RESULT:      -8.5      3.127      7.693
REMARK  6 active torsions:
REMARK  status: ('A' for Active; 'I' for Inactive)
REMARK    1  A    between atoms: C_4  and  C_5 
REMARK    2  A    between atoms: C_5  and  N_6 
REMARK    3  A    between atoms: C_10  and  C_11 
REMARK    4  A    between atoms: C_11  and  C_12 
REMARK    5  A    between atoms: N_21  and  C_22 
REMARK    6  A    between atoms: C_22  and  C_23 
ROOT
HETATM    1  C   UNL     1      42.415 -10.630   6.401  1.00  0.00     0.164 A 
HETATM    2  N   UNL     1      41.446 -11.647   6.783  1.00  0.00    -0.319 N 
HETATM    3  C   UNL     1      40.294 -11.576   6.034  1.00  0.00     0.326 A 
HETATM    4  O   UNL     1      39.338 -12.304   6.235  1.00  0.00    -0.247 OA
HETATM    5  N   UNL     1      40.450 -10.630   5.077  1.00  0.00    -0.265 N 
HETATM    6  C   UNL     1      41.639  -9.975   5.236  1.00  0.00     0.263 A 
HETATM    7  O   UNL     1      42.059  -9.075   4.521  1.00  0.00    -0.270 OA
HETATM    8  H   UNL     1      41.304 -11.843   7.770  1.00  0.00     0.166 HD
ENDROOT
BRANCH   1   9
HETATM    9  C   UNL     1      43.761 -11.252   5.874  1.00  0.00     0.033 C 
HETATM   10  C   UNL     1      43.798 -11.575   4.367  1.00  0.00     0.036 C 
HETATM   11  C   UNL     1      42.933 -12.758   3.960  1.00  0.00     0.235 C 
HETATM   12  N   UNL     1      43.240 -13.984   4.789  1.00  0.00    -0.067 N 
HETATM   13  H   UNL     1      44.135 -14.342   4.436  1.00  0.00     0.280 HD
HETATM   14  C   UNL     1      43.390 -13.759   6.277  1.00  0.00     0.235 C 
HETATM   15  C   UNL     1      44.230 -12.532   6.592  1.00  0.00     0.036 C 
BRANCH  12  16
HETATM   16  C   UNL     1      42.213 -15.093   4.557  1.00  0.00     0.274 C 
BRANCH  16  17
HETATM   17  C   UNL     1      42.760 -16.366   3.961  1.00  0.00    -0.026 A 
HETATM   18  C   UNL     1      43.165 -17.392   4.844  1.00  0.00     0.016 A 
HETATM   19  C   UNL     1      43.655 -18.611   4.371  1.00  0.00    -0.061 A 
HETATM   20  C   UNL     1      44.110 -19.682   5.321  1.00  0.00     0.048 C 
HETATM   21  C   UNL     1      43.766 -18.803   2.995  1.00  0.00     0.007 A 
HETATM   22  C   UNL     1      43.380 -17.796   2.107  1.00  0.00     0.008 A 
HETATM   23  C   UNL     1      42.866 -16.575   2.572  1.00  0.00    -0.054 A 
HETATM   24  C   UNL     1      42.533 -15.510   1.562  1.00  0.00     0.049 C 
ENDBRANCH  16  17
ENDBRANCH  12  16
ENDBRANCH   1   9
BRANCH   1  25
HETATM   25  C   UNL     1      42.636  -9.702   7.590  1.00  0.00     0.072 A 
HETATM   26  N   UNL     1      41.505  -9.397   8.299  1.00  0.00    -0.262 NA
HETATM   27  C   UNL     1      41.635  -8.569   9.362  1.00  0.00     0.117 A 
HETATM   28  C   UNL     1      42.839  -8.028   9.769  1.00  0.00     0.019 A 
HETATM   29  C   UNL     1      43.982  -8.357   9.052  1.00  0.00     0.003 A 
HETATM   30  C   UNL     1      43.886  -9.210   7.955  1.00  0.00     0.030 A 
ENDBRANCH   1  25
BRANCH   5  31
HETATM   31  C   UNL     1      39.541 -10.440   3.958  1.00  0.00     0.168 C 
BRANCH  31  32
HETATM   32  C   UNL     1      38.979  -9.012   3.940  1.00  0.00     0.140 C 
HETATM   33  O   UNL     1      38.363  -8.704   2.665  1.00  0.00    -0.384 OA
HETATM   34  C   UNL     1      37.221  -7.864   2.917  1.00  0.00     0.168 C 
HETATM   35  C   UNL     1      37.197  -7.568   4.403  1.00  0.00     0.029 C 
HETATM   36  C   UNL     1      37.902  -8.770   4.981  1.00  0.00     0.036 C 
ENDBRANCH  31  32
ENDBRANCH   5  31
TORSDOF 6
ENDMDL
MODEL 9
REMARK VINA RESULT:      -8.5      3.710      7.202
REMARK  6 active torsions:
REMARK  status: ('A' for Active; 'I' for Inactive)
REMARK    1  A    between atoms: C_4  and  C_5 
REMARK    2  A    between atoms: C_5  and  N_6 
REMARK    3  A    between atoms: C_10  and  C_11 
REMARK    4  A    between atoms: C_11  and  C_12 
REMARK    5  A    between atoms: N_21  and  C_22 
REMARK    6  A    between atoms: C_22  and  C_23 
ROOT
HETATM    1  C   UNL     1      41.295 -11.210   4.763  1.00  0.00     0.164 A 
HETATM    2  N   UNL     1      40.170 -11.899   5.378  1.00  0.00    -0.319 N 
HETATM    3  C   UNL     1      39.307 -11.031   6.006  1.00  0.00     0.326 A 
HETATM    4  O   UNL     1      38.332 -11.414   6.628  1.00  0.00    -0.247 OA
HETATM    5  N   UNL     1      39.714  -9.760   5.771  1.00  0.00    -0.265 N 
HETATM    6  C   UNL     1      40.903  -9.753   5.096  1.00  0.00     0.263 A 
HETATM    7  O   UNL     1      41.515  -8.755   4.739  1.00  0.00    -0.270 OA
HETATM    8  H   UNL     1      40.340 -12.769   5.876  1.00  0.00     0.166 HD
ENDROOT
BRANCH   1   9
HETATM    9  C   UNL     1      41.345 -11.415   3.204  1.00  0.00     0.033 C 
HETATM   10  C   UNL     1      40.005 -11.792   2.540  1.00  0.00     0.036 C 
HETATM   11  C   UNL     1      39.531 -13.204   2.848  1.00  0.00     0.235 C 
HETATM   12  N   UNL     1      40.599 -14.230   2.543  1.00  0.00    -0.067 N 
HETATM   13  H   UNL     1      40.620 -14.313   1.520  1.00  0.00     0.280 HD
HETATM   14  C   UNL     1      41.998 -13.889   3.007  1.00  0.00     0.235 C 
HETATM   15  C   UNL     1      42.371 -12.448   2.700  1.00  0.00     0.036 C 
BRANCH  12  16
HETATM   16  C   UNL     1      40.222 -15.612   3.079  1.00  0.00     0.274 C 
BRANCH  16  17
HETATM   17  C   UNL     1      41.308 -16.324   3.845  1.00  0.00    -0.026 A 
HETATM   18  C   UNL     1      42.244 -17.089   3.114  1.00  0.00     0.016 A 
HETATM   19  C   UNL     1      43.296 -17.755   3.747  1.00  0.00    -0.061 A 
HETATM   20  C   UNL     1      44.267 -18.589   2.961  1.00  0.00     0.048 C 
HETATM   21  C   UNL     1      43.403 -17.678   5.134  1.00  0.00     0.007 A 
HETATM   22  C   UNL     1      42.481 -16.935   5.875  1.00  0.00     0.008 A 
HETATM   23  C   UNL     1      41.432 -16.244   5.247  1.00  0.00    -0.054 A 
HETATM   24  C   UNL     1      40.436 -15.519   6.111  1.00  0.00     0.049 C 
ENDBRANCH  16  17
ENDBRANCH  12  16
ENDBRANCH   1   9
BRANCH   1  25
HETATM   25  C   UNL     1      42.577 -11.673   5.446  1.00  0.00     0.072 A 
HETATM   26  N   UNL     1      43.691 -10.941   5.135  1.00  0.00    -0.262 NA
HETATM   27  C   UNL     1      44.863 -11.308   5.704  1.00  0.00     0.117 A 
HETATM   28  C   UNL     1      44.990 -12.369   6.581  1.00  0.00     0.019 A 
HETATM   29  C   UNL     1      43.849 -13.095   6.901  1.00  0.00     0.003 A 
HETATM   30  C   UNL     1      42.625 -12.741   6.337  1.00  0.00     0.030 A 
ENDBRANCH   1  25
BRANCH   5  31
HETATM   31  C   UNL     1      38.923  -8.579   6.072  1.00  0.00     0.168 C 
BRANCH  31  32
HETATM   32  C   UNL     1      37.930  -8.276   4.942  1.00  0.00     0.140 C 
HETATM   33  O   UNL     1      36.621  -7.939   5.465  1.00  0.00    -0.384 OA
HETATM   34  C   UNL     1      36.051  -6.929   4.613  1.00  0.00     0.168 C 
HETATM   35  C   UNL     1      37.014  -6.712   3.464  1.00  0.00     0.029 C 
HETATM   36  C   UNL     1      38.337  -7.099   4.076  1.00  0.00     0.036 C 
ENDBRANCH  31  32
ENDBRANCH   5  31
TORSDOF 6
ENDMDL
MODEL 10
REMARK VINA RESULT:      -8.4      2.870      8.325
REMARK  6 active torsions:
REMARK  status: ('A' for Active; 'I' for Inactive)
REMARK    1  A    between atoms: C_4  and  C_5 
REMARK    2  A    between atoms: C_5  and  N_6 
REMARK    3  A    between atoms: C_10  and  C_11 
REMARK    4  A    between atoms: C_11  and  C_12 
REMARK    5  A    between atoms: N_21  and  C_22 
REMARK    6  A    between atoms: C_22  and  C_23 
ROOT
HETATM    1  C   UNL     1      42.936 -12.865   5.440  1.00  0.00     0.164 A 
HETATM    2  N   UNL     1      41.681 -12.131   5.524  1.00  0.00    -0.319 N 
HETATM    3  C   UNL     1      41.766 -11.048   6.367  1.00  0.00     0.326 A 
HETATM    4  O   UNL     1      40.808 -10.338   6.617  1.00  0.00    -0.247 OA
HETATM    5  N   UNL     1      43.045 -10.924   6.796  1.00  0.00    -0.265 N 
HETATM    6  C   UNL     1      43.805 -11.971   6.354  1.00  0.00     0.263 A 
HETATM    7  O   UNL     1      44.998 -12.130   6.576  1.00  0.00    -0.270 OA
HETATM    8  H   UNL     1      40.811 -12.654   5.583  1.00  0.00     0.166 HD
ENDROOT
BRANCH   1   9
HETATM    9  C   UNL     1      43.525 -12.882   3.982  1.00  0.00     0.033 C 
HETATM   10  C   UNL     1      43.563 -11.518   3.264  1.00  0.00     0.036 C 
HETATM   11  C   UNL     1      42.197 -10.991   2.853  1.00  0.00     0.235 C 
HETATM   12  N   UNL     1      41.425 -12.010   2.047  1.00  0.00    -0.067 N 
HETATM   13  H   UNL     1      41.856 -12.013   1.115  1.00  0.00     0.280 HD
HETATM   14  C   UNL     1      41.452 -13.429   2.571  1.00  0.00     0.235 C 
HETATM   15  C   UNL     1      42.847 -13.857   3.000  1.00  0.00     0.036 C 
BRANCH  12  16
HETATM   16  C   UNL     1      39.970 -11.586   1.845  1.00  0.00     0.274 C 
BRANCH  16  17
HETATM   17  C   UNL     1      39.450 -11.711   0.436  1.00  0.00    -0.026 A 
HETATM   18  C   UNL     1      40.379 -11.988  -0.592  1.00  0.00     0.016 A 
HETATM   19  C   UNL     1      39.974 -12.147  -1.919  1.00  0.00    -0.061 A 
HETATM   20  C   UNL     1      40.976 -12.412  -3.007  1.00  0.00     0.048 C 
HETATM   21  C   UNL     1      38.624 -12.005  -2.232  1.00  0.00     0.007 A 
HETATM   22  C   UNL     1      37.692 -11.721  -1.231  1.00  0.00     0.008 A 
HETATM   23  C   UNL     1      38.085 -11.580   0.110  1.00  0.00    -0.054 A 
HETATM   24  C   UNL     1      37.040 -11.207   1.125  1.00  0.00     0.049 C 
ENDBRANCH  16  17
ENDBRANCH  12  16
ENDBRANCH   1   9
BRANCH   1  25
HETATM   25  C   UNL     1      42.712 -14.269   5.989  1.00  0.00     0.072 A 
HETATM   26  N   UNL     1      43.853 -15.004   6.172  1.00  0.00    -0.262 NA
HETATM   27  C   UNL     1      43.719 -16.264   6.648  1.00  0.00     0.117 A 
HETATM   28  C   UNL     1      42.502 -16.838   6.964  1.00  0.00     0.019 A 
HETATM   29  C   UNL     1      41.353 -16.078   6.789  1.00  0.00     0.003 A 
HETATM   30  C   UNL     1      41.454 -14.775   6.305  1.00  0.00     0.030 A 
ENDBRANCH   1  25
BRANCH   5  31
HETATM   31  C   UNL     1      43.561  -9.765   7.506  1.00  0.00     0.168 C 
BRANCH  31  32
HETATM   32  C   UNL     1      43.527  -9.987   9.024  1.00  0.00     0.140 C 
HETATM   33  O   UNL     1      44.729 -10.650   9.487  1.00  0.00    -0.384 OA
HETATM   34  C   UNL     1      45.059 -10.114  10.782  1.00  0.00     0.168 C 
HETATM   35  C   UNL     1      43.953  -9.152  11.168  1.00  0.00     0.029 C 
HETATM   36  C   UNL     1      43.437  -8.701   9.824  1.00  0.00     0.036 C 
ENDBRANCH  31  32
ENDBRANCH   5  31
TORSDOF 6
ENDMDL
