MODEL 1
REMARK VINA RESULT:      -8.6      0.000      0.000
REMARK  6 active torsions:
REMARK  status: ('A' for Active; 'I' for Inactive)
REMARK    1  A    between atoms: C_2  and  O_3 
REMARK    2  A    between atoms: O_3  and  C_4 
REMARK    3  A    between atoms: C_5  and  O_6 
REMARK    4  A    between atoms: C_9  and  C_10 
REMARK    5  A    between atoms: C_19  and  C_20 
REMARK    6  A    between atoms: C_22  and  O_23 
ROOT
HETATM    1  C   UNL     1      40.858 -13.843   4.607  1.00  0.00     0.156 A 
HETATM    2  N   UNL     1      39.755 -12.897   4.339  1.00  0.00    -0.343 N 
HETATM    3  C   UNL     1      39.193 -13.017   3.074  1.00  0.00     0.271 A 
HETATM    4  O   UNL     1      38.311 -12.335   2.588  1.00  0.00    -0.266 OA
HETATM    5  C   UNL     1      39.885 -14.110   2.511  1.00  0.00     0.128 A 
HETATM    6  C   UNL     1      40.842 -14.613   3.345  1.00  0.00     0.034 A 
HETATM    7  N   UNL     1      39.865 -14.858   1.399  1.00  0.00    -0.272 N 
HETATM    8  H   UNL     1      39.285 -14.765   0.571  1.00  0.00     0.189 HD
HETATM    9  N   UNL     1      40.726 -15.900   1.491  1.00  0.00    -0.173 NA
HETATM   10  C   UNL     1      41.322 -15.767   2.702  1.00  0.00     0.098 A 
HETATM   11  H   UNL     1      39.496 -12.141   4.955  1.00  0.00     0.163 HD
ENDROOT
BRANCH   1  12
HETATM   12  C   UNL     1      42.175 -13.116   4.757  1.00  0.00    -0.028 A 
HETATM   13  C   UNL     1      42.798 -12.455   3.680  1.00  0.00     0.012 A 
HETATM   14  C   UNL     1      43.973 -11.729   3.866  1.00  0.00     0.040 A 
HETATM   15  C   UNL     1      44.529 -11.654   5.134  1.00  0.00     0.099 A 
HETATM   16  C   UNL     1      43.948 -12.302   6.227  1.00  0.00     0.102 A 
HETATM   17  C   UNL     1      42.770 -13.029   6.035  1.00  0.00     0.049 A 
BRANCH  15  18
HETATM   18  O   UNL     1      45.671 -10.919   5.296  1.00  0.00    -0.358 OA
HETATM   19  H   UNL     1      46.384 -11.578   5.407  1.00  0.00     0.218 HD
ENDBRANCH  15  18
BRANCH  16  20
HETATM   20  O   UNL     1      44.611 -12.129   7.415  1.00  0.00    -0.349 OA
BRANCH  20  21
HETATM   21  C   UNL     1      44.159 -11.077   8.264  1.00  0.00     0.171 C 
HETATM   22  C   UNL     1      45.385 -10.365   8.808  1.00  0.00     0.034 C 
ENDBRANCH  20  21
ENDBRANCH  16  20
ENDBRANCH   1  12
BRANCH  10  23
HETATM   23  C   UNL     1      42.240 -16.789   3.198  1.00  0.00    -0.002 A 
HETATM   24  C   UNL     1      42.565 -16.812   4.566  1.00  0.00     0.050 A 
HETATM   25  C   UNL     1      43.461 -17.757   5.071  1.00  0.00     0.069 A 
HETATM   26  C   UNL     1      44.032 -18.686   4.199  1.00  0.00     0.037 A 
HETATM   27  C   UNL     1      43.703 -18.685   2.843  1.00  0.00     0.004 A 
HETATM   28  C   UNL     1      42.806 -17.739   2.343  1.00  0.00     0.014 A 
BRANCH  25  29
HETATM   29  O   UNL     1      43.858 -17.871   6.375  1.00  0.00    -0.356 OA
HETATM   30  C   UNL     1      43.582 -16.766   7.228  1.00  0.00     0.210 C 
ENDBRANCH  25  29
ENDBRANCH  10  23
TORSDOF 6
ENDMDL
MODEL 2
REMARK VINA RESULT:      -8.4      0.978      1.827
REMARK  6 active torsions:
REMARK  status: ('A' for Active; 'I' for Inactive)
REMARK    1  A    between atoms: C_2  and  O_3 
REMARK    2  A    between atoms: O_3  and  C_4 
REMARK    3  A    between atoms: C_5  and  O_6 
REMARK    4  A    between atoms: C_9  and  C_10 
REMARK    5  A    between atoms: C_19  and  C_20 
REMARK    6  A    between atoms: C_22  and  O_23 
ROOT
HETATM    1  C   UNL     1      40.937 -13.764   4.791  1.00  0.00     0.156 A 
HETATM    2  N   UNL     1      39.846 -12.822   4.472  1.00  0.00    -0.343 N 
HETATM    3  C   UNL     1      39.302 -12.982   3.203  1.00  0.00     0.271 A 
HETATM    4  O   UNL     1      38.433 -12.312   2.679  1.00  0.00    -0.266 OA
HETATM    5  C   UNL     1      39.995 -14.100   2.690  1.00  0.00     0.128 A 
HETATM    6  C   UNL     1      40.935 -14.579   3.557  1.00  0.00     0.034 A 
HETATM    7  N   UNL     1      39.986 -14.887   1.605  1.00  0.00    -0.272 N 
HETATM    8  H   UNL     1      39.420 -14.820   0.765  1.00  0.00     0.189 HD
HETATM    9  N   UNL     1      40.839 -15.930   1.748  1.00  0.00    -0.173 NA
HETATM   10  C   UNL     1      41.417 -15.758   2.963  1.00  0.00     0.098 A 
HETATM   11  H   UNL     1      39.583 -12.042   5.056  1.00  0.00     0.163 HD
ENDROOT
BRANCH   1  12
HETATM   12  C   UNL     1      42.257 -13.041   4.935  1.00  0.00    -0.028 A 
HETATM   13  C   UNL     1      42.897 -12.415   3.847  1.00  0.00     0.012 A 
HETATM   14  C   UNL     1      44.074 -11.692   4.026  1.00  0.00     0.040 A 
HETATM   15  C   UNL     1      44.616 -11.583   5.298  1.00  0.00     0.099 A 
HETATM   16  C   UNL     1      44.018 -12.196   6.402  1.00  0.00     0.102 A 
HETATM   17  C   UNL     1      42.837 -12.921   6.217  1.00  0.00     0.049 A 
BRANCH  15  18
HETATM   18  O   UNL     1      45.760 -10.851   5.452  1.00  0.00    -0.358 OA
HETATM   19  H   UNL     1      46.177 -10.841   4.568  1.00  0.00     0.218 HD
ENDBRANCH  15  18
BRANCH  16  20
HETATM   20  O   UNL     1      44.668 -11.993   7.592  1.00  0.00    -0.349 OA
BRANCH  20  21
HETATM   21  C   UNL     1      44.178 -10.948   8.430  1.00  0.00     0.171 C 
HETATM   22  C   UNL     1      45.377 -10.183   8.962  1.00  0.00     0.034 C 
ENDBRANCH  20  21
ENDBRANCH  16  20
ENDBRANCH   1  12
BRANCH  10  23
HETATM   23  C   UNL     1      42.319 -16.768   3.509  1.00  0.00    -0.002 A 
HETATM   24  C   UNL     1      42.880 -17.727   2.646  1.00  0.00     0.050 A 
HETATM   25  C   UNL     1      43.724 -18.724   3.138  1.00  0.00     0.069 A 
HETATM   26  C   UNL     1      44.011 -18.759   4.504  1.00  0.00     0.037 A 
HETATM   27  C   UNL     1      43.476 -17.803   5.368  1.00  0.00     0.004 A 
HETATM   28  C   UNL     1      42.633 -16.806   4.871  1.00  0.00     0.014 A 
BRANCH  25  29
HETATM   29  O   UNL     1      44.318 -19.710   2.400  1.00  0.00    -0.356 OA
HETATM   30  C   UNL     1      43.459 -20.522   1.606  1.00  0.00     0.210 C 
ENDBRANCH  25  29
ENDBRANCH  10  23
TORSDOF 6
ENDMDL
MODEL 3
REMARK VINA RESULT:      -8.3      2.262      6.406
REMARK  6 active torsions:
REMARK  status: ('A' for Active; 'I' for Inactive)
REMARK    1  A    between atoms: C_2  and  O_3 
REMARK    2  A    between atoms: O_3  and  C_4 
REMARK    3  A    between atoms: C_5  and  O_6 
REMARK    4  A    between atoms: C_9  and  C_10 
REMARK    5  A    between atoms: C_19  and  C_20 
REMARK    6  A    between atoms: C_22  and  O_23 
ROOT
HETATM    1  C   UNL     1      42.298 -14.665   6.107  1.00  0.00     0.156 A 
HETATM    2  N   UNL     1      42.957 -13.948   7.218  1.00  0.00    -0.343 N 
HETATM    3  C   UNL     1      43.713 -12.850   6.824  1.00  0.00     0.271 A 
HETATM    4  O   UNL     1      44.388 -12.124   7.529  1.00  0.00    -0.266 OA
HETATM    5  C   UNL     1      43.499 -12.790   5.430  1.00  0.00     0.128 A 
HETATM    6  C   UNL     1      42.701 -13.801   4.976  1.00  0.00     0.034 A 
HETATM    7  N   UNL     1      43.806 -12.001   4.391  1.00  0.00    -0.272 N 
HETATM    8  H   UNL     1      44.383 -11.166   4.365  1.00  0.00     0.189 HD
HETATM    9  N   UNL     1      43.175 -12.407   3.263  1.00  0.00    -0.173 NA
HETATM   10  C   UNL     1      42.473 -13.510   3.620  1.00  0.00     0.098 A 
HETATM   11  H   UNL     1      42.973 -14.276   8.172  1.00  0.00     0.163 HD
ENDROOT
BRANCH   1  12
HETATM   12  C   UNL     1      42.876 -16.051   5.935  1.00  0.00    -0.028 A 
HETATM   13  C   UNL     1      42.957 -16.972   6.999  1.00  0.00     0.012 A 
HETATM   14  C   UNL     1      43.424 -18.268   6.792  1.00  0.00     0.040 A 
HETATM   15  C   UNL     1      43.807 -18.655   5.517  1.00  0.00     0.099 A 
HETATM   16  C   UNL     1      43.750 -17.771   4.437  1.00  0.00     0.102 A 
HETATM   17  C   UNL     1      43.281 -16.472   4.649  1.00  0.00     0.049 A 
BRANCH  15  18
HETATM   18  O   UNL     1      44.242 -19.939   5.336  1.00  0.00    -0.358 OA
HETATM   19  H   UNL     1      44.138 -20.368   6.207  1.00  0.00     0.218 HD
ENDBRANCH  15  18
BRANCH  16  20
HETATM   20  O   UNL     1      44.156 -18.302   3.240  1.00  0.00    -0.349 OA
BRANCH  20  21
HETATM   21  C   UNL     1      43.137 -18.660   2.309  1.00  0.00     0.171 C 
HETATM   22  C   UNL     1      43.330 -20.124   1.954  1.00  0.00     0.034 C 
ENDBRANCH  20  21
ENDBRANCH  16  20
ENDBRANCH   1  12
BRANCH  10  23
HETATM   23  C   UNL     1      41.569 -14.159   2.674  1.00  0.00    -0.002 A 
HETATM   24  C   UNL     1      41.549 -13.723   1.336  1.00  0.00     0.050 A 
HETATM   25  C   UNL     1      40.678 -14.301   0.411  1.00  0.00     0.069 A 
HETATM   26  C   UNL     1      39.824 -15.323   0.828  1.00  0.00     0.037 A 
HETATM   27  C   UNL     1      39.847 -15.777   2.147  1.00  0.00     0.004 A 
HETATM   28  C   UNL     1      40.721 -15.197   3.069  1.00  0.00     0.014 A 
BRANCH  25  29
HETATM   29  O   UNL     1      40.563 -13.956  -0.907  1.00  0.00    -0.356 OA
HETATM   30  C   UNL     1      39.339 -14.290  -1.554  1.00  0.00     0.210 C 
ENDBRANCH  25  29
ENDBRANCH  10  23
TORSDOF 6
ENDMDL
MODEL 4
REMARK VINA RESULT:      -8.3      1.430      5.355
REMARK  6 active torsions:
REMARK  status: ('A' for Active; 'I' for Inactive)
REMARK    1  A    between atoms: C_2  and  O_3 
REMARK    2  A    between atoms: O_3  and  C_4 
REMARK    3  A    between atoms: C_5  and  O_6 
REMARK    4  A    between atoms: C_9  and  C_10 
REMARK    5  A    between atoms: C_19  and  C_20 
REMARK    6  A    between atoms: C_22  and  O_23 
ROOT
HETATM    1  C   UNL     1      42.571 -15.037   1.966  1.00  0.00     0.156 A 
HETATM    2  N   UNL     1      41.812 -15.219   0.712  1.00  0.00    -0.343 N 
HETATM    3  C   UNL     1      40.489 -14.798   0.777  1.00  0.00     0.271 A 
HETATM    4  O   UNL     1      39.642 -14.880  -0.093  1.00  0.00    -0.266 OA
HETATM    5  C   UNL     1      40.381 -14.260   2.077  1.00  0.00     0.128 A 
HETATM    6  C   UNL     1      41.540 -14.373   2.791  1.00  0.00     0.034 A 
HETATM    7  N   UNL     1      39.485 -13.612   2.834  1.00  0.00    -0.272 N 
HETATM    8  H   UNL     1      38.523 -13.364   2.623  1.00  0.00     0.189 HD
HETATM    9  N   UNL     1      40.029 -13.216   4.010  1.00  0.00    -0.173 NA
HETATM   10  C   UNL     1      41.308 -13.666   3.983  1.00  0.00     0.098 A 
HETATM   11  H   UNL     1      42.162 -15.715  -0.095  1.00  0.00     0.163 HD
ENDROOT
BRANCH   1  12
HETATM   12  C   UNL     1      42.946 -16.369   2.574  1.00  0.00    -0.028 A 
HETATM   13  C   UNL     1      42.930 -17.569   1.833  1.00  0.00     0.012 A 
HETATM   14  C   UNL     1      43.354 -18.768   2.401  1.00  0.00     0.040 A 
HETATM   15  C   UNL     1      43.804 -18.776   3.712  1.00  0.00     0.099 A 
HETATM   16  C   UNL     1      43.827 -17.611   4.484  1.00  0.00     0.102 A 
HETATM   17  C   UNL     1      43.401 -16.410   3.910  1.00  0.00     0.049 A 
BRANCH  15  18
HETATM   18  O   UNL     1      44.234 -19.962   4.240  1.00  0.00    -0.358 OA
HETATM   19  H   UNL     1      43.484 -20.289   4.775  1.00  0.00     0.218 HD
ENDBRANCH  15  18
BRANCH  16  20
HETATM   20  O   UNL     1      44.304 -17.779   5.759  1.00  0.00    -0.349 OA
BRANCH  20  21
HETATM   21  C   UNL     1      43.363 -17.664   6.824  1.00  0.00     0.171 C 
HETATM   22  C   UNL     1      44.020 -16.866   7.937  1.00  0.00     0.034 C 
ENDBRANCH  20  21
ENDBRANCH  16  20
ENDBRANCH   1  12
BRANCH  10  23
HETATM   23  C   UNL     1      42.243 -13.321   5.051  1.00  0.00    -0.002 A 
HETATM   24  C   UNL     1      43.211 -12.327   4.820  1.00  0.00     0.050 A 
HETATM   25  C   UNL     1      44.139 -11.991   5.808  1.00  0.00     0.069 A 
HETATM   26  C   UNL     1      44.094 -12.653   7.036  1.00  0.00     0.037 A 
HETATM   27  C   UNL     1      43.127 -13.628   7.284  1.00  0.00     0.004 A 
HETATM   28  C   UNL     1      42.200 -13.960   6.293  1.00  0.00     0.014 A 
BRANCH  25  29
HETATM   29  O   UNL     1      45.127 -11.052   5.695  1.00  0.00    -0.356 OA
HETATM   30  C   UNL     1      45.929 -10.824   6.849  1.00  0.00     0.210 C 
ENDBRANCH  25  29
ENDBRANCH  10  23
TORSDOF 6
ENDMDL
MODEL 5
REMARK VINA RESULT:      -8.1      1.721      5.973
REMARK  6 active torsions:
REMARK  status: ('A' for Active; 'I' for Inactive)
REMARK    1  A    between atoms: C_2  and  O_3 
REMARK    2  A    between atoms: O_3  and  C_4 
REMARK    3  A    between atoms: C_5  and  O_6 
REMARK    4  A    between atoms: C_9  and  C_10 
REMARK    5  A    between atoms: C_19  and  C_20 
REMARK    6  A    between atoms: C_22  and  O_23 
ROOT
HETATM    1  C   UNL     1      42.166 -15.053   2.922  1.00  0.00     0.156 A 
HETATM    2  N   UNL     1      41.586 -15.887   1.851  1.00  0.00    -0.343 N 
HETATM    3  C   UNL     1      40.248 -15.624   1.581  1.00  0.00     0.271 A 
HETATM    4  O   UNL     1      39.526 -16.196   0.786  1.00  0.00    -0.266 OA
HETATM    5  C   UNL     1      39.947 -14.546   2.440  1.00  0.00     0.128 A 
HETATM    6  C   UNL     1      41.007 -14.185   3.223  1.00  0.00     0.034 A 
HETATM    7  N   UNL     1      38.931 -13.712   2.702  1.00  0.00    -0.272 N 
HETATM    8  H   UNL     1      37.995 -13.694   2.310  1.00  0.00     0.189 HD
HETATM    9  N   UNL     1      39.299 -12.750   3.583  1.00  0.00    -0.173 NA
HETATM   10  C   UNL     1      40.590 -13.024   3.896  1.00  0.00     0.098 A 
HETATM   11  H   UNL     1      42.060 -16.668   1.422  1.00  0.00     0.163 HD
ENDROOT
BRANCH   1  12
HETATM   12  C   UNL     1      42.519 -15.888   4.132  1.00  0.00    -0.028 A 
HETATM   13  C   UNL     1      41.928 -15.675   5.394  1.00  0.00     0.012 A 
HETATM   14  C   UNL     1      42.217 -16.510   6.471  1.00  0.00     0.040 A 
HETATM   15  C   UNL     1      43.094 -17.568   6.293  1.00  0.00     0.099 A 
HETATM   16  C   UNL     1      43.709 -17.809   5.061  1.00  0.00     0.102 A 
HETATM   17  C   UNL     1      43.416 -16.969   3.983  1.00  0.00     0.049 A 
BRANCH  15  18
HETATM   18  O   UNL     1      43.345 -18.386   7.360  1.00  0.00    -0.358 OA
HETATM   19  H   UNL     1      42.544 -18.332   7.916  1.00  0.00     0.218 HD
ENDBRANCH  15  18
BRANCH  16  20
HETATM   20  O   UNL     1      44.545 -18.895   5.040  1.00  0.00    -0.349 OA
BRANCH  20  21
HETATM   21  C   UNL     1      44.146 -20.007   4.242  1.00  0.00     0.171 C 
HETATM   22  C   UNL     1      43.787 -21.145   5.182  1.00  0.00     0.034 C 
ENDBRANCH  20  21
ENDBRANCH  16  20
ENDBRANCH   1  12
BRANCH  10  23
HETATM   23  C   UNL     1      41.361 -12.118   4.743  1.00  0.00    -0.002 A 
HETATM   24  C   UNL     1      42.759 -12.066   4.597  1.00  0.00     0.050 A 
HETATM   25  C   UNL     1      43.530 -11.233   5.409  1.00  0.00     0.069 A 
HETATM   26  C   UNL     1      42.897 -10.445   6.371  1.00  0.00     0.037 A 
HETATM   27  C   UNL     1      41.510 -10.473   6.513  1.00  0.00     0.004 A 
HETATM   28  C   UNL     1      40.741 -11.307   5.698  1.00  0.00     0.014 A 
BRANCH  25  29
HETATM   29  O   UNL     1      44.892 -11.105   5.366  1.00  0.00    -0.356 OA
HETATM   30  C   UNL     1      45.593 -11.295   6.590  1.00  0.00     0.210 C 
ENDBRANCH  25  29
ENDBRANCH  10  23
TORSDOF 6
ENDMDL
MODEL 6
REMARK VINA RESULT:      -8.0      2.377      5.446
REMARK  6 active torsions:
REMARK  status: ('A' for Active; 'I' for Inactive)
REMARK    1  A    between atoms: C_2  and  O_3 
REMARK    2  A    between atoms: O_3  and  C_4 
REMARK    3  A    between atoms: C_5  and  O_6 
REMARK    4  A    between atoms: C_9  and  C_10 
REMARK    5  A    between atoms: C_19  and  C_20 
REMARK    6  A    between atoms: C_22  and  O_23 
ROOT
HETATM    1  C   UNL     1      43.032 -12.814   4.306  1.00  0.00     0.156 A 
HETATM    2  N   UNL     1      43.210 -11.628   5.168  1.00  0.00    -0.343 N 
HETATM    3  C   UNL     1      43.257 -11.910   6.529  1.00  0.00     0.271 A 
HETATM    4  O   UNL     1      43.348 -11.117   7.446  1.00  0.00    -0.266 OA
HETATM    5  C   UNL     1      43.180 -13.318   6.573  1.00  0.00     0.128 A 
HETATM    6  C   UNL     1      43.051 -13.877   5.333  1.00  0.00     0.034 A 
HETATM    7  N   UNL     1      43.241 -14.309   7.474  1.00  0.00    -0.272 N 
HETATM    8  H   UNL     1      43.330 -14.256   8.484  1.00  0.00     0.189 HD
HETATM    9  N   UNL     1      43.236 -15.522   6.871  1.00  0.00    -0.173 NA
HETATM   10  C   UNL     1      43.137 -15.264   5.544  1.00  0.00     0.098 A 
HETATM   11  H   UNL     1      43.179 -10.676   4.834  1.00  0.00     0.163 HD
ENDROOT
BRANCH   1  12
HETATM   12  C   UNL     1      41.690 -12.785   3.611  1.00  0.00    -0.028 A 
HETATM   13  C   UNL     1      40.497 -12.458   4.286  1.00  0.00     0.012 A 
HETATM   14  C   UNL     1      39.287 -12.366   3.602  1.00  0.00     0.040 A 
HETATM   15  C   UNL     1      39.262 -12.593   2.234  1.00  0.00     0.099 A 
HETATM   16  C   UNL     1      40.421 -12.929   1.528  1.00  0.00     0.102 A 
HETATM   17  C   UNL     1      41.632 -13.020   2.219  1.00  0.00     0.049 A 
BRANCH  15  18
HETATM   18  O   UNL     1      38.066 -12.476   1.581  1.00  0.00    -0.358 OA
HETATM   19  H   UNL     1      38.200 -11.758   0.933  1.00  0.00     0.218 HD
ENDBRANCH  15  18
BRANCH  16  20
HETATM   20  O   UNL     1      40.237 -13.116   0.182  1.00  0.00    -0.349 OA
BRANCH  20  21
HETATM   21  C   UNL     1      40.180 -14.463  -0.284  1.00  0.00     0.171 C 
HETATM   22  C   UNL     1      39.260 -14.494  -1.492  1.00  0.00     0.034 C 
ENDBRANCH  20  21
ENDBRANCH  16  20
ENDBRANCH   1  12
BRANCH  10  23
HETATM   23  C   UNL     1      43.219 -16.345   4.565  1.00  0.00    -0.002 A 
HETATM   24  C   UNL     1      43.793 -17.572   4.945  1.00  0.00     0.050 A 
HETATM   25  C   UNL     1      43.913 -18.618   4.028  1.00  0.00     0.069 A 
HETATM   26  C   UNL     1      43.453 -18.434   2.723  1.00  0.00     0.037 A 
HETATM   27  C   UNL     1      42.866 -17.229   2.339  1.00  0.00     0.004 A 
HETATM   28  C   UNL     1      42.746 -16.186   3.260  1.00  0.00     0.014 A 
BRANCH  25  29
HETATM   29  O   UNL     1      44.458 -19.847   4.279  1.00  0.00    -0.356 OA
HETATM   30  C   UNL     1      43.997 -20.529   5.440  1.00  0.00     0.210 C 
ENDBRANCH  25  29
ENDBRANCH  10  23
TORSDOF 6
ENDMDL
MODEL 7
REMARK VINA RESULT:      -8.0      1.640      5.191
REMARK  6 active torsions:
REMARK  status: ('A' for Active; 'I' for Inactive)
REMARK    1  A    between atoms: C_2  and  O_3 
REMARK    2  A    between atoms: O_3  and  C_4 
REMARK    3  A    between atoms: C_5  and  O_6 
REMARK    4  A    between atoms: C_9  and  C_10 
REMARK    5  A    between atoms: C_19  and  C_20 
REMARK    6  A    between atoms: C_22  and  O_23 
ROOT
HETATM    1  C   UNL     1      42.314 -14.483   1.701  1.00  0.00     0.156 A 
HETATM    2  N   UNL     1      41.683 -14.936   0.445  1.00  0.00    -0.343 N 
HETATM    3  C   UNL     1      40.325 -14.657   0.353  1.00  0.00     0.271 A 
HETATM    4  O   UNL     1      39.565 -14.961  -0.547  1.00  0.00    -0.266 OA
HETATM    5  C   UNL     1      40.057 -13.942   1.540  1.00  0.00     0.128 A 
HETATM    6  C   UNL     1      41.158 -13.817   2.339  1.00  0.00     0.034 A 
HETATM    7  N   UNL     1      39.042 -13.288   2.122  1.00  0.00    -0.272 N 
HETATM    8  H   UNL     1      38.082 -13.181   1.810  1.00  0.00     0.189 HD
HETATM    9  N   UNL     1      39.446 -12.661   3.253  1.00  0.00    -0.173 NA
HETATM   10  C   UNL     1      40.760 -12.967   3.385  1.00  0.00     0.098 A 
HETATM   11  H   UNL     1      42.146 -15.507  -0.247  1.00  0.00     0.163 HD
ENDROOT
BRANCH   1  12
HETATM   12  C   UNL     1      42.765 -15.658   2.539  1.00  0.00    -0.028 A 
HETATM   13  C   UNL     1      42.921 -16.952   2.001  1.00  0.00     0.012 A 
HETATM   14  C   UNL     1      43.411 -17.998   2.780  1.00  0.00     0.040 A 
HETATM   15  C   UNL     1      43.755 -17.757   4.101  1.00  0.00     0.099 A 
HETATM   16  C   UNL     1      43.608 -16.491   4.675  1.00  0.00     0.102 A 
HETATM   17  C   UNL     1      43.116 -15.445   3.890  1.00  0.00     0.049 A 
BRANCH  15  18
HETATM   18  O   UNL     1      44.254 -18.795   4.839  1.00  0.00    -0.358 OA
HETATM   19  H   UNL     1      43.595 -18.943   5.545  1.00  0.00     0.218 HD
ENDBRANCH  15  18
BRANCH  16  20
HETATM   20  O   UNL     1      43.997 -16.408   5.987  1.00  0.00    -0.349 OA
BRANCH  20  21
HETATM   21  C   UNL     1      42.964 -16.367   6.970  1.00  0.00     0.171 C 
HETATM   22  C   UNL     1      42.961 -14.976   7.577  1.00  0.00     0.034 C 
ENDBRANCH  20  21
ENDBRANCH  16  20
ENDBRANCH   1  12
BRANCH  10  23
HETATM   23  C   UNL     1      41.564 -12.364   4.444  1.00  0.00    -0.002 A 
HETATM   24  C   UNL     1      42.923 -12.090   4.201  1.00  0.00     0.050 A 
HETATM   25  C   UNL     1      43.729 -11.539   5.200  1.00  0.00     0.069 A 
HETATM   26  C   UNL     1      43.170 -11.260   6.448  1.00  0.00     0.037 A 
HETATM   27  C   UNL     1      41.820 -11.510   6.695  1.00  0.00     0.004 A 
HETATM   28  C   UNL     1      41.017 -12.059   5.693  1.00  0.00     0.014 A 
BRANCH  25  29
HETATM   29  O   UNL     1      45.058 -11.239   5.084  1.00  0.00    -0.356 OA
HETATM   30  C   UNL     1      45.829 -11.265   6.280  1.00  0.00     0.210 C 
ENDBRANCH  25  29
ENDBRANCH  10  23
TORSDOF 6
ENDMDL
MODEL 8
REMARK VINA RESULT:      -7.9      1.688      6.273
REMARK  6 active torsions:
REMARK  status: ('A' for Active; 'I' for Inactive)
REMARK    1  A    between atoms: C_2  and  O_3 
REMARK    2  A    between atoms: O_3  and  C_4 
REMARK    3  A    between atoms: C_5  and  O_6 
REMARK    4  A    between atoms: C_9  and  C_10 
REMARK    5  A    between atoms: C_19  and  C_20 
REMARK    6  A    between atoms: C_22  and  O_23 
ROOT
HETATM    1  C   UNL     1      42.372 -13.564   3.807  1.00  0.00     0.156 A 
HETATM    2  N   UNL     1      41.166 -13.725   2.970  1.00  0.00    -0.343 N 
HETATM    3  C   UNL     1      40.048 -13.044   3.438  1.00  0.00     0.271 A 
HETATM    4  O   UNL     1      38.927 -13.048   2.966  1.00  0.00    -0.266 OA
HETATM    5  C   UNL     1      40.534 -12.359   4.572  1.00  0.00     0.128 A 
HETATM    6  C   UNL     1      41.851 -12.622   4.822  1.00  0.00     0.034 A 
HETATM    7  N   UNL     1      40.107 -11.468   5.478  1.00  0.00    -0.272 N 
HETATM    8  H   UNL     1      39.186 -11.057   5.592  1.00  0.00     0.189 HD
HETATM    9  N   UNL     1      41.118 -11.065   6.285  1.00  0.00    -0.173 NA
HETATM   10  C   UNL     1      42.206 -11.760   5.873  1.00  0.00     0.098 A 
HETATM   11  H   UNL     1      41.099 -14.364   2.192  1.00  0.00     0.163 HD
ENDROOT
BRANCH   1  12
HETATM   12  C   UNL     1      42.760 -14.871   4.461  1.00  0.00    -0.028 A 
HETATM   13  C   UNL     1      42.625 -15.091   5.846  1.00  0.00     0.012 A 
HETATM   14  C   UNL     1      42.920 -16.332   6.408  1.00  0.00     0.040 A 
HETATM   15  C   UNL     1      43.344 -17.364   5.586  1.00  0.00     0.099 A 
HETATM   16  C   UNL     1      43.499 -17.185   4.208  1.00  0.00     0.102 A 
HETATM   17  C   UNL     1      43.203 -15.939   3.650  1.00  0.00     0.049 A 
BRANCH  15  18
HETATM   18  O   UNL     1      43.607 -18.579   6.157  1.00  0.00    -0.358 OA
HETATM   19  H   UNL     1      43.013 -18.628   6.932  1.00  0.00     0.218 HD
ENDBRANCH  15  18
BRANCH  16  20
HETATM   20  O   UNL     1      43.920 -18.300   3.530  1.00  0.00    -0.349 OA
BRANCH  20  21
HETATM   21  C   UNL     1      43.193 -18.660   2.357  1.00  0.00     0.171 C 
HETATM   22  C   UNL     1      43.400 -20.146   2.124  1.00  0.00     0.034 C 
ENDBRANCH  20  21
ENDBRANCH  16  20
ENDBRANCH   1  12
BRANCH  10  23
HETATM   23  C   UNL     1      43.522 -11.495   6.448  1.00  0.00    -0.002 A 
HETATM   24  C   UNL     1      43.620 -11.157   7.810  1.00  0.00     0.050 A 
HETATM   25  C   UNL     1      44.859 -10.870   8.386  1.00  0.00     0.069 A 
HETATM   26  C   UNL     1      46.007 -10.925   7.594  1.00  0.00     0.037 A 
HETATM   27  C   UNL     1      45.925 -11.277   6.246  1.00  0.00     0.004 A 
HETATM   28  C   UNL     1      44.684 -11.565   5.674  1.00  0.00     0.014 A 
BRANCH  25  29
HETATM   29  O   UNL     1      45.076 -10.522   9.691  1.00  0.00    -0.356 OA
HETATM   30  C   UNL     1      43.941 -10.509  10.549  1.00  0.00     0.210 C 
ENDBRANCH  25  29
ENDBRANCH  10  23
TORSDOF 6
ENDMDL
MODEL 9
REMARK VINA RESULT:      -7.8      1.871      3.016
REMARK  6 active torsions:
REMARK  status: ('A' for Active; 'I' for Inactive)
REMARK    1  A    between atoms: C_2  and  O_3 
REMARK    2  A    between atoms: O_3  and  C_4 
REMARK    3  A    between atoms: C_5  and  O_6 
REMARK    4  A    between atoms: C_9  and  C_10 
REMARK    5  A    between atoms: C_19  and  C_20 
REMARK    6  A    between atoms: C_22  and  O_23 
ROOT
HETATM    1  C   UNL     1      40.260 -14.562   3.246  1.00  0.00     0.156 A 
HETATM    2  N   UNL     1      39.626 -14.204   1.961  1.00  0.00    -0.343 N 
HETATM    3  C   UNL     1      40.439 -14.390   0.849  1.00  0.00     0.271 A 
HETATM    4  O   UNL     1      40.180 -14.131  -0.310  1.00  0.00    -0.266 OA
HETATM    5  C   UNL     1      41.615 -14.950   1.395  1.00  0.00     0.128 A 
HETATM    6  C   UNL     1      41.560 -15.067   2.755  1.00  0.00     0.034 A 
HETATM    7  N   UNL     1      42.783 -15.458   0.978  1.00  0.00    -0.272 N 
HETATM    8  H   UNL     1      43.155 -15.528   0.037  1.00  0.00     0.189 HD
HETATM    9  N   UNL     1      43.485 -15.986   2.010  1.00  0.00    -0.173 NA
HETATM   10  C   UNL     1      42.726 -15.766   3.111  1.00  0.00     0.098 A 
HETATM   11  H   UNL     1      38.729 -13.747   1.880  1.00  0.00     0.163 HD
ENDROOT
BRANCH   1  12
HETATM   12  C   UNL     1      40.469 -13.339   4.110  1.00  0.00    -0.028 A 
HETATM   13  C   UNL     1      39.531 -12.930   5.079  1.00  0.00     0.012 A 
HETATM   14  C   UNL     1      39.787 -11.843   5.912  1.00  0.00     0.040 A 
HETATM   15  C   UNL     1      40.987 -11.160   5.786  1.00  0.00     0.099 A 
HETATM   16  C   UNL     1      41.940 -11.527   4.832  1.00  0.00     0.102 A 
HETATM   17  C   UNL     1      41.679 -12.619   3.999  1.00  0.00     0.049 A 
BRANCH  15  18
HETATM   18  O   UNL     1      41.224 -10.110   6.629  1.00  0.00    -0.358 OA
HETATM   19  H   UNL     1      41.834 -10.460   7.306  1.00  0.00     0.218 HD
ENDBRANCH  15  18
BRANCH  16  20
HETATM   20  O   UNL     1      43.077 -10.761   4.834  1.00  0.00    -0.349 OA
BRANCH  20  21
HETATM   21  C   UNL     1      44.320 -11.443   4.982  1.00  0.00     0.171 C 
HETATM   22  C   UNL     1      44.647 -11.489   6.464  1.00  0.00     0.034 C 
ENDBRANCH  20  21
ENDBRANCH  16  20
ENDBRANCH   1  12
BRANCH  10  23
HETATM   23  C   UNL     1      43.119 -16.308   4.409  1.00  0.00    -0.002 A 
HETATM   24  C   UNL     1      43.187 -17.703   4.578  1.00  0.00     0.050 A 
HETATM   25  C   UNL     1      43.531 -18.256   5.812  1.00  0.00     0.069 A 
HETATM   26  C   UNL     1      43.812 -17.407   6.884  1.00  0.00     0.037 A 
HETATM   27  C   UNL     1      43.766 -16.022   6.725  1.00  0.00     0.004 A 
HETATM   28  C   UNL     1      43.422 -15.472   5.488  1.00  0.00     0.014 A 
BRANCH  25  29
HETATM   29  O   UNL     1      43.621 -19.591   6.097  1.00  0.00    -0.356 OA
HETATM   30  C   UNL     1      44.218 -20.420   5.106  1.00  0.00     0.210 C 
ENDBRANCH  25  29
ENDBRANCH  10  23
TORSDOF 6
ENDMDL
MODEL 10
REMARK VINA RESULT:      -7.8      3.294      5.426
REMARK  6 active torsions:
REMARK  status: ('A' for Active; 'I' for Inactive)
REMARK    1  A    between atoms: C_2  and  O_3 
REMARK    2  A    between atoms: O_3  and  C_4 
REMARK    3  A    between atoms: C_5  and  O_6 
REMARK    4  A    between atoms: C_9  and  C_10 
REMARK    5  A    between atoms: C_19  and  C_20 
REMARK    6  A    between atoms: C_22  and  O_23 
ROOT
HETATM    1  C   UNL     1      41.467 -13.396   3.864  1.00  0.00     0.156 A 
HETATM    2  N   UNL     1      40.632 -12.309   4.415  1.00  0.00    -0.343 N 
HETATM    3  C   UNL     1      39.801 -12.697   5.459  1.00  0.00     0.271 A 
HETATM    4  O   UNL     1      38.988 -12.015   6.051  1.00  0.00    -0.266 OA
HETATM    5  C   UNL     1      40.139 -14.053   5.657  1.00  0.00     0.128 A 
HETATM    6  C   UNL     1      41.082 -14.496   4.774  1.00  0.00     0.034 A 
HETATM    7  N   UNL     1      39.847 -15.058   6.495  1.00  0.00    -0.272 N 
HETATM    8  H   UNL     1      39.187 -15.082   7.267  1.00  0.00     0.189 HD
HETATM    9  N   UNL     1      40.623 -16.142   6.252  1.00  0.00    -0.173 NA
HETATM   10  C   UNL     1      41.404 -15.796   5.200  1.00  0.00     0.098 A 
HETATM   11  H   UNL     1      40.561 -11.388   4.007  1.00  0.00     0.163 HD
ENDROOT
BRANCH   1  12
HETATM   12  C   UNL     1      41.064 -13.728   2.445  1.00  0.00    -0.028 A 
HETATM   13  C   UNL     1      40.350 -14.898   2.118  1.00  0.00     0.012 A 
HETATM   14  C   UNL     1      39.926 -15.139   0.813  1.00  0.00     0.040 A 
HETATM   15  C   UNL     1      40.207 -14.207  -0.174  1.00  0.00     0.099 A 
HETATM   16  C   UNL     1      40.919 -13.037   0.106  1.00  0.00     0.102 A 
HETATM   17  C   UNL     1      41.343 -12.800   1.417  1.00  0.00     0.049 A 
BRANCH  15  18
HETATM   18  O   UNL     1      39.762 -14.456  -1.443  1.00  0.00    -0.358 OA
HETATM   19  H   UNL     1      40.551 -14.757  -1.934  1.00  0.00     0.218 HD
ENDBRANCH  15  18
BRANCH  16  20
HETATM   20  O   UNL     1      41.113 -12.212  -0.971  1.00  0.00    -0.349 OA
BRANCH  20  21
HETATM   21  C   UNL     1      40.298 -11.045  -1.050  1.00  0.00     0.171 C 
HETATM   22  C   UNL     1      39.855 -10.888  -2.494  1.00  0.00     0.034 C 
ENDBRANCH  20  21
ENDBRANCH  16  20
ENDBRANCH   1  12
BRANCH  10  23
HETATM   23  C   UNL     1      42.459 -16.689   4.728  1.00  0.00    -0.002 A 
HETATM   24  C   UNL     1      42.289 -17.365   3.506  1.00  0.00     0.050 A 
HETATM   25  C   UNL     1      43.264 -18.248   3.038  1.00  0.00     0.069 A 
HETATM   26  C   UNL     1      44.417 -18.453   3.797  1.00  0.00     0.037 A 
HETATM   27  C   UNL     1      44.606 -17.774   5.001  1.00  0.00     0.004 A 
HETATM   28  C   UNL     1      43.629 -16.891   5.465  1.00  0.00     0.014 A 
BRANCH  25  29
HETATM   29  O   UNL     1      43.206 -18.966   1.875  1.00  0.00    -0.356 OA
HETATM   30  C   UNL     1      43.539 -20.347   1.956  1.00  0.00     0.210 C 
ENDBRANCH  25  29
ENDBRANCH  10  23
TORSDOF 6
ENDMDL
