MODEL 1
REMARK VINA RESULT:      -7.5      0.000      0.000
REMARK  3 active torsions:
REMARK  status: ('A' for Active; 'I' for Inactive)
REMARK    1  A    between atoms: C_8  and  N_9 
REMARK       I    between atoms: N_9  and  C_10 
REMARK       I    between atoms: C_10  and  N_11 
REMARK    2  A    between atoms: N_11  and  C_12 
REMARK    3  A    between atoms: C_13  and  O_14 
ROOT
HETATM    1  N   UNL     1      40.861 -13.826   0.191  1.00  0.00    -0.305 N 
HETATM    2  C   UNL     1      40.965 -14.916   1.036  1.00  0.00     0.325 C 
HETATM    3  N   UNL     1      42.293 -15.264   1.201  1.00  0.00    -0.306 N 
HETATM    4  O   UNL     1      40.023 -15.485   1.572  1.00  0.00    -0.247 OA
HETATM    5  H   UNL     1      41.628 -13.173   0.235  1.00  0.00     0.171 HD
HETATM    6  H   UNL     1      42.909 -15.053   0.425  1.00  0.00     0.171 HD
ENDROOT
BRANCH   1   7
HETATM    7  C   UNL     1      39.680 -13.358  -0.358  1.00  0.00     0.086 A 
HETATM    8  C   UNL     1      38.915 -12.369   0.231  1.00  0.00     0.052 A 
HETATM    9  C   UNL     1      39.051 -11.610   1.494  1.00  0.00     0.072 C 
HETATM   10  N   UNL     1      37.854 -12.176  -0.608  1.00  0.00    -0.280 N 
HETATM   11  H   UNL     1      37.074 -11.538  -0.495  1.00  0.00     0.189 HD
HETATM   12  N   UNL     1      37.886 -12.934  -1.709  1.00  0.00    -0.177 NA
HETATM   13  C   UNL     1      39.002 -13.666  -1.573  1.00  0.00     0.079 A 
HETATM   14  C   UNL     1      39.389 -14.587  -2.673  1.00  0.00     0.075 C 
ENDBRANCH   1   7
BRANCH   3  15
HETATM   15  C   UNL     1      42.816 -16.196   2.124  1.00  0.00     0.071 A 
HETATM   16  C   UNL     1      43.179 -15.712   3.396  1.00  0.00     0.095 A 
HETATM   17  C   UNL     1      43.649 -16.592   4.374  1.00  0.00     0.040 A 
HETATM   18  C   UNL     1      43.785 -17.951   4.079  1.00  0.00     0.022 A 
HETATM   19  C   UNL     1      43.441 -18.423   2.813  1.00  0.00     0.013 A 
HETATM   20 BR   UNL     1      43.614 -20.268   2.431  1.00  0.00    -0.051 Br
HETATM   21  C   UNL     1      42.956 -17.556   1.835  1.00  0.00     0.051 A 
BRANCH  16  22
HETATM   22  O   UNL     1      43.013 -14.363   3.608  1.00  0.00    -0.354 OA
HETATM   23  C   UNL     1      42.083 -14.044   4.641  1.00  0.00     0.210 C 
ENDBRANCH  16  22
ENDBRANCH   3  15
TORSDOF 3
ENDMDL
MODEL 2
REMARK VINA RESULT:      -7.3      0.385      1.818
REMARK  3 active torsions:
REMARK  status: ('A' for Active; 'I' for Inactive)
REMARK    1  A    between atoms: C_8  and  N_9 
REMARK       I    between atoms: N_9  and  C_10 
REMARK       I    between atoms: C_10  and  N_11 
REMARK    2  A    between atoms: N_11  and  C_12 
REMARK    3  A    between atoms: C_13  and  O_14 
ROOT
HETATM    1  N   UNL     1      40.766 -13.812   0.023  1.00  0.00    -0.305 N 
HETATM    2  C   UNL     1      40.869 -14.827   0.956  1.00  0.00     0.325 C 
HETATM    3  N   UNL     1      42.182 -15.246   1.061  1.00  0.00    -0.306 N 
HETATM    4  O   UNL     1      39.937 -15.284   1.606  1.00  0.00    -0.247 OA
HETATM    5  H   UNL     1      41.572 -13.209  -0.046  1.00  0.00     0.171 HD
HETATM    6  H   UNL     1      42.751 -15.146   0.229  1.00  0.00     0.171 HD
ENDROOT
BRANCH   1   7
HETATM    7  C   UNL     1      39.578 -13.318  -0.485  1.00  0.00     0.086 A 
HETATM    8  C   UNL     1      38.855 -13.961  -1.471  1.00  0.00     0.052 A 
HETATM    9  C   UNL     1      39.091 -15.200  -2.245  1.00  0.00     0.072 C 
HETATM   10  N   UNL     1      37.754 -13.181  -1.688  1.00  0.00    -0.280 N 
HETATM   11  H   UNL     1      37.004 -13.328  -2.355  1.00  0.00     0.189 HD
HETATM   12  N   UNL     1      37.687 -12.104  -0.900  1.00  0.00    -0.177 NA
HETATM   13  C   UNL     1      38.799 -12.172  -0.153  1.00  0.00     0.079 A 
HETATM   14  C   UNL     1      39.015 -11.145   0.899  1.00  0.00     0.075 C 
ENDBRANCH   1   7
BRANCH   3  15
HETATM   15  C   UNL     1      42.716 -16.126   2.029  1.00  0.00     0.071 A 
HETATM   16  C   UNL     1      43.037 -15.583   3.288  1.00  0.00     0.095 A 
HETATM   17  C   UNL     1      43.515 -16.410   4.307  1.00  0.00     0.040 A 
HETATM   18  C   UNL     1      43.700 -17.774   4.067  1.00  0.00     0.022 A 
HETATM   19  C   UNL     1      43.398 -18.304   2.814  1.00  0.00     0.013 A 
HETATM   20 BR   UNL     1      43.637 -20.155   2.505  1.00  0.00    -0.051 Br
HETATM   21  C   UNL     1      42.905 -17.490   1.794  1.00  0.00     0.051 A 
BRANCH  16  22
HETATM   22  O   UNL     1      42.823 -14.233   3.446  1.00  0.00    -0.354 OA
HETATM   23  C   UNL     1      42.903 -13.784   4.797  1.00  0.00     0.210 C 
ENDBRANCH  16  22
ENDBRANCH   3  15
TORSDOF 3
ENDMDL
MODEL 3
REMARK VINA RESULT:      -7.0      2.196      3.258
REMARK  3 active torsions:
REMARK  status: ('A' for Active; 'I' for Inactive)
REMARK    1  A    between atoms: C_8  and  N_9 
REMARK       I    between atoms: N_9  and  C_10 
REMARK       I    between atoms: C_10  and  N_11 
REMARK    2  A    between atoms: N_11  and  C_12 
REMARK    3  A    between atoms: C_13  and  O_14 
ROOT
HETATM    1  N   UNL     1      41.449 -13.698   2.273  1.00  0.00    -0.305 N 
HETATM    2  C   UNL     1      42.503 -14.578   2.431  1.00  0.00     0.325 C 
HETATM    3  N   UNL     1      42.148 -15.595   3.298  1.00  0.00    -0.306 N 
HETATM    4  O   UNL     1      43.591 -14.481   1.879  1.00  0.00    -0.247 OA
HETATM    5  H   UNL     1      40.531 -14.112   2.332  1.00  0.00     0.171 HD
HETATM    6  H   UNL     1      41.459 -15.360   4.003  1.00  0.00     0.171 HD
ENDROOT
BRANCH   1   7
HETATM    7  C   UNL     1      41.532 -12.462   1.656  1.00  0.00     0.086 A 
HETATM    8  C   UNL     1      41.044 -12.220   0.386  1.00  0.00     0.052 A 
HETATM    9  C   UNL     1      40.396 -13.085  -0.625  1.00  0.00     0.072 C 
HETATM   10  N   UNL     1      41.296 -10.899   0.141  1.00  0.00    -0.280 N 
HETATM   11  H   UNL     1      41.093 -10.369  -0.699  1.00  0.00     0.189 HD
HETATM   12  N   UNL     1      41.877 -10.258   1.159  1.00  0.00    -0.177 NA
HETATM   13  C   UNL     1      42.029 -11.202   2.100  1.00  0.00     0.079 A 
HETATM   14  C   UNL     1      42.593 -10.812   3.418  1.00  0.00     0.075 C 
ENDBRANCH   1   7
BRANCH   3  15
HETATM   15  C   UNL     1      42.878 -16.773   3.567  1.00  0.00     0.071 A 
HETATM   16  C   UNL     1      43.533 -16.858   4.810  1.00  0.00     0.095 A 
HETATM   17  C   UNL     1      44.225 -18.019   5.162  1.00  0.00     0.040 A 
HETATM   18  C   UNL     1      44.289 -19.088   4.266  1.00  0.00     0.022 A 
HETATM   19  C   UNL     1      43.654 -18.995   3.029  1.00  0.00     0.013 A 
HETATM   20 BR   UNL     1      43.733 -20.456   1.830  1.00  0.00    -0.051 Br
HETATM   21  C   UNL     1      42.947 -17.846   2.674  1.00  0.00     0.051 A 
BRANCH  16  22
HETATM   22  O   UNL     1      43.421 -15.764   5.638  1.00  0.00    -0.354 OA
HETATM   23  C   UNL     1      42.780 -16.036   6.882  1.00  0.00     0.210 C 
ENDBRANCH  16  22
ENDBRANCH   3  15
TORSDOF 3
ENDMDL
MODEL 4
REMARK VINA RESULT:      -6.9      2.326      2.946
REMARK  3 active torsions:
REMARK  status: ('A' for Active; 'I' for Inactive)
REMARK    1  A    between atoms: C_8  and  N_9 
REMARK       I    between atoms: N_9  and  C_10 
REMARK       I    between atoms: C_10  and  N_11 
REMARK    2  A    between atoms: N_11  and  C_12 
REMARK    3  A    between atoms: C_13  and  O_14 
ROOT
HETATM    1  N   UNL     1      41.471 -13.439   2.531  1.00  0.00    -0.305 N 
HETATM    2  C   UNL     1      42.513 -14.345   2.594  1.00  0.00     0.325 C 
HETATM    3  N   UNL     1      42.226 -15.337   3.512  1.00  0.00    -0.306 N 
HETATM    4  O   UNL     1      43.538 -14.287   1.927  1.00  0.00    -0.247 OA
HETATM    5  H   UNL     1      40.554 -13.827   2.695  1.00  0.00     0.171 HD
HETATM    6  H   UNL     1      41.623 -15.073   4.282  1.00  0.00     0.171 HD
ENDROOT
BRANCH   1   7
HETATM    7  C   UNL     1      41.519 -12.216   1.885  1.00  0.00     0.086 A 
HETATM    8  C   UNL     1      42.038 -11.076   2.468  1.00  0.00     0.052 A 
HETATM    9  C   UNL     1      42.600 -10.798   3.809  1.00  0.00     0.072 C 
HETATM   10  N   UNL     1      41.925 -10.095   1.523  1.00  0.00    -0.280 N 
HETATM   11  H   UNL     1      42.187  -9.119   1.599  1.00  0.00     0.189 HD
HETATM   12  N   UNL     1      41.406 -10.514   0.364  1.00  0.00    -0.177 NA
HETATM   13  C   UNL     1      41.152 -11.815   0.568  1.00  0.00     0.079 A 
HETATM   14  C   UNL     1      40.622 -12.623  -0.561  1.00  0.00     0.075 C 
ENDBRANCH   1   7
BRANCH   3  15
HETATM   15  C   UNL     1      42.951 -16.531   3.725  1.00  0.00     0.071 A 
HETATM   16  C   UNL     1      43.698 -16.629   4.914  1.00  0.00     0.095 A 
HETATM   17  C   UNL     1      44.392 -17.805   5.213  1.00  0.00     0.040 A 
HETATM   18  C   UNL     1      44.364 -18.875   4.315  1.00  0.00     0.022 A 
HETATM   19  C   UNL     1      43.637 -18.767   3.130  1.00  0.00     0.013 A 
HETATM   20 BR   UNL     1      43.594 -20.228   1.930  1.00  0.00    -0.051 Br
HETATM   21  C   UNL     1      42.929 -17.604   2.830  1.00  0.00     0.051 A 
BRANCH  16  22
HETATM   22  O   UNL     1      43.672 -15.534   5.747  1.00  0.00    -0.354 OA
HETATM   23  C   UNL     1      43.153 -15.802   7.048  1.00  0.00     0.210 C 
ENDBRANCH  16  22
ENDBRANCH   3  15
TORSDOF 3
ENDMDL
MODEL 5
REMARK VINA RESULT:      -6.9      3.158      6.978
REMARK  3 active torsions:
REMARK  status: ('A' for Active; 'I' for Inactive)
REMARK    1  A    between atoms: C_8  and  N_9 
REMARK       I    between atoms: N_9  and  C_10 
REMARK       I    between atoms: C_10  and  N_11 
REMARK    2  A    between atoms: N_11  and  C_12 
REMARK    3  A    between atoms: C_13  and  O_14 
ROOT
HETATM    1  N   UNL     1      43.451 -17.190   2.337  1.00  0.00    -0.305 N 
HETATM    2  C   UNL     1      42.333 -16.377   2.345  1.00  0.00     0.325 C 
HETATM    3  N   UNL     1      42.504 -15.326   1.463  1.00  0.00    -0.306 N 
HETATM    4  O   UNL     1      41.331 -16.562   3.024  1.00  0.00    -0.247 OA
HETATM    5  H   UNL     1      43.932 -17.250   1.452  1.00  0.00     0.171 HD
HETATM    6  H   UNL     1      43.458 -15.022   1.309  1.00  0.00     0.171 HD
ENDROOT
BRANCH   1   7
HETATM    7  C   UNL     1      43.706 -18.198   3.250  1.00  0.00     0.086 A 
HETATM    8  C   UNL     1      43.685 -19.539   2.919  1.00  0.00     0.052 A 
HETATM    9  C   UNL     1      43.382 -20.260   1.662  1.00  0.00     0.072 C 
HETATM   10  N   UNL     1      43.998 -20.207   4.068  1.00  0.00    -0.280 N 
HETATM   11  H   UNL     1      44.061 -21.209   4.213  1.00  0.00     0.189 HD
HETATM   12  N   UNL     1      44.253 -19.409   5.109  1.00  0.00    -0.177 NA
HETATM   13  C   UNL     1      44.080 -18.170   4.625  1.00  0.00     0.079 A 
HETATM   14  C   UNL     1      44.354 -17.012   5.515  1.00  0.00     0.075 C 
ENDBRANCH   1   7
BRANCH   3  15
HETATM   15  C   UNL     1      41.523 -14.395   1.054  1.00  0.00     0.071 A 
HETATM   16  C   UNL     1      41.424 -13.197   1.789  1.00  0.00     0.095 A 
HETATM   17  C   UNL     1      40.515 -12.210   1.402  1.00  0.00     0.040 A 
HETATM   18  C   UNL     1      39.684 -12.423   0.301  1.00  0.00     0.022 A 
HETATM   19  C   UNL     1      39.773 -13.617  -0.414  1.00  0.00     0.013 A 
HETATM   20 BR   UNL     1      38.653 -13.888  -1.914  1.00  0.00    -0.051 Br
HETATM   21  C   UNL     1      40.688 -14.603  -0.046  1.00  0.00     0.051 A 
BRANCH  16  22
HETATM   22  O   UNL     1      42.280 -13.062   2.859  1.00  0.00    -0.354 OA
HETATM   23  C   UNL     1      42.919 -11.790   2.937  1.00  0.00     0.210 C 
ENDBRANCH  16  22
ENDBRANCH   3  15
TORSDOF 3
ENDMDL
MODEL 6
REMARK VINA RESULT:      -6.9      3.015      6.635
REMARK  3 active torsions:
REMARK  status: ('A' for Active; 'I' for Inactive)
REMARK    1  A    between atoms: C_8  and  N_9 
REMARK       I    between atoms: N_9  and  C_10 
REMARK       I    between atoms: C_10  and  N_11 
REMARK    2  A    between atoms: N_11  and  C_12 
REMARK    3  A    between atoms: C_13  and  O_14 
ROOT
HETATM    1  N   UNL     1      43.284 -16.819   2.178  1.00  0.00    -0.305 N 
HETATM    2  C   UNL     1      42.070 -16.164   2.084  1.00  0.00     0.325 C 
HETATM    3  N   UNL     1      42.185 -15.069   1.248  1.00  0.00    -0.306 N 
HETATM    4  O   UNL     1      41.039 -16.507   2.647  1.00  0.00    -0.247 OA
HETATM    5  H   UNL     1      43.858 -16.783   1.349  1.00  0.00     0.171 HD
HETATM    6  H   UNL     1      43.099 -14.634   1.204  1.00  0.00     0.171 HD
ENDROOT
BRANCH   1   7
HETATM    7  C   UNL     1      43.580 -17.816   3.092  1.00  0.00     0.086 A 
HETATM    8  C   UNL     1      43.799 -17.567   4.433  1.00  0.00     0.052 A 
HETATM    9  C   UNL     1      43.835 -16.321   5.233  1.00  0.00     0.072 C 
HETATM   10  N   UNL     1      44.041 -18.787   4.999  1.00  0.00    -0.280 N 
HETATM   11  H   UNL     1      44.261 -18.995   5.967  1.00  0.00     0.189 HD
HETATM   12  N   UNL     1      43.962 -19.809   4.142  1.00  0.00    -0.177 NA
HETATM   13  C   UNL     1      43.678 -19.232   2.965  1.00  0.00     0.079 A 
HETATM   14  C   UNL     1      43.450 -20.100   1.782  1.00  0.00     0.075 C 
ENDBRANCH   1   7
BRANCH   3  15
HETATM   15  C   UNL     1      41.133 -14.264   0.757  1.00  0.00     0.071 A 
HETATM   16  C   UNL     1      40.823 -13.096   1.479  1.00  0.00     0.095 A 
HETATM   17  C   UNL     1      39.832 -12.227   1.016  1.00  0.00     0.040 A 
HETATM   18  C   UNL     1      39.130 -12.532  -0.152  1.00  0.00     0.022 A 
HETATM   19  C   UNL     1      39.428 -13.698  -0.855  1.00  0.00     0.013 A 
HETATM   20 BR   UNL     1      38.482 -14.093  -2.445  1.00  0.00    -0.051 Br
HETATM   21  C   UNL     1      40.426 -14.565  -0.410  1.00  0.00     0.051 A 
BRANCH  16  22
HETATM   22  O   UNL     1      41.561 -12.865   2.617  1.00  0.00    -0.354 OA
HETATM   23  C   UNL     1      40.800 -12.892   3.823  1.00  0.00     0.210 C 
ENDBRANCH  16  22
ENDBRANCH   3  15
TORSDOF 3
ENDMDL
MODEL 7
REMARK VINA RESULT:      -6.5      5.466      7.926
REMARK  3 active torsions:
REMARK  status: ('A' for Active; 'I' for Inactive)
REMARK    1  A    between atoms: C_8  and  N_9 
REMARK       I    between atoms: N_9  and  C_10 
REMARK       I    between atoms: C_10  and  N_11 
REMARK    2  A    between atoms: N_11  and  C_12 
REMARK    3  A    between atoms: C_13  and  O_14 
ROOT
HETATM    1  N   UNL     1      43.659 -11.544   8.170  1.00  0.00    -0.305 N 
HETATM    2  C   UNL     1      43.578 -12.323   7.031  1.00  0.00     0.325 C 
HETATM    3  N   UNL     1      43.122 -13.588   7.351  1.00  0.00    -0.306 N 
HETATM    4  O   UNL     1      43.857 -11.948   5.900  1.00  0.00    -0.247 OA
HETATM    5  H   UNL     1      42.972 -11.747   8.880  1.00  0.00     0.171 HD
HETATM    6  H   UNL     1      43.343 -13.920   8.283  1.00  0.00     0.171 HD
ENDROOT
BRANCH   1   7
HETATM    7  C   UNL     1      44.279 -10.309   8.245  1.00  0.00     0.086 A 
HETATM    8  C   UNL     1      43.642  -9.173   8.708  1.00  0.00     0.052 A 
HETATM    9  C   UNL     1      42.261  -8.913   9.174  1.00  0.00     0.072 C 
HETATM   10  N   UNL     1      44.575  -8.177   8.645  1.00  0.00    -0.280 N 
HETATM   11  H   UNL     1      44.464  -7.198   8.887  1.00  0.00     0.189 HD
HETATM   12  N   UNL     1      45.773  -8.580   8.211  1.00  0.00    -0.177 NA
HETATM   13  C   UNL     1      45.611  -9.888   7.962  1.00  0.00     0.079 A 
HETATM   14  C   UNL     1      46.786 -10.682   7.521  1.00  0.00     0.075 C 
ENDBRANCH   1   7
BRANCH   3  15
HETATM   15  C   UNL     1      42.733 -14.602   6.449  1.00  0.00     0.071 A 
HETATM   16  C   UNL     1      41.421 -14.546   5.940  1.00  0.00     0.095 A 
HETATM   17  C   UNL     1      40.993 -15.487   4.999  1.00  0.00     0.040 A 
HETATM   18  C   UNL     1      41.860 -16.500   4.584  1.00  0.00     0.022 A 
HETATM   19  C   UNL     1      43.152 -16.562   5.103  1.00  0.00     0.013 A 
HETATM   20 BR   UNL     1      44.323 -17.929   4.521  1.00  0.00    -0.051 Br
HETATM   21  C   UNL     1      43.595 -15.619   6.031  1.00  0.00     0.051 A 
BRANCH  16  22
HETATM   22  O   UNL     1      40.630 -13.517   6.396  1.00  0.00    -0.354 OA
HETATM   23  C   UNL     1      39.994 -12.768   5.363  1.00  0.00     0.210 C 
ENDBRANCH  16  22
ENDBRANCH   3  15
TORSDOF 3
ENDMDL
MODEL 8
REMARK VINA RESULT:      -6.3      3.176      7.011
REMARK  3 active torsions:
REMARK  status: ('A' for Active; 'I' for Inactive)
REMARK    1  A    between atoms: C_8  and  N_9 
REMARK       I    between atoms: N_9  and  C_10 
REMARK       I    between atoms: C_10  and  N_11 
REMARK    2  A    between atoms: N_11  and  C_12 
REMARK    3  A    between atoms: C_13  and  O_14 
ROOT
HETATM    1  N   UNL     1      41.402 -16.409   3.990  1.00  0.00    -0.305 N 
HETATM    2  C   UNL     1      41.508 -15.403   3.048  1.00  0.00     0.325 C 
HETATM    3  N   UNL     1      40.342 -15.318   2.310  1.00  0.00    -0.306 N 
HETATM    4  O   UNL     1      42.486 -14.682   2.893  1.00  0.00    -0.247 OA
HETATM    5  H   UNL     1      40.475 -16.559   4.357  1.00  0.00     0.171 HD
HETATM    6  H   UNL     1      39.817 -16.178   2.204  1.00  0.00     0.171 HD
ENDROOT
BRANCH   1   7
HETATM    7  C   UNL     1      42.452 -16.907   4.741  1.00  0.00     0.086 A 
HETATM    8  C   UNL     1      43.453 -17.697   4.207  1.00  0.00     0.052 A 
HETATM    9  C   UNL     1      43.688 -18.242   2.851  1.00  0.00     0.072 C 
HETATM   10  N   UNL     1      44.299 -17.970   5.244  1.00  0.00    -0.280 N 
HETATM   11  H   UNL     1      45.140 -18.537   5.234  1.00  0.00     0.189 HD
HETATM   12  N   UNL     1      43.949 -17.394   6.398  1.00  0.00    -0.177 NA
HETATM   13  C   UNL     1      42.817 -16.735   6.108  1.00  0.00     0.079 A 
HETATM   14  C   UNL     1      42.178 -15.913   7.168  1.00  0.00     0.075 C 
ENDBRANCH   1   7
BRANCH   3  15
HETATM   15  C   UNL     1      39.995 -14.306   1.388  1.00  0.00     0.071 A 
HETATM   16  C   UNL     1      39.428 -13.126   1.908  1.00  0.00     0.095 A 
HETATM   17  C   UNL     1      39.114 -12.063   1.056  1.00  0.00     0.040 A 
HETATM   18  C   UNL     1      39.339 -12.183  -0.317  1.00  0.00     0.022 A 
HETATM   19  C   UNL     1      39.884 -13.360  -0.829  1.00  0.00     0.013 A 
HETATM   20 BR   UNL     1      40.200 -13.505  -2.689  1.00  0.00    -0.051 Br
HETATM   21  C   UNL     1      40.216 -14.420   0.014  1.00  0.00     0.051 A 
BRANCH  16  22
HETATM   22  O   UNL     1      39.241 -13.084   3.271  1.00  0.00    -0.354 OA
HETATM   23  C   UNL     1      39.427 -11.793   3.846  1.00  0.00     0.210 C 
ENDBRANCH  16  22
ENDBRANCH   3  15
TORSDOF 3
ENDMDL
MODEL 9
REMARK VINA RESULT:      -6.2      5.506      7.879
REMARK  3 active torsions:
REMARK  status: ('A' for Active; 'I' for Inactive)
REMARK    1  A    between atoms: C_8  and  N_9 
REMARK       I    between atoms: N_9  and  C_10 
REMARK       I    between atoms: C_10  and  N_11 
REMARK    2  A    between atoms: N_11  and  C_12 
REMARK    3  A    between atoms: C_13  and  O_14 
ROOT
HETATM    1  N   UNL     1      43.313 -11.310   7.714  1.00  0.00    -0.305 N 
HETATM    2  C   UNL     1      43.346 -11.965   6.497  1.00  0.00     0.325 C 
HETATM    3  N   UNL     1      42.840 -13.245   6.632  1.00  0.00    -0.306 N 
HETATM    4  O   UNL     1      43.753 -11.483   5.448  1.00  0.00    -0.247 OA
HETATM    5  H   UNL     1      42.549 -11.569   8.321  1.00  0.00     0.171 HD
HETATM    6  H   UNL     1      42.953 -13.676   7.541  1.00  0.00     0.171 HD
ENDROOT
BRANCH   1   7
HETATM    7  C   UNL     1      43.938 -10.106   7.985  1.00  0.00     0.086 A 
HETATM    8  C   UNL     1      43.260  -8.989   8.433  1.00  0.00     0.052 A 
HETATM    9  C   UNL     1      41.828  -8.720   8.697  1.00  0.00     0.072 C 
HETATM   10  N   UNL     1      44.211  -8.022   8.597  1.00  0.00    -0.280 N 
HETATM   11  H   UNL     1      44.082  -7.062   8.898  1.00  0.00     0.189 HD
HETATM   12  N   UNL     1      45.454  -8.430   8.325  1.00  0.00    -0.177 NA
HETATM   13  C   UNL     1      45.306  -9.709   7.949  1.00  0.00     0.079 A 
HETATM   14  C   UNL     1      46.521 -10.504   7.633  1.00  0.00     0.075 C 
ENDBRANCH   1   7
BRANCH   3  15
HETATM   15  C   UNL     1      42.538 -14.151   5.591  1.00  0.00     0.071 A 
HETATM   16  C   UNL     1      43.251 -15.365   5.565  1.00  0.00     0.095 A 
HETATM   17  C   UNL     1      42.961 -16.329   4.596  1.00  0.00     0.040 A 
HETATM   18  C   UNL     1      41.980 -16.075   3.635  1.00  0.00     0.022 A 
HETATM   19  C   UNL     1      41.289 -14.865   3.653  1.00  0.00     0.013 A 
HETATM   20 BR   UNL     1      39.951 -14.538   2.356  1.00  0.00    -0.051 Br
HETATM   21  C   UNL     1      41.560 -13.902   4.625  1.00  0.00     0.051 A 
BRANCH  16  22
HETATM   22  O   UNL     1      44.199 -15.541   6.548  1.00  0.00    -0.354 OA
HETATM   23  C   UNL     1      43.958 -16.660   7.397  1.00  0.00     0.210 C 
ENDBRANCH  16  22
ENDBRANCH   3  15
TORSDOF 3
ENDMDL
MODEL 10
REMARK VINA RESULT:      -6.1      3.532      7.248
REMARK  3 active torsions:
REMARK  status: ('A' for Active; 'I' for Inactive)
REMARK    1  A    between atoms: C_8  and  N_9 
REMARK       I    between atoms: N_9  and  C_10 
REMARK       I    between atoms: C_10  and  N_11 
REMARK    2  A    between atoms: N_11  and  C_12 
REMARK    3  A    between atoms: C_13  and  O_14 
ROOT
HETATM    1  N   UNL     1      41.231 -16.098   4.082  1.00  0.00    -0.305 N 
HETATM    2  C   UNL     1      41.295 -14.890   3.412  1.00  0.00     0.325 C 
HETATM    3  N   UNL     1      40.043 -14.542   2.940  1.00  0.00    -0.306 N 
HETATM    4  O   UNL     1      42.307 -14.217   3.266  1.00  0.00    -0.247 OA
HETATM    5  H   UNL     1      40.362 -16.278   4.561  1.00  0.00     0.171 HD
HETATM    6  H   UNL     1      39.418 -15.309   2.721  1.00  0.00     0.171 HD
ENDROOT
BRANCH   1   7
HETATM    7  C   UNL     1      42.327 -16.839   4.487  1.00  0.00     0.086 A 
HETATM    8  C   UNL     1      42.742 -16.913   5.803  1.00  0.00     0.052 A 
HETATM    9  C   UNL     1      42.255 -16.278   7.049  1.00  0.00     0.072 C 
HETATM   10  N   UNL     1      43.829 -17.741   5.800  1.00  0.00    -0.280 N 
HETATM   11  H   UNL     1      44.409 -18.016   6.585  1.00  0.00     0.189 HD
HETATM   12  N   UNL     1      44.131 -18.238   4.596  1.00  0.00    -0.177 NA
HETATM   13  C   UNL     1      43.218 -17.696   3.777  1.00  0.00     0.079 A 
HETATM   14  C   UNL     1      43.218 -18.093   2.346  1.00  0.00     0.075 C 
ENDBRANCH   1   7
BRANCH   3  15
HETATM   15  C   UNL     1      39.665 -13.305   2.372  1.00  0.00     0.071 A 
HETATM   16  C   UNL     1      39.618 -13.227   0.966  1.00  0.00     0.095 A 
HETATM   17  C   UNL     1      39.197 -12.050   0.342  1.00  0.00     0.040 A 
HETATM   18  C   UNL     1      38.847 -10.941   1.115  1.00  0.00     0.022 A 
HETATM   19  C   UNL     1      38.912 -11.016   2.505  1.00  0.00     0.013 A 
HETATM   20 BR   UNL     1      38.420  -9.512   3.542  1.00  0.00    -0.051 Br
HETATM   21  C   UNL     1      39.316 -12.191   3.139  1.00  0.00     0.051 A 
BRANCH  16  22
HETATM   22  O   UNL     1      39.975 -14.364   0.277  1.00  0.00    -0.354 OA
HETATM   23  C   UNL     1      39.501 -14.404  -1.068  1.00  0.00     0.210 C 
ENDBRANCH  16  22
ENDBRANCH   3  15
TORSDOF 3
ENDMDL
