MODEL 1
REMARK VINA RESULT:      -8.1      0.000      0.000
REMARK  7 active torsions:
REMARK  status: ('A' for Active; 'I' for Inactive)
REMARK    1  A    between atoms: C_3  and  N_4 
REMARK       I    between atoms: N_4  and  C_5 
REMARK    2  A    between atoms: C_5  and  C_6 
REMARK    3  A    between atoms: C_7  and  C_8 
REMARK    4  A    between atoms: C_20  and  C_21 
REMARK    5  A    between atoms: C_21  and  C_22 
REMARK    6  A    between atoms: C_22  and  C_23 
REMARK    7  A    between atoms: C_23  and  O_24 
ROOT
HETATM    1  C   UNL     1      40.210 -14.319   2.860  1.00  0.00     0.062 C 
HETATM    2  C   UNL     1      40.173 -13.202   3.910  1.00  0.00     0.202 C 
HETATM    3  N   UNL     1      39.402 -12.051   3.425  1.00  0.00    -0.083 N 
HETATM    4  C   UNL     1      39.028 -11.879   2.122  1.00  0.00     0.726 A 
HETATM    5  N   UNL     1      39.268 -12.860   1.234  1.00  0.00    -0.192 N 
HETATM    6  N   UNL     1      39.073 -10.978   4.176  1.00  0.00    -0.140 NA
HETATM    7  C   UNL     1      38.567 -10.164   3.239  1.00  0.00     0.166 A 
HETATM    8  N   UNL     1      38.496 -10.695   1.972  1.00  0.00    -0.046 NA
HETATM    9  C   UNL     1      39.825 -14.087   1.578  1.00  0.00     0.037 C 
HETATM   10  C   UNL     1      39.993 -15.056   0.433  1.00  0.00     0.070 C 
HETATM   11  H   UNL     1      38.998 -12.712   0.265  1.00  0.00     0.184 HD
ENDROOT
BRANCH   1  12
HETATM   12  C   UNL     1      40.721 -15.630   3.367  1.00  0.00     0.256 C 
HETATM   13  N   UNL     1      41.971 -15.962   2.898  1.00  0.00    -0.323 N 
HETATM   14  H   UNL     1      42.276 -15.469   2.068  1.00  0.00     0.169 HD
HETATM   15  O   UNL     1      39.981 -16.358   4.014  1.00  0.00    -0.267 OA
BRANCH  13  16
HETATM   16  C   UNL     1      42.831 -16.997   3.333  1.00  0.00     0.041 A 
HETATM   17  C   UNL     1      43.584 -17.017   4.523  1.00  0.00    -0.035 A 
HETATM   18  C   UNL     1      43.641 -15.904   5.532  1.00  0.00     0.050 C 
HETATM   19  C   UNL     1      44.390 -18.144   4.795  1.00  0.00     0.009 A 
HETATM   20  C   UNL     1      44.500 -19.200   3.894  1.00  0.00     0.001 A 
HETATM   21  C   UNL     1      43.803 -19.151   2.697  1.00  0.00     0.002 A 
HETATM   22  C   UNL     1      42.980 -18.059   2.420  1.00  0.00     0.030 A 
ENDBRANCH  13  16
ENDBRANCH   1  12
BRANCH   2  23
HETATM   23  C   UNL     1      41.562 -12.714   4.332  1.00  0.00    -0.026 A 
HETATM   24  C   UNL     1      41.960 -12.701   5.682  1.00  0.00     0.035 A 
HETATM   25  C   UNL     1      43.234 -12.254   6.051  1.00  0.00     0.056 A 
HETATM   26 CL   UNL     1      43.631 -12.263   7.733  1.00  0.00    -0.083 Cl
HETATM   27  C   UNL     1      44.132 -11.819   5.072  1.00  0.00     0.055 A 
HETATM   28 CL   UNL     1      45.718 -11.251   5.452  1.00  0.00    -0.083 Cl
HETATM   29  C   UNL     1      43.751 -11.834   3.728  1.00  0.00     0.026 A 
HETATM   30  C   UNL     1      42.477 -12.279   3.360  1.00  0.00     0.011 A 
ENDBRANCH   2  23
BRANCH   7  31
HETATM   31  C   UNL     1      38.203  -8.751   3.514  1.00  0.00     0.085 C 
BRANCH  31  32
HETATM   32  C   UNL     1      39.165  -8.073   4.491  1.00  0.00     0.034 C 
BRANCH  32  33
HETATM   33  C   UNL     1      38.553  -7.837   5.868  1.00  0.00     0.164 C 
BRANCH  33  34
HETATM   34  O   UNL     1      38.560  -9.052   6.609  1.00  0.00    -0.401 OA
HETATM   35  H   UNL     1      39.465  -9.200   6.930  1.00  0.00     0.209 HD
ENDBRANCH  33  34
ENDBRANCH  32  33
ENDBRANCH  31  32
ENDBRANCH   7  31
TORSDOF 7
ENDMDL
MODEL 2
REMARK VINA RESULT:      -7.7      3.251      6.287
REMARK  7 active torsions:
REMARK  status: ('A' for Active; 'I' for Inactive)
REMARK    1  A    between atoms: C_3  and  N_4 
REMARK       I    between atoms: N_4  and  C_5 
REMARK    2  A    between atoms: C_5  and  C_6 
REMARK    3  A    between atoms: C_7  and  C_8 
REMARK    4  A    between atoms: C_20  and  C_21 
REMARK    5  A    between atoms: C_21  and  C_22 
REMARK    6  A    between atoms: C_22  and  C_23 
REMARK    7  A    between atoms: C_23  and  O_24 
ROOT
HETATM    1  C   UNL     1      41.402 -13.006   4.482  1.00  0.00     0.062 C 
HETATM    2  C   UNL     1      42.066 -13.500   3.191  1.00  0.00     0.202 C 
HETATM    3  N   UNL     1      41.144 -13.397   2.054  1.00  0.00    -0.083 N 
HETATM    4  C   UNL     1      39.801 -13.178   2.179  1.00  0.00     0.726 A 
HETATM    5  N   UNL     1      39.287 -12.925   3.395  1.00  0.00    -0.192 N 
HETATM    6  N   UNL     1      41.488 -13.621   0.767  1.00  0.00    -0.140 NA
HETATM    7  C   UNL     1      40.283 -13.594   0.180  1.00  0.00     0.166 A 
HETATM    8  N   UNL     1      39.228 -13.295   1.010  1.00  0.00    -0.046 NA
HETATM    9  C   UNL     1      40.059 -12.805   4.545  1.00  0.00     0.037 C 
HETATM   10  C   UNL     1      39.287 -12.499   5.805  1.00  0.00     0.070 C 
HETATM   11  H   UNL     1      38.284 -12.778   3.475  1.00  0.00     0.184 HD
ENDROOT
BRANCH   1  12
HETATM   12  C   UNL     1      42.343 -12.802   5.626  1.00  0.00     0.256 C 
HETATM   13  N   UNL     1      43.154 -11.699   5.492  1.00  0.00    -0.323 N 
HETATM   14  H   UNL     1      43.248 -11.332   4.553  1.00  0.00     0.169 HD
HETATM   15  O   UNL     1      42.434 -13.658   6.495  1.00  0.00    -0.267 OA
BRANCH  13  16
HETATM   16  C   UNL     1      43.989 -11.094   6.460  1.00  0.00     0.041 A 
HETATM   17  C   UNL     1      43.592 -10.177   7.453  1.00  0.00    -0.035 A 
HETATM   18  C   UNL     1      42.199  -9.639   7.630  1.00  0.00     0.050 C 
HETATM   19  C   UNL     1      44.569  -9.676   8.342  1.00  0.00     0.009 A 
HETATM   20  C   UNL     1      45.912 -10.022   8.222  1.00  0.00     0.001 A 
HETATM   21  C   UNL     1      46.310 -10.879   7.208  1.00  0.00     0.002 A 
HETATM   22  C   UNL     1      45.356 -11.406   6.336  1.00  0.00     0.030 A 
ENDBRANCH  13  16
ENDBRANCH   1  12
BRANCH   2  23
HETATM   23  C   UNL     1      42.573 -14.943   3.279  1.00  0.00    -0.026 A 
HETATM   24  C   UNL     1      42.562 -15.655   4.493  1.00  0.00     0.035 A 
HETATM   25  C   UNL     1      43.027 -16.974   4.555  1.00  0.00     0.056 A 
HETATM   26 CL   UNL     1      42.987 -17.765   6.091  1.00  0.00    -0.083 Cl
HETATM   27  C   UNL     1      43.504 -17.602   3.401  1.00  0.00     0.055 A 
HETATM   28 CL   UNL     1      44.096 -19.224   3.403  1.00  0.00    -0.083 Cl
HETATM   29  C   UNL     1      43.512 -16.907   2.189  1.00  0.00     0.026 A 
HETATM   30  C   UNL     1      43.049 -15.589   2.127  1.00  0.00     0.011 A 
ENDBRANCH   2  23
BRANCH   7  31
HETATM   31  C   UNL     1      40.075 -13.961  -1.244  1.00  0.00     0.085 C 
BRANCH  31  32
HETATM   32  C   UNL     1      39.808 -12.746  -2.134  1.00  0.00     0.034 C 
BRANCH  32  33
HETATM   33  C   UNL     1      40.995 -12.380  -3.019  1.00  0.00     0.164 C 
BRANCH  33  34
HETATM   34  O   UNL     1      41.652 -13.565  -3.454  1.00  0.00    -0.401 OA
HETATM   35  H   UNL     1      41.100 -14.322  -3.197  1.00  0.00     0.209 HD
ENDBRANCH  33  34
ENDBRANCH  32  33
ENDBRANCH  31  32
ENDBRANCH   7  31
TORSDOF 7
ENDMDL
MODEL 3
REMARK VINA RESULT:      -7.5      3.566      6.061
REMARK  7 active torsions:
REMARK  status: ('A' for Active; 'I' for Inactive)
REMARK    1  A    between atoms: C_3  and  N_4 
REMARK       I    between atoms: N_4  and  C_5 
REMARK    2  A    between atoms: C_5  and  C_6 
REMARK    3  A    between atoms: C_7  and  C_8 
REMARK    4  A    between atoms: C_20  and  C_21 
REMARK    5  A    between atoms: C_21  and  C_22 
REMARK    6  A    between atoms: C_22  and  C_23 
REMARK    7  A    between atoms: C_23  and  O_24 
ROOT
HETATM    1  C   UNL     1      41.448 -12.975   4.713  1.00  0.00     0.062 C 
HETATM    2  C   UNL     1      42.301 -11.703   4.798  1.00  0.00     0.202 C 
HETATM    3  N   UNL     1      43.334 -11.833   5.832  1.00  0.00    -0.083 N 
HETATM    4  C   UNL     1      43.345 -12.818   6.778  1.00  0.00     0.726 A 
HETATM    5  N   UNL     1      42.432 -13.803   6.714  1.00  0.00    -0.192 N 
HETATM    6  N   UNL     1      44.323 -10.938   6.042  1.00  0.00    -0.140 NA
HETATM    7  C   UNL     1      44.847 -11.410   7.182  1.00  0.00     0.166 A 
HETATM    8  N   UNL     1      44.292 -12.579   7.647  1.00  0.00    -0.046 NA
HETATM    9  C   UNL     1      41.502 -13.921   5.687  1.00  0.00     0.037 C 
HETATM   10  C   UNL     1      40.580 -15.111   5.793  1.00  0.00     0.070 C 
HETATM   11  H   UNL     1      42.443 -14.521   7.433  1.00  0.00     0.184 HD
ENDROOT
BRANCH   1  12
HETATM   12  C   UNL     1      40.565 -13.050   3.508  1.00  0.00     0.256 C 
HETATM   13  N   UNL     1      41.249 -13.173   2.321  1.00  0.00    -0.323 N 
HETATM   14  H   UNL     1      42.226 -12.907   2.345  1.00  0.00     0.169 HD
HETATM   15  O   UNL     1      39.362 -12.862   3.626  1.00  0.00    -0.267 OA
BRANCH  13  16
HETATM   16  C   UNL     1      40.743 -13.485   1.038  1.00  0.00     0.041 A 
HETATM   17  C   UNL     1      40.136 -14.695   0.647  1.00  0.00    -0.035 A 
HETATM   18  C   UNL     1      39.959 -15.901   1.529  1.00  0.00     0.050 C 
HETATM   19  C   UNL     1      39.683 -14.827  -0.684  1.00  0.00     0.009 A 
HETATM   20  C   UNL     1      39.875 -13.819  -1.625  1.00  0.00     0.001 A 
HETATM   21  C   UNL     1      40.525 -12.653  -1.254  1.00  0.00     0.002 A 
HETATM   22  C   UNL     1      40.956 -12.491   0.064  1.00  0.00     0.030 A 
ENDBRANCH  13  16
ENDBRANCH   1  12
BRANCH   2  23
HETATM   23  C   UNL     1      41.484 -10.438   5.082  1.00  0.00    -0.026 A 
HETATM   24  C   UNL     1      41.553  -9.313   4.241  1.00  0.00     0.035 A 
HETATM   25  C   UNL     1      40.799  -8.166   4.513  1.00  0.00     0.056 A 
HETATM   26 CL   UNL     1      40.957  -6.827   3.431  1.00  0.00    -0.083 Cl
HETATM   27  C   UNL     1      39.958  -8.131   5.629  1.00  0.00     0.055 A 
HETATM   28 CL   UNL     1      39.001  -6.751   6.030  1.00  0.00    -0.083 Cl
HETATM   29  C   UNL     1      39.876  -9.246   6.468  1.00  0.00     0.026 A 
HETATM   30  C   UNL     1      40.631 -10.391   6.196  1.00  0.00     0.011 A 
ENDBRANCH   2  23
BRANCH   7  31
HETATM   31  C   UNL     1      45.883 -10.677   7.954  1.00  0.00     0.085 C 
BRANCH  31  32
HETATM   32  C   UNL     1      45.345 -10.101   9.264  1.00  0.00     0.034 C 
BRANCH  32  33
HETATM   33  C   UNL     1      44.587  -8.790   9.076  1.00  0.00     0.164 C 
BRANCH  33  34
HETATM   34  O   UNL     1      45.390  -7.875   8.338  1.00  0.00    -0.401 OA
HETATM   35  H   UNL     1      45.348  -8.131   7.402  1.00  0.00     0.209 HD
ENDBRANCH  33  34
ENDBRANCH  32  33
ENDBRANCH  31  32
ENDBRANCH   7  31
TORSDOF 7
ENDMDL
MODEL 4
REMARK VINA RESULT:      -7.4      3.414      6.040
REMARK  7 active torsions:
REMARK  status: ('A' for Active; 'I' for Inactive)
REMARK    1  A    between atoms: C_3  and  N_4 
REMARK       I    between atoms: N_4  and  C_5 
REMARK    2  A    between atoms: C_5  and  C_6 
REMARK    3  A    between atoms: C_7  and  C_8 
REMARK    4  A    between atoms: C_20  and  C_21 
REMARK    5  A    between atoms: C_21  and  C_22 
REMARK    6  A    between atoms: C_22  and  C_23 
REMARK    7  A    between atoms: C_23  and  O_24 
ROOT
HETATM    1  C   UNL     1      41.386 -13.294   3.590  1.00  0.00     0.062 C 
HETATM    2  C   UNL     1      42.096 -11.978   3.929  1.00  0.00     0.202 C 
HETATM    3  N   UNL     1      43.175 -12.198   4.899  1.00  0.00    -0.083 N 
HETATM    4  C   UNL     1      43.329 -13.350   5.619  1.00  0.00     0.726 A 
HETATM    5  N   UNL     1      42.528 -14.399   5.360  1.00  0.00    -0.192 N 
HETATM    6  N   UNL     1      44.066 -11.258   5.280  1.00  0.00    -0.140 NA
HETATM    7  C   UNL     1      44.680 -11.892   6.289  1.00  0.00     0.166 A 
HETATM    8  N   UNL     1      44.274 -13.188   6.506  1.00  0.00    -0.046 NA
HETATM    9  C   UNL     1      41.580 -14.408   4.344  1.00  0.00     0.037 C 
HETATM   10  C   UNL     1      40.799 -15.693   4.209  1.00  0.00     0.070 C 
HETATM   11  H   UNL     1      42.644 -15.244   5.914  1.00  0.00     0.184 HD
ENDROOT
BRANCH   1  12
HETATM   12  C   UNL     1      40.474 -13.221   2.407  1.00  0.00     0.256 C 
HETATM   13  N   UNL     1      41.128 -13.196   1.197  1.00  0.00    -0.323 N 
HETATM   14  H   UNL     1      42.106 -12.934   1.230  1.00  0.00     0.169 HD
HETATM   15  O   UNL     1      39.275 -13.049   2.577  1.00  0.00    -0.267 OA
BRANCH  13  16
HETATM   16  C   UNL     1      40.590 -13.347  -0.102  1.00  0.00     0.041 A 
HETATM   17  C   UNL     1      40.617 -12.392  -1.137  1.00  0.00    -0.035 A 
HETATM   18  C   UNL     1      41.191 -11.007  -1.024  1.00  0.00     0.050 C 
HETATM   19  C   UNL     1      40.029 -12.722  -2.378  1.00  0.00     0.009 A 
HETATM   20  C   UNL     1      39.378 -13.936  -2.579  1.00  0.00     0.001 A 
HETATM   21  C   UNL     1      39.302 -14.851  -1.541  1.00  0.00     0.002 A 
HETATM   22  C   UNL     1      39.900 -14.556  -0.315  1.00  0.00     0.030 A 
ENDBRANCH  13  16
ENDBRANCH   1  12
BRANCH   2  23
HETATM   23  C   UNL     1      41.156 -10.902   4.481  1.00  0.00    -0.026 A 
HETATM   24  C   UNL     1      40.578 -11.014   5.759  1.00  0.00     0.035 A 
HETATM   25  C   UNL     1      39.723 -10.020   6.249  1.00  0.00     0.056 A 
HETATM   26 CL   UNL     1      39.049 -10.249   7.825  1.00  0.00    -0.083 Cl
HETATM   27  C   UNL     1      39.439  -8.896   5.469  1.00  0.00     0.055 A 
HETATM   28 CL   UNL     1      38.391  -7.633   6.006  1.00  0.00    -0.083 Cl
HETATM   29  C   UNL     1      40.013  -8.770   4.202  1.00  0.00     0.026 A 
HETATM   30  C   UNL     1      40.866  -9.764   3.711  1.00  0.00     0.011 A 
ENDBRANCH   2  23
BRANCH   7  31
HETATM   31  C   UNL     1      45.657 -11.220   7.184  1.00  0.00     0.085 C 
BRANCH  31  32
HETATM   32  C   UNL     1      44.993 -10.234   8.147  1.00  0.00     0.034 C 
BRANCH  32  33
HETATM   33  C   UNL     1      45.831  -8.983   8.395  1.00  0.00     0.164 C 
BRANCH  33  34
HETATM   34  O   UNL     1      46.891  -8.921   7.448  1.00  0.00    -0.401 OA
HETATM   35  H   UNL     1      47.463  -9.693   7.591  1.00  0.00     0.209 HD
ENDBRANCH  33  34
ENDBRANCH  32  33
ENDBRANCH  31  32
ENDBRANCH   7  31
TORSDOF 7
ENDMDL
MODEL 5
REMARK VINA RESULT:      -7.3      4.342      5.515
REMARK  7 active torsions:
REMARK  status: ('A' for Active; 'I' for Inactive)
REMARK    1  A    between atoms: C_3  and  N_4 
REMARK       I    between atoms: N_4  and  C_5 
REMARK    2  A    between atoms: C_5  and  C_6 
REMARK    3  A    between atoms: C_7  and  C_8 
REMARK    4  A    between atoms: C_20  and  C_21 
REMARK    5  A    between atoms: C_21  and  C_22 
REMARK    6  A    between atoms: C_22  and  C_23 
REMARK    7  A    between atoms: C_23  and  O_24 
ROOT
HETATM    1  C   UNL     1      40.726 -12.869   2.629  1.00  0.00     0.062 C 
HETATM    2  C   UNL     1      41.174 -12.350   1.257  1.00  0.00     0.202 C 
HETATM    3  N   UNL     1      41.221 -10.883   1.240  1.00  0.00    -0.083 N 
HETATM    4  C   UNL     1      40.663 -10.093   2.205  1.00  0.00     0.726 A 
HETATM    5  N   UNL     1      40.134 -10.665   3.300  1.00  0.00    -0.192 N 
HETATM    6  N   UNL     1      41.713 -10.145   0.223  1.00  0.00    -0.140 NA
HETATM    7  C   UNL     1      41.349  -8.914   0.611  1.00  0.00     0.166 A 
HETATM    8  N   UNL     1      40.729  -8.840   1.837  1.00  0.00    -0.046 NA
HETATM    9  C   UNL     1      40.178 -12.032   3.549  1.00  0.00     0.037 C 
HETATM   10  C   UNL     1      39.542 -12.468   4.846  1.00  0.00     0.070 C 
HETATM   11  H   UNL     1      39.709 -10.066   4.003  1.00  0.00     0.184 HD
ENDROOT
BRANCH   1  12
HETATM   12  C   UNL     1      40.923 -14.338   2.831  1.00  0.00     0.256 C 
HETATM   13  N   UNL     1      42.242 -14.727   2.851  1.00  0.00    -0.323 N 
HETATM   14  H   UNL     1      42.901 -14.074   2.445  1.00  0.00     0.169 HD
HETATM   15  O   UNL     1      39.955 -15.086   2.821  1.00  0.00    -0.267 OA
BRANCH  13  16
HETATM   16  C   UNL     1      42.790 -15.974   3.233  1.00  0.00     0.041 A 
HETATM   17  C   UNL     1      43.305 -16.312   4.499  1.00  0.00    -0.035 A 
HETATM   18  C   UNL     1      43.408 -15.375   5.671  1.00  0.00     0.050 C 
HETATM   19  C   UNL     1      43.810 -17.615   4.700  1.00  0.00     0.009 A 
HETATM   20  C   UNL     1      43.862 -18.547   3.666  1.00  0.00     0.001 A 
HETATM   21  C   UNL     1      43.407 -18.194   2.405  1.00  0.00     0.002 A 
HETATM   22  C   UNL     1      42.879 -16.919   2.192  1.00  0.00     0.030 A 
ENDBRANCH  13  16
ENDBRANCH   1  12
BRANCH   2  23
HETATM   23  C   UNL     1      40.281 -12.821   0.105  1.00  0.00    -0.026 A 
HETATM   24  C   UNL     1      39.196 -12.049  -0.351  1.00  0.00     0.035 A 
HETATM   25  C   UNL     1      38.392 -12.494  -1.406  1.00  0.00     0.056 A 
HETATM   26 CL   UNL     1      37.075 -11.484  -1.890  1.00  0.00    -0.083 Cl
HETATM   27  C   UNL     1      38.665 -13.717  -2.026  1.00  0.00     0.055 A 
HETATM   28 CL   UNL     1      37.714 -14.330  -3.330  1.00  0.00    -0.083 Cl
HETATM   29  C   UNL     1      39.743 -14.489  -1.587  1.00  0.00     0.026 A 
HETATM   30  C   UNL     1      40.546 -14.045  -0.531  1.00  0.00     0.011 A 
ENDBRANCH   2  23
BRANCH   7  31
HETATM   31  C   UNL     1      41.504  -7.719  -0.258  1.00  0.00     0.085 C 
BRANCH  31  32
HETATM   32  C   UNL     1      42.610  -7.887  -1.300  1.00  0.00     0.034 C 
BRANCH  32  33
HETATM   33  C   UNL     1      42.077  -8.029  -2.722  1.00  0.00     0.164 C 
BRANCH  33  34
HETATM   34  O   UNL     1      41.321  -9.230  -2.833  1.00  0.00    -0.401 OA
HETATM   35  H   UNL     1      41.868  -9.884  -3.299  1.00  0.00     0.209 HD
ENDBRANCH  33  34
ENDBRANCH  32  33
ENDBRANCH  31  32
ENDBRANCH   7  31
TORSDOF 7
ENDMDL
MODEL 6
REMARK VINA RESULT:      -7.2     17.176     18.996
REMARK  7 active torsions:
REMARK  status: ('A' for Active; 'I' for Inactive)
REMARK    1  A    between atoms: C_3  and  N_4 
REMARK       I    between atoms: N_4  and  C_5 
REMARK    2  A    between atoms: C_5  and  C_6 
REMARK    3  A    between atoms: C_7  and  C_8 
REMARK    4  A    between atoms: C_20  and  C_21 
REMARK    5  A    between atoms: C_21  and  C_22 
REMARK    6  A    between atoms: C_22  and  C_23 
REMARK    7  A    between atoms: C_23  and  O_24 
ROOT
HETATM    1  C   UNL     1      46.891 -29.156   1.525  1.00  0.00     0.062 C 
HETATM    2  C   UNL     1      47.488 -28.915   0.133  1.00  0.00     0.202 C 
HETATM    3  N   UNL     1      46.437 -28.592  -0.840  1.00  0.00    -0.083 N 
HETATM    4  C   UNL     1      45.103 -28.773  -0.607  1.00  0.00     0.726 A 
HETATM    5  N   UNL     1      44.694 -29.160   0.613  1.00  0.00    -0.192 N 
HETATM    6  N   UNL     1      46.666 -28.192  -2.109  1.00  0.00    -0.140 NA
HETATM    7  C   UNL     1      45.422 -28.224  -2.607  1.00  0.00     0.166 A 
HETATM    8  N   UNL     1      44.433 -28.547  -1.707  1.00  0.00    -0.046 NA
HETATM    9  C   UNL     1      45.553 -29.328   1.693  1.00  0.00     0.037 C 
HETATM   10  C   UNL     1      44.888 -29.749   2.981  1.00  0.00     0.070 C 
HETATM   11  H   UNL     1      43.699 -29.305   0.767  1.00  0.00     0.184 HD
ENDROOT
BRANCH   1  12
HETATM   12  C   UNL     1      47.896 -29.206   2.631  1.00  0.00     0.256 C 
HETATM   13  N   UNL     1      48.178 -30.478   3.074  1.00  0.00    -0.323 N 
HETATM   14  H   UNL     1      47.495 -31.188   2.838  1.00  0.00     0.169 HD
HETATM   15  O   UNL     1      48.280 -28.166   3.149  1.00  0.00    -0.267 OA
BRANCH  13  16
HETATM   16  C   UNL     1      49.216 -30.905   3.933  1.00  0.00     0.041 A 
HETATM   17  C   UNL     1      50.592 -30.649   3.777  1.00  0.00    -0.035 A 
HETATM   18  C   UNL     1      51.211 -29.906   2.625  1.00  0.00     0.050 C 
HETATM   19  C   UNL     1      51.490 -31.155   4.742  1.00  0.00     0.009 A 
HETATM   20  C   UNL     1      51.053 -31.942   5.805  1.00  0.00     0.001 A 
HETATM   21  C   UNL     1      49.705 -32.241   5.925  1.00  0.00     0.002 A 
HETATM   22  C   UNL     1      48.798 -31.729   4.996  1.00  0.00     0.030 A 
ENDBRANCH  13  16
ENDBRANCH   1  12
BRANCH   2  23
HETATM   23  C   UNL     1      48.295 -30.104  -0.398  1.00  0.00    -0.026 A 
HETATM   24  C   UNL     1      49.579 -29.935  -0.949  1.00  0.00     0.035 A 
HETATM   25  C   UNL     1      50.304 -31.032  -1.429  1.00  0.00     0.056 A 
HETATM   26 CL   UNL     1      51.868 -30.727  -2.100  1.00  0.00    -0.083 Cl
HETATM   27  C   UNL     1      49.756 -32.316  -1.358  1.00  0.00     0.055 A 
HETATM   28 CL   UNL     1      50.591 -33.715  -1.932  1.00  0.00    -0.083 Cl
HETATM   29  C   UNL     1      48.486 -32.497  -0.806  1.00  0.00     0.026 A 
HETATM   30  C   UNL     1      47.761 -31.401  -0.329  1.00  0.00     0.011 A 
ENDBRANCH   2  23
BRANCH   7  31
HETATM   31  C   UNL     1      45.129 -28.029  -4.050  1.00  0.00     0.085 C 
BRANCH  31  32
HETATM   32  C   UNL     1      44.426 -29.234  -4.677  1.00  0.00     0.034 C 
BRANCH  32  33
HETATM   33  C   UNL     1      45.166 -30.548  -4.445  1.00  0.00     0.164 C 
BRANCH  33  34
HETATM   34  O   UNL     1      44.474 -31.322  -3.472  1.00  0.00    -0.401 OA
HETATM   35  H   UNL     1      44.809 -31.067  -2.596  1.00  0.00     0.209 HD
ENDBRANCH  33  34
ENDBRANCH  32  33
ENDBRANCH  31  32
ENDBRANCH   7  31
TORSDOF 7
ENDMDL
MODEL 7
REMARK VINA RESULT:      -7.2      5.197      6.512
REMARK  7 active torsions:
REMARK  status: ('A' for Active; 'I' for Inactive)
REMARK    1  A    between atoms: C_3  and  N_4 
REMARK       I    between atoms: N_4  and  C_5 
REMARK    2  A    between atoms: C_5  and  C_6 
REMARK    3  A    between atoms: C_7  and  C_8 
REMARK    4  A    between atoms: C_20  and  C_21 
REMARK    5  A    between atoms: C_21  and  C_22 
REMARK    6  A    between atoms: C_22  and  C_23 
REMARK    7  A    between atoms: C_23  and  O_24 
ROOT
HETATM    1  C   UNL     1      41.173 -11.721   1.390  1.00  0.00     0.062 C 
HETATM    2  C   UNL     1      41.286 -11.608  -0.135  1.00  0.00     0.202 C 
HETATM    3  N   UNL     1      41.622 -10.237  -0.537  1.00  0.00    -0.083 N 
HETATM    4  C   UNL     1      41.550  -9.159   0.301  1.00  0.00     0.726 A 
HETATM    5  N   UNL     1      41.267  -9.354   1.600  1.00  0.00    -0.192 N 
HETATM    6  N   UNL     1      41.927  -9.861  -1.797  1.00  0.00    -0.140 NA
HETATM    7  C   UNL     1      41.952  -8.528  -1.659  1.00  0.00     0.166 A 
HETATM    8  N   UNL     1      41.754  -8.062  -0.380  1.00  0.00    -0.046 NA
HETATM    9  C   UNL     1      41.105 -10.611   2.171  1.00  0.00     0.037 C 
HETATM   10  C   UNL     1      40.811 -10.610   3.651  1.00  0.00     0.070 C 
HETATM   11  H   UNL     1      41.201  -8.541   2.208  1.00  0.00     0.184 HD
ENDROOT
BRANCH   1  12
HETATM   12  C   UNL     1      41.120 -13.124   1.906  1.00  0.00     0.256 C 
HETATM   13  N   UNL     1      42.344 -13.751   1.946  1.00  0.00    -0.323 N 
HETATM   14  H   UNL     1      43.069 -13.341   1.371  1.00  0.00     0.169 HD
HETATM   15  O   UNL     1      40.037 -13.653   2.113  1.00  0.00    -0.267 OA
BRANCH  13  16
HETATM   16  C   UNL     1      42.691 -14.973   2.568  1.00  0.00     0.041 A 
HETATM   17  C   UNL     1      42.938 -15.174   3.940  1.00  0.00    -0.035 A 
HETATM   18  C   UNL     1      42.922 -14.099   4.991  1.00  0.00     0.050 C 
HETATM   19  C   UNL     1      43.269 -16.472   4.386  1.00  0.00     0.009 A 
HETATM   20  C   UNL     1      43.413 -17.536   3.498  1.00  0.00     0.001 A 
HETATM   21  C   UNL     1      43.226 -17.323   2.141  1.00  0.00     0.002 A 
HETATM   22  C   UNL     1      42.871 -16.053   1.683  1.00  0.00     0.030 A 
ENDBRANCH  13  16
ENDBRANCH   1  12
BRANCH   2  23
HETATM   23  C   UNL     1      40.014 -12.034  -0.875  1.00  0.00    -0.026 A 
HETATM   24  C   UNL     1      39.932 -13.266  -1.551  1.00  0.00     0.035 A 
HETATM   25  C   UNL     1      38.762 -13.641  -2.220  1.00  0.00     0.056 A 
HETATM   26 CL   UNL     1      38.758 -15.166  -3.034  1.00  0.00    -0.083 Cl
HETATM   27  C   UNL     1      37.652 -12.790  -2.217  1.00  0.00     0.055 A 
HETATM   28 CL   UNL     1      36.177 -13.185  -3.024  1.00  0.00    -0.083 Cl
HETATM   29  C   UNL     1      37.719 -11.569  -1.543  1.00  0.00     0.026 A 
HETATM   30  C   UNL     1      38.890 -11.193  -0.876  1.00  0.00     0.011 A 
ENDBRANCH   2  23
BRANCH   7  31
HETATM   31  C   UNL     1      42.078  -7.603  -2.815  1.00  0.00     0.085 C 
BRANCH  31  32
HETATM   32  C   UNL     1      40.733  -7.293  -3.472  1.00  0.00     0.034 C 
BRANCH  32  33
HETATM   33  C   UNL     1      40.553  -7.982  -4.822  1.00  0.00     0.164 C 
BRANCH  33  34
HETATM   34  O   UNL     1      41.262  -9.216  -4.828  1.00  0.00    -0.401 OA
HETATM   35  H   UNL     1      41.845  -9.220  -5.605  1.00  0.00     0.209 HD
ENDBRANCH  33  34
ENDBRANCH  32  33
ENDBRANCH  31  32
ENDBRANCH   7  31
TORSDOF 7
ENDMDL
MODEL 8
REMARK VINA RESULT:      -7.2      3.838      7.771
REMARK  7 active torsions:
REMARK  status: ('A' for Active; 'I' for Inactive)
REMARK    1  A    between atoms: C_3  and  N_4 
REMARK       I    between atoms: N_4  and  C_5 
REMARK    2  A    between atoms: C_5  and  C_6 
REMARK    3  A    between atoms: C_7  and  C_8 
REMARK    4  A    between atoms: C_20  and  C_21 
REMARK    5  A    between atoms: C_21  and  C_22 
REMARK    6  A    between atoms: C_22  and  C_23 
REMARK    7  A    between atoms: C_23  and  O_24 
ROOT
HETATM    1  C   UNL     1      40.804 -12.199   0.689  1.00  0.00     0.062 C 
HETATM    2  C   UNL     1      41.942 -12.747   1.559  1.00  0.00     0.202 C 
HETATM    3  N   UNL     1      41.849 -14.206   1.688  1.00  0.00    -0.083 N 
HETATM    4  C   UNL     1      40.746 -14.933   1.336  1.00  0.00     0.726 A 
HETATM    5  N   UNL     1      39.718 -14.315   0.729  1.00  0.00    -0.192 N 
HETATM    6  N   UNL     1      42.785 -14.985   2.272  1.00  0.00    -0.140 NA
HETATM    7  C   UNL     1      42.144 -16.162   2.304  1.00  0.00     0.166 A 
HETATM    8  N   UNL     1      40.903 -16.175   1.711  1.00  0.00    -0.046 NA
HETATM    9  C   UNL     1      39.732 -12.972   0.372  1.00  0.00     0.037 C 
HETATM   10  C   UNL     1      38.483 -12.479  -0.318  1.00  0.00     0.070 C 
HETATM   11  H   UNL     1      38.898 -14.865   0.486  1.00  0.00     0.184 HD
ENDROOT
BRANCH   1  12
HETATM   12  C   UNL     1      40.977 -10.775   0.266  1.00  0.00     0.256 C 
HETATM   13  N   UNL     1      41.662 -10.623  -0.917  1.00  0.00    -0.323 N 
HETATM   14  H   UNL     1      42.216 -11.417  -1.211  1.00  0.00     0.169 HD
HETATM   15  O   UNL     1      40.647  -9.874   1.025  1.00  0.00    -0.267 OA
BRANCH  13  16
HETATM   16  C   UNL     1      41.811  -9.460  -1.707  1.00  0.00     0.041 A 
HETATM   17  C   UNL     1      41.113  -9.156  -2.892  1.00  0.00    -0.035 A 
HETATM   18  C   UNL     1      40.104 -10.050  -3.558  1.00  0.00     0.050 C 
HETATM   19  C   UNL     1      41.392  -7.938  -3.550  1.00  0.00     0.009 A 
HETATM   20  C   UNL     1      42.376  -7.066  -3.088  1.00  0.00     0.001 A 
HETATM   21  C   UNL     1      43.102  -7.395  -1.955  1.00  0.00     0.002 A 
HETATM   22  C   UNL     1      42.823  -8.581  -1.275  1.00  0.00     0.030 A 
ENDBRANCH  13  16
ENDBRANCH   1  12
BRANCH   2  23
HETATM   23  C   UNL     1      41.985 -12.136   2.964  1.00  0.00    -0.026 A 
HETATM   24  C   UNL     1      40.886 -12.219   3.838  1.00  0.00     0.035 A 
HETATM   25  C   UNL     1      40.943 -11.657   5.118  1.00  0.00     0.056 A 
HETATM   26 CL   UNL     1      39.539 -11.798   6.118  1.00  0.00    -0.083 Cl
HETATM   27  C   UNL     1      42.105 -11.009   5.545  1.00  0.00     0.055 A 
HETATM   28 CL   UNL     1      42.246 -10.289   7.109  1.00  0.00    -0.083 Cl
HETATM   29  C   UNL     1      43.205 -10.927   4.689  1.00  0.00     0.026 A 
HETATM   30  C   UNL     1      43.148 -11.487   3.409  1.00  0.00     0.011 A 
ENDBRANCH   2  23
BRANCH   7  31
HETATM   31  C   UNL     1      42.680 -17.349   3.017  1.00  0.00     0.085 C 
BRANCH  31  32
HETATM   32  C   UNL     1      43.085 -18.476   2.066  1.00  0.00     0.034 C 
BRANCH  32  33
HETATM   33  C   UNL     1      43.657 -19.693   2.787  1.00  0.00     0.164 C 
BRANCH  33  34
HETATM   34  O   UNL     1      43.650 -20.815   1.911  1.00  0.00    -0.401 OA
HETATM   35  H   UNL     1      44.493 -20.820   1.428  1.00  0.00     0.209 HD
ENDBRANCH  33  34
ENDBRANCH  32  33
ENDBRANCH  31  32
ENDBRANCH   7  31
TORSDOF 7
ENDMDL
MODEL 9
REMARK VINA RESULT:      -7.1      3.055      8.123
REMARK  7 active torsions:
REMARK  status: ('A' for Active; 'I' for Inactive)
REMARK    1  A    between atoms: C_3  and  N_4 
REMARK       I    between atoms: N_4  and  C_5 
REMARK    2  A    between atoms: C_5  and  C_6 
REMARK    3  A    between atoms: C_7  and  C_8 
REMARK    4  A    between atoms: C_20  and  C_21 
REMARK    5  A    between atoms: C_21  and  C_22 
REMARK    6  A    between atoms: C_22  and  C_23 
REMARK    7  A    between atoms: C_23  and  O_24 
ROOT
HETATM    1  C   UNL     1      41.193 -13.100   5.410  1.00  0.00     0.062 C 
HETATM    2  C   UNL     1      40.585 -14.006   4.333  1.00  0.00     0.202 C 
HETATM    3  N   UNL     1      41.451 -15.161   4.068  1.00  0.00    -0.083 N 
HETATM    4  C   UNL     1      42.745 -15.256   4.498  1.00  0.00     0.726 A 
HETATM    5  N   UNL     1      43.241 -14.305   5.307  1.00  0.00    -0.192 N 
HETATM    6  N   UNL     1      41.117 -16.203   3.277  1.00  0.00    -0.140 NA
HETATM    7  C   UNL     1      42.288 -16.853   3.215  1.00  0.00     0.166 A 
HETATM    8  N   UNL     1      43.302 -16.318   3.976  1.00  0.00    -0.046 NA
HETATM    9  C   UNL     1      42.488 -13.244   5.797  1.00  0.00     0.037 C 
HETATM   10  C   UNL     1      43.231 -12.297   6.707  1.00  0.00     0.070 C 
HETATM   11  H   UNL     1      44.210 -14.381   5.607  1.00  0.00     0.184 HD
ENDROOT
BRANCH   1  12
HETATM   12  C   UNL     1      40.258 -12.065   5.950  1.00  0.00     0.256 C 
HETATM   13  N   UNL     1      40.494 -10.796   5.474  1.00  0.00    -0.323 N 
HETATM   14  H   UNL     1      41.410 -10.639   5.071  1.00  0.00     0.169 HD
HETATM   15  O   UNL     1      39.476 -12.361   6.843  1.00  0.00    -0.267 OA
BRANCH  13  16
HETATM   16  C   UNL     1      39.687  -9.641   5.597  1.00  0.00     0.041 A 
HETATM   17  C   UNL     1      39.689  -8.728   6.669  1.00  0.00    -0.035 A 
HETATM   18  C   UNL     1      40.530  -8.849   7.910  1.00  0.00     0.050 C 
HETATM   19  C   UNL     1      38.811  -7.623   6.619  1.00  0.00     0.009 A 
HETATM   20  C   UNL     1      37.911  -7.450   5.571  1.00  0.00     0.001 A 
HETATM   21  C   UNL     1      37.871  -8.382   4.545  1.00  0.00     0.002 A 
HETATM   22  C   UNL     1      38.748  -9.467   4.562  1.00  0.00     0.030 A 
ENDBRANCH  13  16
ENDBRANCH   1  12
BRANCH   2  23
HETATM   23  C   UNL     1      40.316 -13.285   3.009  1.00  0.00    -0.026 A 
HETATM   24  C   UNL     1      39.055 -12.735   2.712  1.00  0.00     0.035 A 
HETATM   25  C   UNL     1      38.827 -12.077   1.498  1.00  0.00     0.056 A 
HETATM   26 CL   UNL     1      37.243 -11.444   1.215  1.00  0.00    -0.083 Cl
HETATM   27  C   UNL     1      39.861 -11.953   0.565  1.00  0.00     0.055 A 
HETATM   28 CL   UNL     1      39.652 -11.159  -0.954  1.00  0.00    -0.083 Cl
HETATM   29  C   UNL     1      41.119 -12.489   0.852  1.00  0.00     0.026 A 
HETATM   30  C   UNL     1      41.346 -13.148   2.064  1.00  0.00     0.011 A 
ENDBRANCH   2  23
BRANCH   7  31
HETATM   31  C   UNL     1      42.518 -18.009   2.312  1.00  0.00     0.085 C 
BRANCH  31  32
HETATM   32  C   UNL     1      43.801 -18.773   2.647  1.00  0.00     0.034 C 
BRANCH  32  33
HETATM   33  C   UNL     1      43.591 -20.281   2.745  1.00  0.00     0.164 C 
BRANCH  33  34
HETATM   34  O   UNL     1      43.582 -20.849   1.441  1.00  0.00    -0.401 OA
HETATM   35  H   UNL     1      44.490 -20.818   1.096  1.00  0.00     0.209 HD
ENDBRANCH  33  34
ENDBRANCH  32  33
ENDBRANCH  31  32
ENDBRANCH   7  31
TORSDOF 7
ENDMDL
MODEL 10
REMARK VINA RESULT:      -7.1      4.056      7.779
REMARK  7 active torsions:
REMARK  status: ('A' for Active; 'I' for Inactive)
REMARK    1  A    between atoms: C_3  and  N_4 
REMARK       I    between atoms: N_4  and  C_5 
REMARK    2  A    between atoms: C_5  and  C_6 
REMARK    3  A    between atoms: C_7  and  C_8 
REMARK    4  A    between atoms: C_20  and  C_21 
REMARK    5  A    between atoms: C_21  and  C_22 
REMARK    6  A    between atoms: C_22  and  C_23 
REMARK    7  A    between atoms: C_23  and  O_24 
ROOT
HETATM    1  C   UNL     1      42.779 -11.209   6.614  1.00  0.00     0.062 C 
HETATM    2  C   UNL     1      41.415 -11.817   6.263  1.00  0.00     0.202 C 
HETATM    3  N   UNL     1      41.573 -13.114   5.596  1.00  0.00    -0.083 N 
HETATM    4  C   UNL     1      42.759 -13.572   5.093  1.00  0.00     0.726 A 
HETATM    5  N   UNL     1      43.882 -12.864   5.309  1.00  0.00    -0.192 N 
HETATM    6  N   UNL     1      40.557 -13.950   5.297  1.00  0.00    -0.140 NA
HETATM    7  C   UNL     1      41.195 -14.859   4.546  1.00  0.00     0.166 A 
HETATM    8  N   UNL     1      42.553 -14.675   4.424  1.00  0.00    -0.046 NA
HETATM    9  C   UNL     1      43.925 -11.710   6.081  1.00  0.00     0.037 C 
HETATM   10  C   UNL     1      45.290 -11.079   6.214  1.00  0.00     0.070 C 
HETATM   11  H   UNL     1      44.754 -13.209   4.916  1.00  0.00     0.184 HD
ENDROOT
BRANCH   1  12
HETATM   12  C   UNL     1      42.717 -10.039   7.543  1.00  0.00     0.256 C 
HETATM   13  N   UNL     1      42.563 -10.384   8.866  1.00  0.00    -0.323 N 
HETATM   14  H   UNL     1      42.218 -11.320   9.041  1.00  0.00     0.169 HD
HETATM   15  O   UNL     1      42.663  -8.905   7.087  1.00  0.00    -0.267 OA
BRANCH  13  16
HETATM   16  C   UNL     1      42.685  -9.565  10.012  1.00  0.00     0.041 A 
HETATM   17  C   UNL     1      43.873  -9.263  10.705  1.00  0.00    -0.035 A 
HETATM   18  C   UNL     1      45.235  -9.805  10.367  1.00  0.00     0.050 C 
HETATM   19  C   UNL     1      43.804  -8.418  11.834  1.00  0.00     0.009 A 
HETATM   20  C   UNL     1      42.590  -7.929  12.308  1.00  0.00     0.001 A 
HETATM   21  C   UNL     1      41.414  -8.274  11.659  1.00  0.00     0.002 A 
HETATM   22  C   UNL     1      41.463  -9.086  10.525  1.00  0.00     0.030 A 
ENDBRANCH  13  16
ENDBRANCH   1  12
BRANCH   2  23
HETATM   23  C   UNL     1      40.555 -10.913   5.374  1.00  0.00    -0.026 A 
HETATM   24  C   UNL     1      40.988 -10.506   4.099  1.00  0.00     0.035 A 
HETATM   25  C   UNL     1      40.189  -9.682   3.298  1.00  0.00     0.056 A 
HETATM   26 CL   UNL     1      40.809  -9.222   1.752  1.00  0.00    -0.083 Cl
HETATM   27  C   UNL     1      38.940  -9.258   3.761  1.00  0.00     0.055 A 
HETATM   28 CL   UNL     1      37.902  -8.238   2.830  1.00  0.00    -0.083 Cl
HETATM   29  C   UNL     1      38.495  -9.662   5.022  1.00  0.00     0.026 A 
HETATM   30  C   UNL     1      39.295 -10.484   5.822  1.00  0.00     0.011 A 
ENDBRANCH   2  23
BRANCH   7  31
HETATM   31  C   UNL     1      40.484 -15.933   3.806  1.00  0.00     0.085 C 
BRANCH  31  32
HETATM   32  C   UNL     1      40.284 -15.597   2.327  1.00  0.00     0.034 C 
BRANCH  32  33
HETATM   33  C   UNL     1      39.916 -14.135   2.090  1.00  0.00     0.164 C 
BRANCH  33  34
HETATM   34  O   UNL     1      38.658 -13.854   2.694  1.00  0.00    -0.401 OA
HETATM   35  H   UNL     1      38.586 -14.396   3.497  1.00  0.00     0.209 HD
ENDBRANCH  33  34
ENDBRANCH  32  33
ENDBRANCH  31  32
ENDBRANCH   7  31
TORSDOF 7
ENDMDL
