MODEL 1
REMARK VINA RESULT:      -8.3      0.000      0.000
REMARK  6 active torsions:
REMARK  status: ('A' for Active; 'I' for Inactive)
REMARK    1  A    between atoms: C_3  and  N_4 
REMARK       I    between atoms: N_4  and  C_5 
REMARK       I    between atoms: C_5  and  N_6 
REMARK    2  A    between atoms: N_6  and  C_7 
REMARK    3  A    between atoms: C_7  and  C_8 
REMARK    4  A    between atoms: C_16  and  N_17 
REMARK       I    between atoms: N_17  and  C_18 
REMARK    5  A    between atoms: C_18  and  C_19 
REMARK    6  A    between atoms: C_19  and  C_20 
ROOT
HETATM    1  C   UNL     1      46.445 -10.728   7.202  1.00  0.00     0.004 A 
HETATM    2  C   UNL     1      45.677 -11.563   6.391  1.00  0.00     0.029 A 
HETATM    3  C   UNL     1      44.340 -11.810   6.702  1.00  0.00     0.038 A 
HETATM    4  C   UNL     1      43.781 -11.200   7.837  1.00  0.00     0.059 A 
HETATM    5  C   UNL     1      44.541 -10.358   8.655  1.00  0.00     0.036 A 
HETATM    6  C   UNL     1      45.881 -10.128   8.327  1.00  0.00     0.029 A 
ENDROOT
BRANCH   3   7
HETATM    7  N   UNL     1      43.492 -12.632   5.930  1.00  0.00    -0.309 N 
HETATM    8  C   UNL     1      43.111 -13.928   6.197  1.00  0.00     0.320 C 
HETATM    9  N   UNL     1      42.346 -14.442   5.170  1.00  0.00    -0.339 N 
HETATM   10  O   UNL     1      43.380 -14.577   7.198  1.00  0.00    -0.247 OA
HETATM   11  H   UNL     1      42.430 -14.019   4.259  1.00  0.00     0.164 HD
HETATM   12  H   UNL     1      43.020 -12.185   5.158  1.00  0.00     0.170 HD
BRANCH   9  13
HETATM   13  C   UNL     1      41.838 -15.796   5.221  1.00  0.00     0.163 C 
BRANCH  13  14
HETATM   14  C   UNL     1      42.686 -16.794   4.471  1.00  0.00    -0.038 A 
HETATM   15  C   UNL     1      43.657 -17.583   5.097  1.00  0.00     0.028 A 
HETATM   16  C   UNL     1      44.361 -18.507   4.338  1.00  0.00     0.116 A 
HETATM   17  N   UNL     1      44.158 -18.709   3.019  1.00  0.00    -0.273 NA
HETATM   18  C   UNL     1      43.198 -17.963   2.437  1.00  0.00     0.116 A 
HETATM   19  C   UNL     1      42.447 -17.010   3.109  1.00  0.00     0.028 A 
ENDBRANCH  13  14
ENDBRANCH   9  13
ENDBRANCH   3   7
BRANCH   5  20
HETATM   20  N   UNL     1      44.041  -9.712   9.806  1.00  0.00    -0.327 N 
HETATM   21  C   UNL     1      43.822 -10.264  11.056  1.00  0.00     0.227 C 
HETATM   22  O   UNL     1      44.014 -11.438  11.378  1.00  0.00    -0.273 OA
HETATM   23  H   UNL     1      43.777  -8.742   9.685  1.00  0.00     0.169 HD
BRANCH  21  24
HETATM   24  C   UNL     1      43.252  -9.270  12.066  1.00  0.00     0.159 C 
BRANCH  24  25
HETATM   25  C   UNL     1      41.812  -9.569  12.344  1.00  0.00     0.017 A 
HETATM   26  N   UNL     1      40.980 -10.094  11.379  1.00  0.00    -0.369 N 
HETATM   27  H   UNL     1      41.255 -10.291  10.421  1.00  0.00     0.165 HD
HETATM   28  C   UNL     1      39.725 -10.270  11.901  1.00  0.00     0.088 A 
HETATM   29  C   UNL     1      39.754  -9.875  13.219  1.00  0.00     0.019 A 
HETATM   30  C   UNL     1      41.071  -9.436  13.501  1.00  0.00     0.027 A 
ENDBRANCH  24  25
ENDBRANCH  21  24
ENDBRANCH   5  20
TORSDOF 6
ENDMDL
MODEL 2
REMARK VINA RESULT:      -8.1      5.514      9.215
REMARK  6 active torsions:
REMARK  status: ('A' for Active; 'I' for Inactive)
REMARK    1  A    between atoms: C_3  and  N_4 
REMARK       I    between atoms: N_4  and  C_5 
REMARK       I    between atoms: C_5  and  N_6 
REMARK    2  A    between atoms: N_6  and  C_7 
REMARK    3  A    between atoms: C_7  and  C_8 
REMARK    4  A    between atoms: C_16  and  N_17 
REMARK       I    between atoms: N_17  and  C_18 
REMARK    5  A    between atoms: C_18  and  C_19 
REMARK    6  A    between atoms: C_19  and  C_20 
ROOT
HETATM    1  C   UNL     1      39.626 -11.359   4.931  1.00  0.00     0.004 A 
HETATM    2  C   UNL     1      40.309 -12.499   5.351  1.00  0.00     0.029 A 
HETATM    3  C   UNL     1      40.383 -13.620   4.525  1.00  0.00     0.038 A 
HETATM    4  C   UNL     1      39.766 -13.578   3.264  1.00  0.00     0.059 A 
HETATM    5  C   UNL     1      39.081 -12.439   2.830  1.00  0.00     0.036 A 
HETATM    6  C   UNL     1      39.015 -11.328   3.677  1.00  0.00     0.029 A 
ENDROOT
BRANCH   3   7
HETATM    7  N   UNL     1      41.063 -14.808   4.869  1.00  0.00    -0.309 N 
HETATM    8  C   UNL     1      42.336 -15.182   4.501  1.00  0.00     0.320 C 
HETATM    9  N   UNL     1      42.629 -16.452   4.952  1.00  0.00    -0.339 N 
HETATM   10  O   UNL     1      43.139 -14.512   3.867  1.00  0.00    -0.247 OA
HETATM   11  H   UNL     1      41.861 -17.070   5.162  1.00  0.00     0.164 HD
HETATM   12  H   UNL     1      40.613 -15.396   5.555  1.00  0.00     0.170 HD
BRANCH   9  13
HETATM   13  C   UNL     1      43.910 -17.066   4.675  1.00  0.00     0.163 C 
BRANCH  13  14
HETATM   14  C   UNL     1      43.807 -18.434   4.044  1.00  0.00    -0.038 A 
HETATM   15  C   UNL     1      43.487 -18.622   2.695  1.00  0.00     0.028 A 
HETATM   16  C   UNL     1      43.457 -19.912   2.187  1.00  0.00     0.116 A 
HETATM   17  N   UNL     1      43.734 -21.014   2.915  1.00  0.00    -0.273 NA
HETATM   18  C   UNL     1      44.071 -20.815   4.205  1.00  0.00     0.116 A 
HETATM   19  C   UNL     1      44.122 -19.566   4.805  1.00  0.00     0.028 A 
ENDBRANCH  13  14
ENDBRANCH   9  13
ENDBRANCH   3   7
BRANCH   5  20
HETATM   20  N   UNL     1      38.443 -12.329   1.576  1.00  0.00    -0.327 N 
HETATM   21  C   UNL     1      39.037 -12.136   0.341  1.00  0.00     0.227 C 
HETATM   22  O   UNL     1      40.243 -12.009   0.124  1.00  0.00    -0.273 OA
HETATM   23  H   UNL     1      37.431 -12.355   1.595  1.00  0.00     0.169 HD
BRANCH  21  24
HETATM   24  C   UNL     1      38.032 -12.043  -0.806  1.00  0.00     0.159 C 
BRANCH  24  25
HETATM   25  C   UNL     1      38.199 -13.194  -1.747  1.00  0.00     0.017 A 
HETATM   26  N   UNL     1      38.857 -14.347  -1.376  1.00  0.00    -0.369 N 
HETATM   27  H   UNL     1      39.294 -14.499  -0.471  1.00  0.00     0.165 HD
HETATM   28  C   UNL     1      38.861 -15.231  -2.422  1.00  0.00     0.088 A 
HETATM   29  C   UNL     1      38.182 -14.653  -3.470  1.00  0.00     0.019 A 
HETATM   30  C   UNL     1      37.760 -13.370  -3.045  1.00  0.00     0.027 A 
ENDBRANCH  24  25
ENDBRANCH  21  24
ENDBRANCH   5  20
TORSDOF 6
ENDMDL
MODEL 3
REMARK VINA RESULT:      -7.9      1.944      9.867
REMARK  6 active torsions:
REMARK  status: ('A' for Active; 'I' for Inactive)
REMARK    1  A    between atoms: C_3  and  N_4 
REMARK       I    between atoms: N_4  and  C_5 
REMARK       I    between atoms: C_5  and  N_6 
REMARK    2  A    between atoms: N_6  and  C_7 
REMARK    3  A    between atoms: C_7  and  C_8 
REMARK    4  A    between atoms: C_16  and  N_17 
REMARK       I    between atoms: N_17  and  C_18 
REMARK    5  A    between atoms: C_18  and  C_19 
REMARK    6  A    between atoms: C_19  and  C_20 
ROOT
HETATM    1  C   UNL     1      46.136 -10.903   7.190  1.00  0.00     0.004 A 
HETATM    2  C   UNL     1      45.412 -10.456   8.295  1.00  0.00     0.029 A 
HETATM    3  C   UNL     1      44.018 -10.470   8.275  1.00  0.00     0.038 A 
HETATM    4  C   UNL     1      43.358 -10.948   7.131  1.00  0.00     0.059 A 
HETATM    5  C   UNL     1      44.074 -11.403   6.018  1.00  0.00     0.036 A 
HETATM    6  C   UNL     1      45.472 -11.374   6.058  1.00  0.00     0.029 A 
ENDROOT
BRANCH   3   7
HETATM    7  N   UNL     1      43.211 -10.047   9.352  1.00  0.00    -0.309 N 
HETATM    8  C   UNL     1      43.308 -10.428  10.672  1.00  0.00     0.320 C 
HETATM    9  N   UNL     1      42.291  -9.876  11.423  1.00  0.00    -0.339 N 
HETATM   10  O   UNL     1      44.165 -11.149  11.163  1.00  0.00    -0.247 OA
HETATM   11  H   UNL     1      41.454  -9.583  10.946  1.00  0.00     0.164 HD
HETATM   12  H   UNL     1      42.567  -9.294   9.158  1.00  0.00     0.170 HD
BRANCH   9  13
HETATM   13  C   UNL     1      42.178 -10.145  12.841  1.00  0.00     0.163 C 
BRANCH  13  14
HETATM   14  C   UNL     1      42.233  -8.907  13.703  1.00  0.00    -0.038 A 
HETATM   15  C   UNL     1      43.122  -7.856  13.461  1.00  0.00     0.028 A 
HETATM   16  C   UNL     1      43.074  -6.734  14.277  1.00  0.00     0.116 A 
HETATM   17  N   UNL     1      42.202  -6.583  15.296  1.00  0.00    -0.273 NA
HETATM   18  C   UNL     1      41.331  -7.592  15.498  1.00  0.00     0.116 A 
HETATM   19  C   UNL     1      41.306  -8.753  14.741  1.00  0.00     0.028 A 
ENDBRANCH  13  14
ENDBRANCH   9  13
ENDBRANCH   3   7
BRANCH   5  20
HETATM   20  N   UNL     1      43.475 -11.897   4.840  1.00  0.00    -0.327 N 
HETATM   21  C   UNL     1      43.013 -13.181   4.603  1.00  0.00     0.227 C 
HETATM   22  O   UNL     1      43.061 -14.129   5.388  1.00  0.00    -0.273 OA
HETATM   23  H   UNL     1      43.416 -11.243   4.070  1.00  0.00     0.169 HD
BRANCH  21  24
HETATM   24  C   UNL     1      42.439 -13.368   3.200  1.00  0.00     0.159 C 
BRANCH  24  25
HETATM   25  C   UNL     1      42.538 -14.799   2.777  1.00  0.00     0.017 A 
HETATM   26  N   UNL     1      41.688 -15.764   3.270  1.00  0.00    -0.369 N 
HETATM   27  H   UNL     1      40.961 -15.598   3.961  1.00  0.00     0.165 HD
HETATM   28  C   UNL     1      41.998 -16.978   2.716  1.00  0.00     0.088 A 
HETATM   29  C   UNL     1      43.044 -16.790   1.841  1.00  0.00     0.019 A 
HETATM   30  C   UNL     1      43.384 -15.416   1.876  1.00  0.00     0.027 A 
ENDBRANCH  24  25
ENDBRANCH  21  24
ENDBRANCH   5  20
TORSDOF 6
ENDMDL
MODEL 4
REMARK VINA RESULT:      -7.6      2.313      3.749
REMARK  6 active torsions:
REMARK  status: ('A' for Active; 'I' for Inactive)
REMARK    1  A    between atoms: C_3  and  N_4 
REMARK       I    between atoms: N_4  and  C_5 
REMARK       I    between atoms: C_5  and  N_6 
REMARK    2  A    between atoms: N_6  and  C_7 
REMARK    3  A    between atoms: C_7  and  C_8 
REMARK    4  A    between atoms: C_16  and  N_17 
REMARK       I    between atoms: N_17  and  C_18 
REMARK    5  A    between atoms: C_18  and  C_19 
REMARK    6  A    between atoms: C_19  and  C_20 
ROOT
HETATM    1  C   UNL     1      41.433 -10.766   3.788  1.00  0.00     0.004 A 
HETATM    2  C   UNL     1      41.771 -11.916   3.074  1.00  0.00     0.029 A 
HETATM    3  C   UNL     1      42.889 -12.666   3.438  1.00  0.00     0.038 A 
HETATM    4  C   UNL     1      43.660 -12.251   4.536  1.00  0.00     0.059 A 
HETATM    5  C   UNL     1      43.329 -11.102   5.261  1.00  0.00     0.036 A 
HETATM    6  C   UNL     1      42.207 -10.361   4.875  1.00  0.00     0.029 A 
ENDROOT
BRANCH   3   7
HETATM    7  N   UNL     1      43.293 -13.846   2.777  1.00  0.00    -0.309 N 
HETATM    8  C   UNL     1      42.559 -14.996   2.593  1.00  0.00     0.320 C 
HETATM    9  N   UNL     1      43.315 -15.974   1.980  1.00  0.00    -0.339 N 
HETATM   10  O   UNL     1      41.391 -15.175   2.905  1.00  0.00    -0.247 OA
HETATM   11  H   UNL     1      44.319 -15.909   2.047  1.00  0.00     0.164 HD
HETATM   12  H   UNL     1      44.173 -13.802   2.285  1.00  0.00     0.170 HD
BRANCH   9  13
HETATM   13  C   UNL     1      42.760 -17.279   1.692  1.00  0.00     0.163 C 
BRANCH  13  14
HETATM   14  C   UNL     1      43.233 -18.363   2.630  1.00  0.00    -0.038 A 
HETATM   15  C   UNL     1      43.330 -19.705   2.246  1.00  0.00     0.028 A 
HETATM   16  C   UNL     1      43.817 -20.629   3.160  1.00  0.00     0.116 A 
HETATM   17  N   UNL     1      44.222 -20.313   4.407  1.00  0.00    -0.273 NA
HETATM   18  C   UNL     1      44.150 -19.011   4.752  1.00  0.00     0.116 A 
HETATM   19  C   UNL     1      43.673 -18.016   3.912  1.00  0.00     0.028 A 
ENDBRANCH  13  14
ENDBRANCH   9  13
ENDBRANCH   3   7
BRANCH   5  20
HETATM   20  N   UNL     1      44.058 -10.631   6.374  1.00  0.00    -0.327 N 
HETATM   21  C   UNL     1      44.313 -11.299   7.560  1.00  0.00     0.227 C 
HETATM   22  O   UNL     1      43.926 -12.430   7.857  1.00  0.00    -0.273 OA
HETATM   23  H   UNL     1      44.396  -9.680   6.306  1.00  0.00     0.169 HD
BRANCH  21  24
HETATM   24  C   UNL     1      45.122 -10.472   8.558  1.00  0.00     0.159 C 
BRANCH  24  25
HETATM   25  C   UNL     1      44.263 -10.043   9.705  1.00  0.00     0.017 A 
HETATM   26  N   UNL     1      42.898 -10.230   9.701  1.00  0.00    -0.369 N 
HETATM   27  H   UNL     1      42.371 -10.638   8.934  1.00  0.00     0.165 HD
HETATM   28  C   UNL     1      42.365  -9.751  10.868  1.00  0.00     0.088 A 
HETATM   29  C   UNL     1      43.397  -9.269  11.641  1.00  0.00     0.019 A 
HETATM   30  C   UNL     1      44.596  -9.456  10.910  1.00  0.00     0.027 A 
ENDBRANCH  24  25
ENDBRANCH  21  24
ENDBRANCH   5  20
TORSDOF 6
ENDMDL
MODEL 5
REMARK VINA RESULT:      -7.6      2.376      9.929
REMARK  6 active torsions:
REMARK  status: ('A' for Active; 'I' for Inactive)
REMARK    1  A    between atoms: C_3  and  N_4 
REMARK       I    between atoms: N_4  and  C_5 
REMARK       I    between atoms: C_5  and  N_6 
REMARK    2  A    between atoms: N_6  and  C_7 
REMARK    3  A    between atoms: C_7  and  C_8 
REMARK    4  A    between atoms: C_16  and  N_17 
REMARK       I    between atoms: N_17  and  C_18 
REMARK    5  A    between atoms: C_18  and  C_19 
REMARK    6  A    between atoms: C_19  and  C_20 
ROOT
HETATM    1  C   UNL     1      40.845 -12.166   3.918  1.00  0.00     0.004 A 
HETATM    2  C   UNL     1      41.274 -11.798   5.193  1.00  0.00     0.029 A 
HETATM    3  C   UNL     1      42.296 -12.507   5.824  1.00  0.00     0.038 A 
HETATM    4  C   UNL     1      42.889 -13.588   5.153  1.00  0.00     0.059 A 
HETATM    5  C   UNL     1      42.470 -13.965   3.873  1.00  0.00     0.036 A 
HETATM    6  C   UNL     1      41.440 -13.243   3.261  1.00  0.00     0.029 A 
ENDROOT
BRANCH   3   7
HETATM    7  N   UNL     1      42.795 -12.193   7.106  1.00  0.00    -0.309 N 
HETATM    8  C   UNL     1      43.582 -11.120   7.459  1.00  0.00     0.320 C 
HETATM    9  N   UNL     1      43.951 -11.191   8.787  1.00  0.00    -0.339 N 
HETATM   10  O   UNL     1      43.929 -10.199   6.734  1.00  0.00    -0.247 OA
HETATM   11  H   UNL     1      43.932 -12.093   9.237  1.00  0.00     0.164 HD
HETATM   12  H   UNL     1      42.443 -12.751   7.870  1.00  0.00     0.170 HD
BRANCH   9  13
HETATM   13  C   UNL     1      44.791 -10.176   9.385  1.00  0.00     0.163 C 
BRANCH  13  14
HETATM   14  C   UNL     1      44.027  -9.133  10.163  1.00  0.00    -0.038 A 
HETATM   15  C   UNL     1      43.794  -9.235  11.538  1.00  0.00     0.028 A 
HETATM   16  C   UNL     1      43.120  -8.207  12.182  1.00  0.00     0.116 A 
HETATM   17  N   UNL     1      42.681  -7.091  11.563  1.00  0.00    -0.273 NA
HETATM   18  C   UNL     1      42.940  -6.993  10.244  1.00  0.00     0.116 A 
HETATM   19  C   UNL     1      43.600  -7.969   9.513  1.00  0.00     0.028 A 
ENDBRANCH  13  14
ENDBRANCH   9  13
ENDBRANCH   3   7
BRANCH   5  20
HETATM   20  N   UNL     1      43.024 -15.038   3.142  1.00  0.00    -0.327 N 
HETATM   21  C   UNL     1      42.597 -16.354   3.121  1.00  0.00     0.227 C 
HETATM   22  O   UNL     1      41.654 -16.824   3.760  1.00  0.00    -0.273 OA
HETATM   23  H   UNL     1      43.854 -14.820   2.605  1.00  0.00     0.169 HD
BRANCH  21  24
HETATM   24  C   UNL     1      43.450 -17.254   2.229  1.00  0.00     0.159 C 
BRANCH  24  25
HETATM   25  C   UNL     1      43.646 -18.594   2.864  1.00  0.00     0.017 A 
HETATM   26  N   UNL     1      43.985 -18.726   4.193  1.00  0.00    -0.369 N 
HETATM   27  H   UNL     1      44.152 -17.950   4.828  1.00  0.00     0.165 HD
HETATM   28  C   UNL     1      44.097 -20.053   4.510  1.00  0.00     0.088 A 
HETATM   29  C   UNL     1      43.806 -20.786   3.380  1.00  0.00     0.019 A 
HETATM   30  C   UNL     1      43.518 -19.866   2.343  1.00  0.00     0.027 A 
ENDBRANCH  24  25
ENDBRANCH  21  24
ENDBRANCH   5  20
TORSDOF 6
ENDMDL
MODEL 6
REMARK VINA RESULT:      -7.5      1.494      1.976
REMARK  6 active torsions:
REMARK  status: ('A' for Active; 'I' for Inactive)
REMARK    1  A    between atoms: C_3  and  N_4 
REMARK       I    between atoms: N_4  and  C_5 
REMARK       I    between atoms: C_5  and  N_6 
REMARK    2  A    between atoms: N_6  and  C_7 
REMARK    3  A    between atoms: C_7  and  C_8 
REMARK    4  A    between atoms: C_16  and  N_17 
REMARK       I    between atoms: N_17  and  C_18 
REMARK    5  A    between atoms: C_18  and  C_19 
REMARK    6  A    between atoms: C_19  and  C_20 
ROOT
HETATM    1  C   UNL     1      46.228 -10.542   7.538  1.00  0.00     0.004 A 
HETATM    2  C   UNL     1      45.705 -11.292   6.486  1.00  0.00     0.029 A 
HETATM    3  C   UNL     1      44.445 -11.879   6.597  1.00  0.00     0.038 A 
HETATM    4  C   UNL     1      43.710 -11.694   7.779  1.00  0.00     0.059 A 
HETATM    5  C   UNL     1      44.222 -10.940   8.840  1.00  0.00     0.036 A 
HETATM    6  C   UNL     1      45.490 -10.366   8.709  1.00  0.00     0.029 A 
ENDROOT
BRANCH   3   7
HETATM    7  N   UNL     1      43.840 -12.643   5.577  1.00  0.00    -0.309 N 
HETATM    8  C   UNL     1      43.058 -13.767   5.723  1.00  0.00     0.320 C 
HETATM    9  N   UNL     1      42.717 -14.297   4.496  1.00  0.00    -0.339 N 
HETATM   10  O   UNL     1      42.683 -14.263   6.776  1.00  0.00    -0.247 OA
HETATM   11  H   UNL     1      43.298 -14.072   3.704  1.00  0.00     0.164 HD
HETATM   12  H   UNL     1      43.888 -12.259   4.644  1.00  0.00     0.170 HD
BRANCH   9  13
HETATM   13  C   UNL     1      41.906 -15.492   4.396  1.00  0.00     0.163 C 
BRANCH  13  14
HETATM   14  C   UNL     1      42.702 -16.751   4.153  1.00  0.00    -0.038 A 
HETATM   15  C   UNL     1      42.981 -17.233   2.870  1.00  0.00     0.028 A 
HETATM   16  C   UNL     1      43.758 -18.375   2.737  1.00  0.00     0.116 A 
HETATM   17  N   UNL     1      44.282 -19.054   3.780  1.00  0.00    -0.273 NA
HETATM   18  C   UNL     1      44.030 -18.560   5.008  1.00  0.00     0.116 A 
HETATM   19  C   UNL     1      43.260 -17.430   5.242  1.00  0.00     0.028 A 
ENDBRANCH  13  14
ENDBRANCH   9  13
ENDBRANCH   3   7
BRANCH   5  20
HETATM   20  N   UNL     1      43.536 -10.713  10.052  1.00  0.00    -0.327 N 
HETATM   21  C   UNL     1      42.720  -9.641  10.373  1.00  0.00     0.227 C 
HETATM   22  O   UNL     1      42.463  -8.679   9.648  1.00  0.00    -0.273 OA
HETATM   23  H   UNL     1      43.696 -11.396  10.782  1.00  0.00     0.169 HD
BRANCH  21  24
HETATM   24  C   UNL     1      42.156  -9.712  11.791  1.00  0.00     0.159 C 
BRANCH  24  25
HETATM   25  C   UNL     1      42.238  -8.375  12.458  1.00  0.00     0.017 A 
HETATM   26  N   UNL     1      41.340  -7.368  12.180  1.00  0.00    -0.369 N 
HETATM   27  H   UNL     1      40.586  -7.435  11.501  1.00  0.00     0.165 HD
HETATM   28  C   UNL     1      41.643  -6.262  12.928  1.00  0.00     0.088 A 
HETATM   29  C   UNL     1      42.734  -6.564  13.711  1.00  0.00     0.019 A 
HETATM   30  C   UNL     1      43.108  -7.898  13.419  1.00  0.00     0.027 A 
ENDBRANCH  24  25
ENDBRANCH  21  24
ENDBRANCH   5  20
TORSDOF 6
ENDMDL
MODEL 7
REMARK VINA RESULT:      -7.5      2.889      4.215
REMARK  6 active torsions:
REMARK  status: ('A' for Active; 'I' for Inactive)
REMARK    1  A    between atoms: C_3  and  N_4 
REMARK       I    between atoms: N_4  and  C_5 
REMARK       I    between atoms: C_5  and  N_6 
REMARK    2  A    between atoms: N_6  and  C_7 
REMARK    3  A    between atoms: C_7  and  C_8 
REMARK    4  A    between atoms: C_16  and  N_17 
REMARK       I    between atoms: N_17  and  C_18 
REMARK    5  A    between atoms: C_18  and  C_19 
REMARK    6  A    between atoms: C_19  and  C_20 
ROOT
HETATM    1  C   UNL     1      39.173 -11.423   4.119  1.00  0.00     0.004 A 
HETATM    2  C   UNL     1      39.718 -12.681   3.862  1.00  0.00     0.029 A 
HETATM    3  C   UNL     1      40.593 -13.269   4.775  1.00  0.00     0.038 A 
HETATM    4  C   UNL     1      40.908 -12.580   5.957  1.00  0.00     0.059 A 
HETATM    5  C   UNL     1      40.365 -11.320   6.228  1.00  0.00     0.036 A 
HETATM    6  C   UNL     1      39.494 -10.746   5.296  1.00  0.00     0.029 A 
ENDROOT
BRANCH   3   7
HETATM    7  N   UNL     1      41.178 -14.540   4.596  1.00  0.00    -0.309 N 
HETATM    8  C   UNL     1      42.249 -14.864   3.793  1.00  0.00     0.320 C 
HETATM    9  N   UNL     1      42.482 -16.224   3.803  1.00  0.00    -0.339 N 
HETATM   10  O   UNL     1      42.937 -14.089   3.145  1.00  0.00    -0.247 OA
HETATM   11  H   UNL     1      41.723 -16.834   4.062  1.00  0.00     0.164 HD
HETATM   12  H   UNL     1      40.852 -15.272   5.210  1.00  0.00     0.170 HD
BRANCH   9  13
HETATM   13  C   UNL     1      43.554 -16.805   3.022  1.00  0.00     0.163 C 
BRANCH  13  14
HETATM   14  C   UNL     1      43.694 -18.298   3.194  1.00  0.00    -0.038 A 
HETATM   15  C   UNL     1      44.083 -18.886   4.402  1.00  0.00     0.028 A 
HETATM   16  C   UNL     1      44.144 -20.270   4.485  1.00  0.00     0.116 A 
HETATM   17  N   UNL     1      43.834 -21.099   3.465  1.00  0.00    -0.273 NA
HETATM   18  C   UNL     1      43.432 -20.518   2.317  1.00  0.00     0.116 A 
HETATM   19  C   UNL     1      43.346 -19.146   2.136  1.00  0.00     0.028 A 
ENDBRANCH  13  14
ENDBRANCH   9  13
ENDBRANCH   3   7
BRANCH   5  20
HETATM   20  N   UNL     1      40.637 -10.575   7.395  1.00  0.00    -0.327 N 
HETATM   21  C   UNL     1      41.527  -9.524   7.538  1.00  0.00     0.227 C 
HETATM   22  O   UNL     1      42.255  -9.062   6.659  1.00  0.00    -0.273 OA
HETATM   23  H   UNL     1      40.152 -10.877   8.231  1.00  0.00     0.169 HD
BRANCH  21  24
HETATM   24  C   UNL     1      41.579  -8.964   8.958  1.00  0.00     0.159 C 
BRANCH  24  25
HETATM   25  C   UNL     1      42.796  -9.456   9.675  1.00  0.00     0.017 A 
HETATM   26  N   UNL     1      42.730 -10.469  10.607  1.00  0.00    -0.369 N 
HETATM   27  H   UNL     1      41.875 -10.935  10.897  1.00  0.00     0.165 HD
HETATM   28  C   UNL     1      43.982 -10.721  11.101  1.00  0.00     0.088 A 
HETATM   29  C   UNL     1      44.867  -9.877  10.468  1.00  0.00     0.019 A 
HETATM   30  C   UNL     1      44.121  -9.082   9.565  1.00  0.00     0.027 A 
ENDBRANCH  24  25
ENDBRANCH  21  24
ENDBRANCH   5  20
TORSDOF 6
ENDMDL
MODEL 8
REMARK VINA RESULT:      -7.4      5.614      9.190
REMARK  6 active torsions:
REMARK  status: ('A' for Active; 'I' for Inactive)
REMARK    1  A    between atoms: C_3  and  N_4 
REMARK       I    between atoms: N_4  and  C_5 
REMARK       I    between atoms: C_5  and  N_6 
REMARK    2  A    between atoms: N_6  and  C_7 
REMARK    3  A    between atoms: C_7  and  C_8 
REMARK    4  A    between atoms: C_16  and  N_17 
REMARK       I    between atoms: N_17  and  C_18 
REMARK    5  A    between atoms: C_18  and  C_19 
REMARK    6  A    between atoms: C_19  and  C_20 
ROOT
HETATM    1  C   UNL     1      40.070 -12.573   4.871  1.00  0.00     0.004 A 
HETATM    2  C   UNL     1      39.657 -12.754   3.552  1.00  0.00     0.029 A 
HETATM    3  C   UNL     1      39.836 -13.985   2.921  1.00  0.00     0.038 A 
HETATM    4  C   UNL     1      40.428 -15.037   3.638  1.00  0.00     0.059 A 
HETATM    5  C   UNL     1      40.842 -14.869   4.963  1.00  0.00     0.036 A 
HETATM    6  C   UNL     1      40.659 -13.624   5.574  1.00  0.00     0.029 A 
ENDROOT
BRANCH   3   7
HETATM    7  N   UNL     1      39.438 -14.255   1.595  1.00  0.00    -0.309 N 
HETATM    8  C   UNL     1      40.144 -14.000   0.440  1.00  0.00     0.320 C 
HETATM    9  N   UNL     1      39.398 -14.316  -0.677  1.00  0.00    -0.339 N 
HETATM   10  O   UNL     1      41.282 -13.562   0.362  1.00  0.00    -0.247 OA
HETATM   11  H   UNL     1      38.394 -14.348  -0.584  1.00  0.00     0.164 HD
HETATM   12  H   UNL     1      38.595 -14.798   1.484  1.00  0.00     0.170 HD
BRANCH   9  13
HETATM   13  C   UNL     1      39.927 -14.122  -2.010  1.00  0.00     0.163 C 
BRANCH  13  14
HETATM   14  C   UNL     1      39.740 -12.722  -2.543  1.00  0.00    -0.038 A 
HETATM   15  C   UNL     1      38.492 -12.094  -2.597  1.00  0.00     0.028 A 
HETATM   16  C   UNL     1      38.417 -10.789  -3.061  1.00  0.00     0.116 A 
HETATM   17  N   UNL     1      39.488 -10.069  -3.457  1.00  0.00    -0.273 NA
HETATM   18  C   UNL     1      40.688 -10.677  -3.370  1.00  0.00     0.116 A 
HETATM   19  C   UNL     1      40.863 -11.979  -2.926  1.00  0.00     0.028 A 
ENDBRANCH  13  14
ENDBRANCH   9  13
ENDBRANCH   3   7
BRANCH   5  20
HETATM   20  N   UNL     1      41.440 -15.884   5.740  1.00  0.00    -0.327 N 
HETATM   21  C   UNL     1      42.789 -16.173   5.857  1.00  0.00     0.227 C 
HETATM   22  O   UNL     1      43.711 -15.594   5.281  1.00  0.00    -0.273 OA
HETATM   23  H   UNL     1      40.800 -16.492   6.236  1.00  0.00     0.169 HD
BRANCH  21  24
HETATM   24  C   UNL     1      43.077 -17.359   6.776  1.00  0.00     0.159 C 
BRANCH  24  25
HETATM   25  C   UNL     1      43.503 -18.551   5.979  1.00  0.00     0.017 A 
HETATM   26  N   UNL     1      44.021 -18.429   4.707  1.00  0.00    -0.369 N 
HETATM   27  H   UNL     1      44.128 -17.550   4.208  1.00  0.00     0.165 HD
HETATM   28  C   UNL     1      44.328 -19.669   4.214  1.00  0.00     0.088 A 
HETATM   29  C   UNL     1      44.027 -20.598   5.184  1.00  0.00     0.019 A 
HETATM   30  C   UNL     1      43.510 -19.895   6.299  1.00  0.00     0.027 A 
ENDBRANCH  24  25
ENDBRANCH  21  24
ENDBRANCH   5  20
TORSDOF 6
ENDMDL
MODEL 9
REMARK VINA RESULT:      -7.4      3.178      4.209
REMARK  6 active torsions:
REMARK  status: ('A' for Active; 'I' for Inactive)
REMARK    1  A    between atoms: C_3  and  N_4 
REMARK       I    between atoms: N_4  and  C_5 
REMARK       I    between atoms: C_5  and  N_6 
REMARK    2  A    between atoms: N_6  and  C_7 
REMARK    3  A    between atoms: C_7  and  C_8 
REMARK    4  A    between atoms: C_16  and  N_17 
REMARK       I    between atoms: N_17  and  C_18 
REMARK    5  A    between atoms: C_18  and  C_19 
REMARK    6  A    between atoms: C_19  and  C_20 
ROOT
HETATM    1  C   UNL     1      38.765 -10.035   4.406  1.00  0.00     0.004 A 
HETATM    2  C   UNL     1      39.075 -11.318   3.957  1.00  0.00     0.029 A 
HETATM    3  C   UNL     1      39.537 -12.284   4.851  1.00  0.00     0.038 A 
HETATM    4  C   UNL     1      39.677 -11.945   6.206  1.00  0.00     0.059 A 
HETATM    5  C   UNL     1      39.366 -10.662   6.669  1.00  0.00     0.036 A 
HETATM    6  C   UNL     1      38.909  -9.708   5.754  1.00  0.00     0.029 A 
ENDROOT
BRANCH   3   7
HETATM    7  N   UNL     1      39.862 -13.606   4.482  1.00  0.00    -0.309 N 
HETATM    8  C   UNL     1      40.762 -14.011   3.522  1.00  0.00     0.320 C 
HETATM    9  N   UNL     1      40.748 -15.382   3.375  1.00  0.00    -0.339 N 
HETATM   10  O   UNL     1      41.502 -13.292   2.865  1.00  0.00    -0.247 OA
HETATM   11  H   UNL     1      39.925 -15.883   3.672  1.00  0.00     0.164 HD
HETATM   12  H   UNL     1      39.480 -14.338   5.062  1.00  0.00     0.170 HD
BRANCH   9  13
HETATM   13  C   UNL     1      41.606 -16.041   2.413  1.00  0.00     0.163 C 
BRANCH  13  14
HETATM   14  C   UNL     1      42.593 -17.000   3.032  1.00  0.00    -0.038 A 
HETATM   15  C   UNL     1      43.030 -18.160   2.383  1.00  0.00     0.028 A 
HETATM   16  C   UNL     1      43.974 -18.963   3.008  1.00  0.00     0.116 A 
HETATM   17  N   UNL     1      44.517 -18.687   4.212  1.00  0.00    -0.273 NA
HETATM   18  C   UNL     1      44.110 -17.550   4.811  1.00  0.00     0.116 A 
HETATM   19  C   UNL     1      43.168 -16.688   4.270  1.00  0.00     0.028 A 
ENDBRANCH  13  14
ENDBRANCH   9  13
ENDBRANCH   3   7
BRANCH   5  20
HETATM   20  N   UNL     1      39.480 -10.257   8.016  1.00  0.00    -0.327 N 
HETATM   21  C   UNL     1      40.502  -9.520   8.592  1.00  0.00     0.227 C 
HETATM   22  O   UNL     1      41.508  -9.100   8.020  1.00  0.00    -0.273 OA
HETATM   23  H   UNL     1      38.748 -10.580   8.635  1.00  0.00     0.169 HD
BRANCH  21  24
HETATM   24  C   UNL     1      40.307  -9.282  10.088  1.00  0.00     0.159 C 
BRANCH  24  25
HETATM   25  C   UNL     1      41.623  -9.292  10.799  1.00  0.00     0.017 A 
HETATM   26  N   UNL     1      42.512 -10.336  10.668  1.00  0.00    -0.369 N 
HETATM   27  H   UNL     1      42.345 -11.173  10.116  1.00  0.00     0.165 HD
HETATM   28  C   UNL     1      43.629 -10.086  11.420  1.00  0.00     0.088 A 
HETATM   29  C   UNL     1      43.468  -8.861  12.026  1.00  0.00     0.019 A 
HETATM   30  C   UNL     1      42.205  -8.357  11.632  1.00  0.00     0.027 A 
ENDBRANCH  24  25
ENDBRANCH  21  24
ENDBRANCH   5  20
TORSDOF 6
ENDMDL
MODEL 10
REMARK VINA RESULT:      -7.4      5.217      9.134
REMARK  6 active torsions:
REMARK  status: ('A' for Active; 'I' for Inactive)
REMARK    1  A    between atoms: C_3  and  N_4 
REMARK       I    between atoms: N_4  and  C_5 
REMARK       I    between atoms: C_5  and  N_6 
REMARK    2  A    between atoms: N_6  and  C_7 
REMARK    3  A    between atoms: C_7  and  C_8 
REMARK    4  A    between atoms: C_16  and  N_17 
REMARK       I    between atoms: N_17  and  C_18 
REMARK    5  A    between atoms: C_18  and  C_19 
REMARK    6  A    between atoms: C_19  and  C_20 
ROOT
HETATM    1  C   UNL     1      40.300 -12.687   6.183  1.00  0.00     0.004 A 
HETATM    2  C   UNL     1      39.454 -12.479   5.094  1.00  0.00     0.029 A 
HETATM    3  C   UNL     1      39.670 -13.158   3.895  1.00  0.00     0.038 A 
HETATM    4  C   UNL     1      40.744 -14.058   3.806  1.00  0.00     0.059 A 
HETATM    5  C   UNL     1      41.597 -14.277   4.893  1.00  0.00     0.036 A 
HETATM    6  C   UNL     1      41.366 -13.581   6.083  1.00  0.00     0.029 A 
ENDROOT
BRANCH   3   7
HETATM    7  N   UNL     1      38.855 -13.014   2.752  1.00  0.00    -0.309 N 
HETATM    8  C   UNL     1      39.127 -12.283   1.617  1.00  0.00     0.320 C 
HETATM    9  N   UNL     1      38.057 -12.303   0.747  1.00  0.00    -0.339 N 
HETATM   10  O   UNL     1      40.163 -11.685   1.364  1.00  0.00    -0.247 OA
HETATM   11  H   UNL     1      37.144 -12.509   1.122  1.00  0.00     0.164 HD
HETATM   12  H   UNL     1      38.037 -13.603   2.710  1.00  0.00     0.170 HD
BRANCH   9  13
HETATM   13  C   UNL     1      38.103 -11.592  -0.514  1.00  0.00     0.163 C 
BRANCH  13  14
HETATM   14  C   UNL     1      39.016 -12.224  -1.536  1.00  0.00    -0.038 A 
HETATM   15  C   UNL     1      40.069 -11.530  -2.141  1.00  0.00     0.028 A 
HETATM   16  C   UNL     1      40.887 -12.202  -3.039  1.00  0.00     0.116 A 
HETATM   17  N   UNL     1      40.739 -13.504  -3.362  1.00  0.00    -0.273 NA
HETATM   18  C   UNL     1      39.739 -14.167  -2.747  1.00  0.00     0.116 A 
HETATM   19  C   UNL     1      38.867 -13.582  -1.842  1.00  0.00     0.028 A 
ENDBRANCH  13  14
ENDBRANCH   9  13
ENDBRANCH   3   7
BRANCH   5  20
HETATM   20  N   UNL     1      42.692 -15.168   4.872  1.00  0.00    -0.327 N 
HETATM   21  C   UNL     1      42.657 -16.546   4.746  1.00  0.00     0.227 C 
HETATM   22  O   UNL     1      41.646 -17.243   4.645  1.00  0.00    -0.273 OA
HETATM   23  H   UNL     1      43.603 -14.746   5.005  1.00  0.00     0.169 HD
BRANCH  21  24
HETATM   24  C   UNL     1      44.040 -17.193   4.784  1.00  0.00     0.159 C 
BRANCH  24  25
HETATM   25  C   UNL     1      43.970 -18.615   4.326  1.00  0.00     0.017 A 
HETATM   26  N   UNL     1      43.714 -18.943   3.012  1.00  0.00    -0.369 N 
HETATM   27  H   UNL     1      43.532 -18.271   2.272  1.00  0.00     0.165 HD
HETATM   28  C   UNL     1      43.709 -20.306   2.871  1.00  0.00     0.088 A 
HETATM   29  C   UNL     1      43.983 -20.861   4.100  1.00  0.00     0.019 A 
HETATM   30  C   UNL     1      44.152 -19.796   5.018  1.00  0.00     0.027 A 
ENDBRANCH  24  25
ENDBRANCH  21  24
ENDBRANCH   5  20
TORSDOF 6
ENDMDL
