MODEL 1
REMARK VINA RESULT:      -9.0      0.000      0.000
REMARK  9 active torsions:
REMARK  status: ('A' for Active; 'I' for Inactive)
REMARK    1  A    between atoms: C_3  and  C_4 
REMARK    2  A    between atoms: C_4  and  C_5 
REMARK       I    between atoms: C_5  and  N_6 
REMARK    3  A    between atoms: N_6  and  C_7 
REMARK    4  A    between atoms: C_16  and  N_17 
REMARK       I    between atoms: N_17  and  C_18 
REMARK    5  A    between atoms: C_18  and  C_19 
REMARK    6  A    between atoms: C_19  and  S_20 
REMARK    7  A    between atoms: C_26  and  C_27 
REMARK    8  A    between atoms: C_27  and  O_28 
REMARK    9  A    between atoms: C_30  and  O_31 
ROOT
HETATM    1  C   UNL     1      40.501 -15.249   6.661  1.00  0.00     0.016 C 
HETATM    2  C   UNL     1      41.642 -14.485   5.902  1.00  0.00    -0.030 C 
HETATM    3  C   UNL     1      41.558 -15.026   4.382  1.00  0.00     0.056 C 
HETATM    4  C   UNL     1      40.721 -14.100   3.519  1.00  0.00     0.056 A 
HETATM    5  C   UNL     1      40.060 -12.984   3.982  1.00  0.00     0.012 A 
HETATM    6  S   UNL     1      39.189 -12.236   2.726  1.00  0.00    -0.055 SA
HETATM    7  C   UNL     1      39.762 -13.417   1.644  1.00  0.00     0.173 A 
HETATM    8  N   UNL     1      40.563 -14.323   2.159  1.00  0.00    -0.227 NA
HETATM    9  C   UNL     1      40.074 -12.468   5.370  1.00  0.00     0.055 C 
HETATM   10  C   UNL     1      41.361 -12.923   6.104  1.00  0.00     0.012 C 
HETATM   11  C   UNL     1      42.599 -11.948   5.917  1.00  0.00     0.008 C 
HETATM   12  C   UNL     1      42.246 -10.546   6.492  1.00  0.00     0.020 C 
HETATM   13  C   UNL     1      43.814 -12.495   6.723  1.00  0.00     0.128 C 
HETATM   14  C   UNL     1      44.133 -13.948   6.390  1.00  0.00     0.033 C 
HETATM   15  C   UNL     1      42.943 -14.869   6.654  1.00  0.00     0.013 C 
ENDROOT
BRANCH   3  16
HETATM   16  C   UNL     1      42.883 -15.419   3.699  1.00  0.00     0.114 C 
BRANCH  16  17
HETATM   17  C   UNL     1      43.081 -16.922   3.589  1.00  0.00     0.218 C 
HETATM   18  N   UNL     1      44.136 -17.399   4.329  1.00  0.00    -0.356 N 
HETATM   19  H   UNL     1      44.901 -16.734   4.435  1.00  0.00     0.162 HD
HETATM   20  O   UNL     1      42.327 -17.632   2.930  1.00  0.00    -0.274 OA
BRANCH  18  21
HETATM   21  C   UNL     1      44.453 -18.806   4.386  1.00  0.00     0.084 C 
HETATM   22  C   UNL     1      43.768 -19.541   5.532  1.00  0.00     0.025 C 
HETATM   23  C   UNL     1      43.892 -21.005   5.127  1.00  0.00     0.002 C 
HETATM   24  C   UNL     1      43.871 -21.016   3.598  1.00  0.00     0.002 C 
HETATM   25  C   UNL     1      43.947 -19.556   3.159  1.00  0.00     0.025 C 
ENDBRANCH  18  21
ENDBRANCH  16  17
ENDBRANCH   3  16
BRANCH  11  26
HETATM   26  C   UNL     1      43.001 -11.735   4.437  1.00  0.00     0.176 C 
BRANCH  26  27
HETATM   27  O   UNL     1      44.322 -11.213   4.320  1.00  0.00    -0.400 OA
HETATM   28  H   UNL     1      44.897 -11.730   4.911  1.00  0.00     0.209 HD
ENDBRANCH  26  27
ENDBRANCH  11  26
BRANCH   7  29
HETATM   29  N   UNL     1      39.452 -13.423   0.311  1.00  0.00    -0.305 N 
HETATM   30  C   UNL     1      40.011 -12.657  -0.687  1.00  0.00     0.232 C 
HETATM   31  O   UNL     1      40.888 -11.807  -0.562  1.00  0.00    -0.272 OA
HETATM   32  H   UNL     1      38.662 -14.011   0.068  1.00  0.00     0.171 HD
BRANCH  30  33
HETATM   33  C   UNL     1      39.495 -13.018  -2.075  1.00  0.00     0.176 C 
BRANCH  33  34
HETATM   34  S   UNL     1      39.028 -14.776  -2.215  1.00  0.00    -0.164 SA
HETATM   35  C   UNL     1      38.084 -14.692  -3.760  1.00  0.00     0.090 C 
ENDBRANCH  33  34
ENDBRANCH  30  33
ENDBRANCH   7  29
BRANCH  13  36
HETATM   36  O   UNL     1      43.547 -12.431   8.129  1.00  0.00    -0.395 OA
HETATM   37  H   UNL     1      42.630 -12.724   8.263  1.00  0.00     0.210 HD
ENDBRANCH  13  36
TORSDOF 9
ENDMDL
MODEL 2
REMARK VINA RESULT:      -8.7      3.389      6.674
REMARK  9 active torsions:
REMARK  status: ('A' for Active; 'I' for Inactive)
REMARK    1  A    between atoms: C_3  and  C_4 
REMARK    2  A    between atoms: C_4  and  C_5 
REMARK       I    between atoms: C_5  and  N_6 
REMARK    3  A    between atoms: N_6  and  C_7 
REMARK    4  A    between atoms: C_16  and  N_17 
REMARK       I    between atoms: N_17  and  C_18 
REMARK    5  A    between atoms: C_18  and  C_19 
REMARK    6  A    between atoms: C_19  and  S_20 
REMARK    7  A    between atoms: C_26  and  C_27 
REMARK    8  A    between atoms: C_27  and  O_28 
REMARK    9  A    between atoms: C_30  and  O_31 
ROOT
HETATM    1  C   UNL     1      43.713 -13.835   2.209  1.00  0.00     0.016 C 
HETATM    2  C   UNL     1      42.491 -14.079   3.161  1.00  0.00    -0.030 C 
HETATM    3  C   UNL     1      43.138 -14.194   4.638  1.00  0.00     0.056 C 
HETATM    4  C   UNL     1      43.096 -12.857   5.356  1.00  0.00     0.056 A 
HETATM    5  C   UNL     1      42.635 -11.685   4.800  1.00  0.00     0.012 A 
HETATM    6  S   UNL     1      42.798 -10.394   5.896  1.00  0.00    -0.055 SA
HETATM    7  C   UNL     1      43.441 -11.470   7.047  1.00  0.00     0.173 A 
HETATM    8  N   UNL     1      43.533 -12.725   6.665  1.00  0.00    -0.227 NA
HETATM    9  C   UNL     1      42.069 -11.520   3.441  1.00  0.00     0.055 C 
HETATM   10  C   UNL     1      41.480 -12.860   2.933  1.00  0.00     0.012 C 
HETATM   11  C   UNL     1      39.966 -13.106   3.342  1.00  0.00     0.008 C 
HETATM   12  C   UNL     1      39.077 -11.984   2.732  1.00  0.00     0.020 C 
HETATM   13  C   UNL     1      39.485 -14.463   2.750  1.00  0.00     0.128 C 
HETATM   14  C   UNL     1      40.405 -15.623   3.115  1.00  0.00     0.033 C 
HETATM   15  C   UNL     1      41.838 -15.386   2.639  1.00  0.00     0.013 C 
ENDROOT
BRANCH   3  16
HETATM   16  C   UNL     1      42.651 -15.350   5.533  1.00  0.00     0.114 C 
BRANCH  16  17
HETATM   17  C   UNL     1      43.605 -16.534   5.558  1.00  0.00     0.218 C 
HETATM   18  N   UNL     1      43.184 -17.603   4.805  1.00  0.00    -0.356 N 
HETATM   19  H   UNL     1      42.170 -17.695   4.748  1.00  0.00     0.162 HD
HETATM   20  O   UNL     1      44.672 -16.498   6.164  1.00  0.00    -0.274 OA
BRANCH  18  21
HETATM   21  C   UNL     1      43.977 -18.801   4.670  1.00  0.00     0.084 C 
HETATM   22  C   UNL     1      43.700 -19.843   5.748  1.00  0.00     0.025 C 
HETATM   23  C   UNL     1      44.291 -21.117   5.158  1.00  0.00     0.002 C 
HETATM   24  C   UNL     1      44.138 -20.983   3.643  1.00  0.00     0.002 C 
HETATM   25  C   UNL     1      43.658 -19.557   3.385  1.00  0.00     0.025 C 
ENDBRANCH  18  21
ENDBRANCH  16  17
ENDBRANCH   3  16
BRANCH  11  26
HETATM   26  C   UNL     1      39.727 -13.083   4.871  1.00  0.00     0.176 C 
BRANCH  26  27
HETATM   27  O   UNL     1      39.088 -11.879   5.286  1.00  0.00    -0.400 OA
HETATM   28  H   UNL     1      39.783 -11.235   5.504  1.00  0.00     0.209 HD
ENDBRANCH  26  27
ENDBRANCH  11  26
BRANCH   7  29
HETATM   29  N   UNL     1      43.811 -11.084   8.306  1.00  0.00    -0.305 N 
HETATM   30  C   UNL     1      45.005 -10.520   8.697  1.00  0.00     0.232 C 
HETATM   31  O   UNL     1      45.973 -10.273   7.984  1.00  0.00    -0.272 OA
HETATM   32  H   UNL     1      43.143 -11.322   9.030  1.00  0.00     0.171 HD
BRANCH  30  33
HETATM   33  C   UNL     1      45.018 -10.113  10.166  1.00  0.00     0.176 C 
BRANCH  33  34
HETATM   34  S   UNL     1      43.353 -10.111  10.909  1.00  0.00    -0.164 SA
HETATM   35  C   UNL     1      43.538  -8.681  12.006  1.00  0.00     0.090 C 
ENDBRANCH  33  34
ENDBRANCH  30  33
ENDBRANCH   7  29
BRANCH  13  36
HETATM   36  O   UNL     1      39.438 -14.393   1.320  1.00  0.00    -0.395 OA
HETATM   37  H   UNL     1      39.808 -15.225   0.978  1.00  0.00     0.210 HD
ENDBRANCH  13  36
TORSDOF 9
ENDMDL
MODEL 3
REMARK VINA RESULT:      -8.0      3.211      6.841
REMARK  9 active torsions:
REMARK  status: ('A' for Active; 'I' for Inactive)
REMARK    1  A    between atoms: C_3  and  C_4 
REMARK    2  A    between atoms: C_4  and  C_5 
REMARK       I    between atoms: C_5  and  N_6 
REMARK    3  A    between atoms: N_6  and  C_7 
REMARK    4  A    between atoms: C_16  and  N_17 
REMARK       I    between atoms: N_17  and  C_18 
REMARK    5  A    between atoms: C_18  and  C_19 
REMARK    6  A    between atoms: C_19  and  S_20 
REMARK    7  A    between atoms: C_26  and  C_27 
REMARK    8  A    between atoms: C_27  and  O_28 
REMARK    9  A    between atoms: C_30  and  O_31 
ROOT
HETATM    1  C   UNL     1      39.128 -11.502   6.352  1.00  0.00     0.016 C 
HETATM    2  C   UNL     1      40.251 -11.213   5.296  1.00  0.00    -0.030 C 
HETATM    3  C   UNL     1      41.360 -12.360   5.550  1.00  0.00     0.056 C 
HETATM    4  C   UNL     1      41.150 -13.538   4.617  1.00  0.00     0.056 A 
HETATM    5  C   UNL     1      40.111 -13.649   3.720  1.00  0.00     0.012 A 
HETATM    6  S   UNL     1      40.187 -15.134   2.892  1.00  0.00    -0.055 SA
HETATM    7  C   UNL     1      41.604 -15.524   3.749  1.00  0.00     0.173 A 
HETATM    8  N   UNL     1      42.022 -14.616   4.603  1.00  0.00    -0.227 NA
HETATM    9  C   UNL     1      39.049 -12.645   3.476  1.00  0.00     0.055 C 
HETATM   10  C   UNL     1      39.546 -11.229   3.860  1.00  0.00     0.012 C 
HETATM   11  C   UNL     1      40.296 -10.460   2.691  1.00  0.00     0.008 C 
HETATM   12  C   UNL     1      39.324 -10.267   1.491  1.00  0.00     0.020 C 
HETATM   13  C   UNL     1      40.715  -9.045   3.189  1.00  0.00     0.128 C 
HETATM   14  C   UNL     1      41.511  -9.092   4.489  1.00  0.00     0.033 C 
HETATM   15  C   UNL     1      40.728  -9.771   5.612  1.00  0.00     0.013 C 
ENDROOT
BRANCH   3  16
HETATM   16  C   UNL     1      42.835 -11.916   5.603  1.00  0.00     0.114 C 
BRANCH  16  17
HETATM   17  C   UNL     1      43.436 -11.988   6.998  1.00  0.00     0.218 C 
HETATM   18  N   UNL     1      43.425 -10.790   7.671  1.00  0.00    -0.356 N 
HETATM   19  H   UNL     1      43.501  -9.975   7.064  1.00  0.00     0.162 HD
HETATM   20  O   UNL     1      43.845 -13.042   7.477  1.00  0.00    -0.274 OA
BRANCH  18  21
HETATM   21  C   UNL     1      43.912 -10.671   9.024  1.00  0.00     0.084 C 
HETATM   22  C   UNL     1      45.351 -10.177   9.114  1.00  0.00     0.025 C 
HETATM   23  C   UNL     1      45.471  -9.726  10.565  1.00  0.00     0.002 C 
HETATM   24  C   UNL     1      44.078  -9.242  10.966  1.00  0.00     0.002 C 
HETATM   25  C   UNL     1      43.147  -9.618   9.817  1.00  0.00     0.025 C 
ENDBRANCH  18  21
ENDBRANCH  16  17
ENDBRANCH   3  16
BRANCH  11  26
HETATM   26  C   UNL     1      41.532 -11.216   2.147  1.00  0.00     0.176 C 
BRANCH  26  27
HETATM   27  O   UNL     1      42.374 -10.364   1.375  1.00  0.00    -0.400 OA
HETATM   28  H   UNL     1      41.801  -9.812   0.815  1.00  0.00     0.209 HD
ENDBRANCH  26  27
ENDBRANCH  11  26
BRANCH   7  29
HETATM   29  N   UNL     1      42.301 -16.685   3.553  1.00  0.00    -0.305 N 
HETATM   30  C   UNL     1      43.141 -16.996   2.508  1.00  0.00     0.232 C 
HETATM   31  O   UNL     1      43.410 -16.289   1.541  1.00  0.00    -0.272 OA
HETATM   32  H   UNL     1      42.097 -17.414   4.228  1.00  0.00     0.171 HD
BRANCH  30  33
HETATM   33  C   UNL     1      43.836 -18.341   2.683  1.00  0.00     0.176 C 
BRANCH  33  34
HETATM   34  S   UNL     1      44.362 -18.641   4.404  1.00  0.00    -0.164 SA
HETATM   35  C   UNL     1      44.071 -20.428   4.477  1.00  0.00     0.090 C 
ENDBRANCH  33  34
ENDBRANCH  30  33
ENDBRANCH   7  29
BRANCH  13  36
HETATM   36  O   UNL     1      39.557  -8.239   3.430  1.00  0.00    -0.395 OA
HETATM   37  H   UNL     1      38.894  -8.806   3.861  1.00  0.00     0.210 HD
ENDBRANCH  13  36
TORSDOF 9
ENDMDL
MODEL 4
REMARK VINA RESULT:      -7.7      2.735      7.236
REMARK  9 active torsions:
REMARK  status: ('A' for Active; 'I' for Inactive)
REMARK    1  A    between atoms: C_3  and  C_4 
REMARK    2  A    between atoms: C_4  and  C_5 
REMARK       I    between atoms: C_5  and  N_6 
REMARK    3  A    between atoms: N_6  and  C_7 
REMARK    4  A    between atoms: C_16  and  N_17 
REMARK       I    between atoms: N_17  and  C_18 
REMARK    5  A    between atoms: C_18  and  C_19 
REMARK    6  A    between atoms: C_19  and  S_20 
REMARK    7  A    between atoms: C_26  and  C_27 
REMARK    8  A    between atoms: C_27  and  O_28 
REMARK    9  A    between atoms: C_30  and  O_31 
ROOT
HETATM    1  C   UNL     1      41.382 -12.264  -2.712  1.00  0.00     0.016 C 
HETATM    2  C   UNL     1      40.118 -12.436  -1.800  1.00  0.00    -0.030 C 
HETATM    3  C   UNL     1      40.685 -13.074  -0.428  1.00  0.00     0.056 C 
HETATM    4  C   UNL     1      40.959 -11.994   0.602  1.00  0.00     0.056 A 
HETATM    5  C   UNL     1      40.813 -10.643   0.378  1.00  0.00     0.012 A 
HETATM    6  S   UNL     1      41.266  -9.751   1.754  1.00  0.00    -0.055 SA
HETATM    7  C   UNL     1      41.599 -11.207   2.570  1.00  0.00     0.173 A 
HETATM    8  N   UNL     1      41.387 -12.308   1.884  1.00  0.00    -0.227 NA
HETATM    9  C   UNL     1      40.335 -10.007  -0.872  1.00  0.00     0.055 C 
HETATM   10  C   UNL     1      39.445 -10.990  -1.673  1.00  0.00     0.012 C 
HETATM   11  C   UNL     1      37.908 -10.954  -1.275  1.00  0.00     0.008 C 
HETATM   12  C   UNL     1      37.336  -9.533  -1.547  1.00  0.00     0.020 C 
HETATM   13  C   UNL     1      37.120 -11.958  -2.167  1.00  0.00     0.128 C 
HETATM   14  C   UNL     1      37.718 -13.360  -2.143  1.00  0.00     0.033 C 
HETATM   15  C   UNL     1      39.174 -13.368  -2.605  1.00  0.00     0.013 C 
ENDROOT
BRANCH   3  16
HETATM   16  C   UNL     1      39.910 -14.264   0.169  1.00  0.00     0.114 C 
BRANCH  16  17
HETATM   17  C   UNL     1      40.715 -15.058   1.185  1.00  0.00     0.218 C 
HETATM   18  N   UNL     1      42.065 -15.082   0.928  1.00  0.00    -0.356 N 
HETATM   19  H   UNL     1      42.298 -15.032  -0.062  1.00  0.00     0.162 HD
HETATM   20  O   UNL     1      40.192 -15.582   2.164  1.00  0.00    -0.274 OA
BRANCH  18  21
HETATM   21  C   UNL     1      42.996 -15.749   1.806  1.00  0.00     0.084 C 
HETATM   22  C   UNL     1      42.909 -15.285   3.256  1.00  0.00     0.025 C 
HETATM   23  C   UNL     1      43.627 -16.393   4.017  1.00  0.00     0.002 C 
HETATM   24  C   UNL     1      43.380 -17.673   3.218  1.00  0.00     0.002 C 
HETATM   25  C   UNL     1      42.711 -17.242   1.916  1.00  0.00     0.025 C 
ENDBRANCH  18  21
ENDBRANCH  16  17
ENDBRANCH   3  16
BRANCH  11  26
HETATM   26  C   UNL     1      37.650 -11.261   0.220  1.00  0.00     0.176 C 
BRANCH  26  27
HETATM   27  O   UNL     1      37.257 -10.094   0.937  1.00  0.00    -0.400 OA
HETATM   28  H   UNL     1      37.418 -10.260   1.882  1.00  0.00     0.209 HD
ENDBRANCH  26  27
ENDBRANCH  11  26
BRANCH   7  29
HETATM   29  N   UNL     1      42.026 -11.254   3.869  1.00  0.00    -0.305 N 
HETATM   30  C   UNL     1      43.324 -11.302   4.328  1.00  0.00     0.232 C 
HETATM   31  O   UNL     1      44.346 -11.328   3.649  1.00  0.00    -0.272 OA
HETATM   32  H   UNL     1      41.282 -11.342   4.552  1.00  0.00     0.171 HD
BRANCH  30  33
HETATM   33  C   UNL     1      43.422 -11.228   5.847  1.00  0.00     0.176 C 
BRANCH  33  34
HETATM   34  S   UNL     1      44.430 -12.575   6.551  1.00  0.00    -0.164 SA
HETATM   35  C   UNL     1      43.127 -13.815   6.771  1.00  0.00     0.090 C 
ENDBRANCH  33  34
ENDBRANCH  30  33
ENDBRANCH   7  29
BRANCH  13  36
HETATM   36  O   UNL     1      37.122 -11.520  -3.531  1.00  0.00    -0.395 OA
HETATM   37  H   UNL     1      37.896 -11.921  -3.962  1.00  0.00     0.210 HD
ENDBRANCH  13  36
TORSDOF 9
ENDMDL
MODEL 5
REMARK VINA RESULT:      -7.7      3.198      6.507
REMARK  9 active torsions:
REMARK  status: ('A' for Active; 'I' for Inactive)
REMARK    1  A    between atoms: C_3  and  C_4 
REMARK    2  A    between atoms: C_4  and  C_5 
REMARK       I    between atoms: C_5  and  N_6 
REMARK    3  A    between atoms: N_6  and  C_7 
REMARK    4  A    between atoms: C_16  and  N_17 
REMARK       I    between atoms: N_17  and  C_18 
REMARK    5  A    between atoms: C_18  and  C_19 
REMARK    6  A    between atoms: C_19  and  S_20 
REMARK    7  A    between atoms: C_26  and  C_27 
REMARK    8  A    between atoms: C_27  and  O_28 
REMARK    9  A    between atoms: C_30  and  O_31 
ROOT
HETATM    1  C   UNL     1      43.580 -13.502   2.167  1.00  0.00     0.016 C 
HETATM    2  C   UNL     1      42.014 -13.419   2.171  1.00  0.00    -0.030 C 
HETATM    3  C   UNL     1      41.597 -13.615   3.720  1.00  0.00     0.056 C 
HETATM    4  C   UNL     1      41.410 -12.276   4.408  1.00  0.00     0.056 A 
HETATM    5  C   UNL     1      41.634 -11.053   3.814  1.00  0.00     0.012 A 
HETATM    6  S   UNL     1      41.366  -9.788   4.921  1.00  0.00    -0.055 SA
HETATM    7  C   UNL     1      40.943 -10.933   6.106  1.00  0.00     0.173 A 
HETATM    8  N   UNL     1      40.983 -12.191   5.725  1.00  0.00    -0.227 NA
HETATM    9  C   UNL     1      42.053 -10.822   2.413  1.00  0.00     0.055 C 
HETATM   10  C   UNL     1      41.628 -12.011   1.516  1.00  0.00     0.012 C 
HETATM   11  C   UNL     1      40.165 -11.886   0.914  1.00  0.00     0.008 C 
HETATM   12  C   UNL     1      40.081 -10.617   0.016  1.00  0.00     0.020 C 
HETATM   13  C   UNL     1      39.870 -13.120   0.012  1.00  0.00     0.128 C 
HETATM   14  C   UNL     1      40.116 -14.444   0.729  1.00  0.00     0.033 C 
HETATM   15  C   UNL     1      41.555 -14.562   1.228  1.00  0.00     0.013 C 
ENDROOT
BRANCH   3  16
HETATM   16  C   UNL     1      40.442 -14.590   4.021  1.00  0.00     0.114 C 
BRANCH  16  17
HETATM   17  C   UNL     1      40.914 -15.990   4.381  1.00  0.00     0.218 C 
HETATM   18  N   UNL     1      41.960 -16.439   3.611  1.00  0.00    -0.356 N 
HETATM   19  H   UNL     1      41.963 -16.068   2.662  1.00  0.00     0.162 HD
HETATM   20  O   UNL     1      40.422 -16.624   5.310  1.00  0.00    -0.274 OA
BRANCH  18  21
HETATM   21  C   UNL     1      42.572 -17.727   3.834  1.00  0.00     0.084 C 
HETATM   22  C   UNL     1      43.018 -18.421   2.553  1.00  0.00     0.025 C 
HETATM   23  C   UNL     1      43.986 -19.486   3.055  1.00  0.00     0.002 C 
HETATM   24  C   UNL     1      44.630 -18.901   4.312  1.00  0.00     0.002 C 
HETATM   25  C   UNL     1      43.873 -17.612   4.621  1.00  0.00     0.025 C 
ENDBRANCH  18  21
ENDBRANCH  16  17
ENDBRANCH   3  16
BRANCH  11  26
HETATM   26  C   UNL     1      39.063 -11.743   1.991  1.00  0.00     0.176 C 
BRANCH  26  27
HETATM   27  O   UNL     1      37.764 -11.966   1.449  1.00  0.00    -0.400 OA
HETATM   28  H   UNL     1      37.700 -12.908   1.212  1.00  0.00     0.209 HD
ENDBRANCH  26  27
ENDBRANCH  11  26
BRANCH   7  29
HETATM   29  N   UNL     1      40.548 -10.589   7.370  1.00  0.00    -0.305 N 
HETATM   30  C   UNL     1      39.435  -9.867   7.737  1.00  0.00     0.232 C 
HETATM   31  O   UNL     1      38.592  -9.380   6.990  1.00  0.00    -0.272 OA
HETATM   32  H   UNL     1      41.209 -10.839   8.097  1.00  0.00     0.171 HD
BRANCH  30  33
HETATM   33  C   UNL     1      39.255  -9.778   9.248  1.00  0.00     0.176 C 
BRANCH  33  34
HETATM   34  S   UNL     1      40.219  -8.419   9.990  1.00  0.00    -0.164 SA
HETATM   35  C   UNL     1      41.475  -9.405  10.847  1.00  0.00     0.090 C 
ENDBRANCH  33  34
ENDBRANCH  30  33
ENDBRANCH   7  29
BRANCH  13  36
HETATM   36  O   UNL     1      40.711 -13.103  -1.147  1.00  0.00    -0.395 OA
HETATM   37  H   UNL     1      41.124 -13.981  -1.217  1.00  0.00     0.210 HD
ENDBRANCH  13  36
TORSDOF 9
ENDMDL
MODEL 6
REMARK VINA RESULT:      -7.7      2.948      6.893
REMARK  9 active torsions:
REMARK  status: ('A' for Active; 'I' for Inactive)
REMARK    1  A    between atoms: C_3  and  C_4 
REMARK    2  A    between atoms: C_4  and  C_5 
REMARK       I    between atoms: C_5  and  N_6 
REMARK    3  A    between atoms: N_6  and  C_7 
REMARK    4  A    between atoms: C_16  and  N_17 
REMARK       I    between atoms: N_17  and  C_18 
REMARK    5  A    between atoms: C_18  and  C_19 
REMARK    6  A    between atoms: C_19  and  S_20 
REMARK    7  A    between atoms: C_26  and  C_27 
REMARK    8  A    between atoms: C_27  and  O_28 
REMARK    9  A    between atoms: C_30  and  O_31 
ROOT
HETATM    1  C   UNL     1      39.397 -16.043   2.703  1.00  0.00     0.016 C 
HETATM    2  C   UNL     1      40.810 -15.379   2.849  1.00  0.00    -0.030 C 
HETATM    3  C   UNL     1      40.577 -13.827   2.460  1.00  0.00     0.056 C 
HETATM    4  C   UNL     1      40.342 -12.985   3.700  1.00  0.00     0.056 A 
HETATM    5  C   UNL     1      40.266 -13.483   4.982  1.00  0.00     0.012 A 
HETATM    6  S   UNL     1      39.940 -12.237   6.094  1.00  0.00    -0.055 SA
HETATM    7  C   UNL     1      39.948 -11.113   4.817  1.00  0.00     0.173 A 
HETATM    8  N   UNL     1      40.185 -11.609   3.622  1.00  0.00    -0.227 NA
HETATM    9  C   UNL     1      40.434 -14.898   5.385  1.00  0.00     0.055 C 
HETATM   10  C   UNL     1      41.297 -15.658   4.347  1.00  0.00     0.012 C 
HETATM   11  C   UNL     1      42.860 -15.580   4.613  1.00  0.00     0.008 C 
HETATM   12  C   UNL     1      43.183 -16.220   5.994  1.00  0.00     0.020 C 
HETATM   13  C   UNL     1      43.611 -16.404   3.526  1.00  0.00     0.128 C 
HETATM   14  C   UNL     1      43.219 -16.001   2.108  1.00  0.00     0.033 C 
HETATM   15  C   UNL     1      41.718 -16.162   1.864  1.00  0.00     0.013 C 
ENDROOT
BRANCH   3  16
HETATM   16  C   UNL     1      41.594 -13.180   1.501  1.00  0.00     0.114 C 
BRANCH  16  17
HETATM   17  C   UNL     1      40.992 -12.785   0.162  1.00  0.00     0.218 C 
HETATM   18  N   UNL     1      40.205 -13.759  -0.402  1.00  0.00    -0.356 N 
HETATM   19  H   UNL     1      40.492 -14.709  -0.169  1.00  0.00     0.162 HD
HETATM   20  O   UNL     1      41.169 -11.674  -0.330  1.00  0.00    -0.274 OA
BRANCH  18  21
HETATM   21  C   UNL     1      39.512 -13.552  -1.651  1.00  0.00     0.084 C 
HETATM   22  C   UNL     1      39.121 -14.845  -2.356  1.00  0.00     0.025 C 
HETATM   23  C   UNL     1      38.067 -14.389  -3.357  1.00  0.00     0.002 C 
HETATM   24  C   UNL     1      37.369 -13.193  -2.709  1.00  0.00     0.002 C 
HETATM   25  C   UNL     1      38.168 -12.860  -1.452  1.00  0.00     0.025 C 
ENDBRANCH  18  21
ENDBRANCH  16  17
ENDBRANCH   3  16
BRANCH  11  26
HETATM   26  C   UNL     1      43.409 -14.134   4.652  1.00  0.00     0.176 C 
BRANCH  26  27
HETATM   27  O   UNL     1      43.645 -13.695   5.987  1.00  0.00    -0.400 OA
HETATM   28  H   UNL     1      42.900 -13.126   6.247  1.00  0.00     0.209 HD
ENDBRANCH  26  27
ENDBRANCH  11  26
BRANCH   7  29
HETATM   29  N   UNL     1      39.760  -9.771   5.001  1.00  0.00    -0.305 N 
HETATM   30  C   UNL     1      38.614  -9.130   5.415  1.00  0.00     0.232 C 
HETATM   31  O   UNL     1      37.533  -9.650   5.681  1.00  0.00    -0.272 OA
HETATM   32  H   UNL     1      40.545  -9.195   4.719  1.00  0.00     0.171 HD
BRANCH  30  33
HETATM   33  C   UNL     1      38.809  -7.633   5.619  1.00  0.00     0.176 C 
BRANCH  33  34
HETATM   34  S   UNL     1      40.150  -7.254   6.796  1.00  0.00    -0.164 SA
HETATM   35  C   UNL     1      39.477  -8.080   8.261  1.00  0.00     0.090 C 
ENDBRANCH  33  34
ENDBRANCH  30  33
ENDBRANCH   7  29
BRANCH  13  36
HETATM   36  O   UNL     1      43.317 -17.799   3.666  1.00  0.00    -0.395 OA
HETATM   37  H   UNL     1      42.351 -17.897   3.614  1.00  0.00     0.210 HD
ENDBRANCH  13  36
TORSDOF 9
ENDMDL
MODEL 7
REMARK VINA RESULT:      -7.5      2.631      6.213
REMARK  9 active torsions:
REMARK  status: ('A' for Active; 'I' for Inactive)
REMARK    1  A    between atoms: C_3  and  C_4 
REMARK    2  A    between atoms: C_4  and  C_5 
REMARK       I    between atoms: C_5  and  N_6 
REMARK    3  A    between atoms: N_6  and  C_7 
REMARK    4  A    between atoms: C_16  and  N_17 
REMARK       I    between atoms: N_17  and  C_18 
REMARK    5  A    between atoms: C_18  and  C_19 
REMARK    6  A    between atoms: C_19  and  S_20 
REMARK    7  A    between atoms: C_26  and  C_27 
REMARK    8  A    between atoms: C_27  and  O_28 
REMARK    9  A    between atoms: C_30  and  O_31 
ROOT
HETATM    1  C   UNL     1      43.800 -12.270   4.954  1.00  0.00     0.016 C 
HETATM    2  C   UNL     1      42.731 -13.411   5.079  1.00  0.00    -0.030 C 
HETATM    3  C   UNL     1      41.328 -12.700   4.708  1.00  0.00     0.056 C 
HETATM    4  C   UNL     1      40.987 -12.900   3.243  1.00  0.00     0.056 A 
HETATM    5  C   UNL     1      41.798 -13.539   2.331  1.00  0.00     0.012 A 
HETATM    6  S   UNL     1      41.095 -13.515   0.782  1.00  0.00    -0.055 SA
HETATM    7  C   UNL     1      39.752 -12.688   1.418  1.00  0.00     0.173 A 
HETATM    8  N   UNL     1      39.794 -12.438   2.708  1.00  0.00    -0.227 NA
HETATM    9  C   UNL     1      43.107 -14.171   2.612  1.00  0.00     0.055 C 
HETATM   10  C   UNL     1      43.199 -14.587   4.102  1.00  0.00     0.012 C 
HETATM   11  C   UNL     1      42.631 -16.037   4.412  1.00  0.00     0.008 C 
HETATM   12  C   UNL     1      43.449 -17.095   3.616  1.00  0.00     0.020 C 
HETATM   13  C   UNL     1      42.808 -16.348   5.927  1.00  0.00     0.128 C 
HETATM   14  C   UNL     1      42.218 -15.264   6.822  1.00  0.00     0.033 C 
HETATM   15  C   UNL     1      42.842 -13.896   6.549  1.00  0.00     0.013 C 
ENDROOT
BRANCH   3  16
HETATM   16  C   UNL     1      40.127 -12.989   5.630  1.00  0.00     0.114 C 
BRANCH  16  17
HETATM   17  C   UNL     1      39.685 -11.780   6.439  1.00  0.00     0.218 C 
HETATM   18  N   UNL     1      40.710 -10.929   6.771  1.00  0.00    -0.356 N 
HETATM   19  H   UNL     1      41.610 -11.392   6.893  1.00  0.00     0.162 HD
HETATM   20  O   UNL     1      38.507 -11.579   6.719  1.00  0.00    -0.274 OA
BRANCH  18  21
HETATM   21  C   UNL     1      40.479  -9.704   7.499  1.00  0.00     0.084 C 
HETATM   22  C   UNL     1      41.641  -9.300   8.400  1.00  0.00     0.025 C 
HETATM   23  C   UNL     1      41.358  -7.831   8.690  1.00  0.00     0.002 C 
HETATM   24  C   UNL     1      40.641  -7.293   7.451  1.00  0.00     0.002 C 
HETATM   25  C   UNL     1      40.343  -8.503   6.570  1.00  0.00     0.025 C 
ENDBRANCH  18  21
ENDBRANCH  16  17
ENDBRANCH   3  16
BRANCH  11  26
HETATM   26  C   UNL     1      41.149 -16.220   4.005  1.00  0.00     0.176 C 
BRANCH  26  27
HETATM   27  O   UNL     1      41.027 -16.830   2.722  1.00  0.00    -0.400 OA
HETATM   28  H   UNL     1      40.292 -17.467   2.767  1.00  0.00     0.209 HD
ENDBRANCH  26  27
ENDBRANCH  11  26
BRANCH   7  29
HETATM   29  N   UNL     1      38.669 -12.328   0.662  1.00  0.00    -0.305 N 
HETATM   30  C   UNL     1      38.481 -11.156  -0.035  1.00  0.00     0.232 C 
HETATM   31  O   UNL     1      39.250 -10.201  -0.095  1.00  0.00    -0.272 OA
HETATM   32  H   UNL     1      37.897 -12.984   0.700  1.00  0.00     0.171 HD
BRANCH  30  33
HETATM   33  C   UNL     1      37.199 -11.154  -0.860  1.00  0.00     0.176 C 
BRANCH  33  34
HETATM   34  S   UNL     1      37.503 -11.474  -2.630  1.00  0.00    -0.164 SA
HETATM   35  C   UNL     1      37.416 -13.284  -2.604  1.00  0.00     0.090 C 
ENDBRANCH  33  34
ENDBRANCH  30  33
ENDBRANCH   7  29
BRANCH  13  36
HETATM   36  O   UNL     1      44.198 -16.456   6.254  1.00  0.00    -0.395 OA
HETATM   37  H   UNL     1      44.268 -16.460   7.225  1.00  0.00     0.210 HD
ENDBRANCH  13  36
TORSDOF 9
ENDMDL
MODEL 8
REMARK VINA RESULT:      -7.5      3.924      9.087
REMARK  9 active torsions:
REMARK  status: ('A' for Active; 'I' for Inactive)
REMARK    1  A    between atoms: C_3  and  C_4 
REMARK    2  A    between atoms: C_4  and  C_5 
REMARK       I    between atoms: C_5  and  N_6 
REMARK    3  A    between atoms: N_6  and  C_7 
REMARK    4  A    between atoms: C_16  and  N_17 
REMARK       I    between atoms: N_17  and  C_18 
REMARK    5  A    between atoms: C_18  and  C_19 
REMARK    6  A    between atoms: C_19  and  S_20 
REMARK    7  A    between atoms: C_26  and  C_27 
REMARK    8  A    between atoms: C_27  and  O_28 
REMARK    9  A    between atoms: C_30  and  O_31 
ROOT
HETATM    1  C   UNL     1      38.122 -11.347   1.881  1.00  0.00     0.016 C 
HETATM    2  C   UNL     1      39.506 -11.958   1.470  1.00  0.00    -0.030 C 
HETATM    3  C   UNL     1      40.602 -10.935   2.073  1.00  0.00     0.056 C 
HETATM    4  C   UNL     1      41.094 -11.403   3.430  1.00  0.00     0.056 A 
HETATM    5  C   UNL     1      40.620 -12.512   4.095  1.00  0.00     0.012 A 
HETATM    6  S   UNL     1      41.380 -12.677   5.608  1.00  0.00    -0.055 SA
HETATM    7  C   UNL     1      42.308 -11.290   5.279  1.00  0.00     0.173 A 
HETATM    8  N   UNL     1      42.091 -10.721   4.113  1.00  0.00    -0.227 NA
HETATM    9  C   UNL     1      39.591 -13.457   3.603  1.00  0.00     0.055 C 
HETATM   10  C   UNL     1      39.543 -13.447   2.055  1.00  0.00     0.012 C 
HETATM   11  C   UNL     1      40.551 -14.458   1.362  1.00  0.00     0.008 C 
HETATM   12  C   UNL     1      40.205 -15.912   1.796  1.00  0.00     0.020 C 
HETATM   13  C   UNL     1      40.384 -14.376  -0.184  1.00  0.00     0.128 C 
HETATM   14  C   UNL     1      40.500 -12.950  -0.713  1.00  0.00     0.033 C 
HETATM   15  C   UNL     1      39.465 -12.022  -0.080  1.00  0.00     0.013 C 
ENDROOT
BRANCH   3  16
HETATM   16  C   UNL     1      41.761 -10.517   1.147  1.00  0.00     0.114 C 
BRANCH  16  17
HETATM   17  C   UNL     1      41.452  -9.279   0.319  1.00  0.00     0.218 C 
HETATM   18  N   UNL     1      42.123  -9.230  -0.879  1.00  0.00    -0.356 N 
HETATM   19  H   UNL     1      43.034  -9.686  -0.861  1.00  0.00     0.162 HD
HETATM   20  O   UNL     1      40.640  -8.436   0.687  1.00  0.00    -0.274 OA
BRANCH  18  21
HETATM   21  C   UNL     1      41.926  -8.153  -1.820  1.00  0.00     0.084 C 
HETATM   22  C   UNL     1      43.205  -7.399  -2.162  1.00  0.00     0.025 C 
HETATM   23  C   UNL     1      42.836  -6.656  -3.440  1.00  0.00     0.002 C 
HETATM   24  C   UNL     1      41.815  -7.540  -4.155  1.00  0.00     0.002 C 
HETATM   25  C   UNL     1      41.463  -8.661  -3.181  1.00  0.00     0.025 C 
ENDBRANCH  18  21
ENDBRANCH  16  17
ENDBRANCH   3  16
BRANCH  11  26
HETATM   26  C   UNL     1      42.030 -14.218   1.747  1.00  0.00     0.176 C 
BRANCH  26  27
HETATM   27  O   UNL     1      42.903 -15.123   1.077  1.00  0.00    -0.400 OA
HETATM   28  H   UNL     1      43.811 -14.924   1.363  1.00  0.00     0.209 HD
ENDBRANCH  26  27
ENDBRANCH  11  26
BRANCH   7  29
HETATM   29  N   UNL     1      43.252 -10.799   6.140  1.00  0.00    -0.305 N 
HETATM   30  C   UNL     1      44.348 -11.457   6.651  1.00  0.00     0.232 C 
HETATM   31  O   UNL     1      44.674 -12.622   6.440  1.00  0.00    -0.272 OA
HETATM   32  H   UNL     1      43.057  -9.867   6.488  1.00  0.00     0.171 HD
BRANCH  30  33
HETATM   33  C   UNL     1      45.245 -10.556   7.491  1.00  0.00     0.176 C 
BRANCH  33  34
HETATM   34  S   UNL     1      44.299  -9.454   8.593  1.00  0.00    -0.164 SA
HETATM   35  C   UNL     1      45.186  -9.777  10.139  1.00  0.00     0.090 C 
ENDBRANCH  33  34
ENDBRANCH  30  33
ENDBRANCH   7  29
BRANCH  13  36
HETATM   36  O   UNL     1      39.096 -14.868  -0.573  1.00  0.00    -0.395 OA
HETATM   37  H   UNL     1      39.178 -15.831  -0.690  1.00  0.00     0.210 HD
ENDBRANCH  13  36
TORSDOF 9
ENDMDL
MODEL 9
REMARK VINA RESULT:      -7.3     15.764     18.018
REMARK  9 active torsions:
REMARK  status: ('A' for Active; 'I' for Inactive)
REMARK    1  A    between atoms: C_3  and  C_4 
REMARK    2  A    between atoms: C_4  and  C_5 
REMARK       I    between atoms: C_5  and  N_6 
REMARK    3  A    between atoms: N_6  and  C_7 
REMARK    4  A    between atoms: C_16  and  N_17 
REMARK       I    between atoms: N_17  and  C_18 
REMARK    5  A    between atoms: C_18  and  C_19 
REMARK    6  A    between atoms: C_19  and  S_20 
REMARK    7  A    between atoms: C_26  and  C_27 
REMARK    8  A    between atoms: C_27  and  O_28 
REMARK    9  A    between atoms: C_30  and  O_31 
ROOT
HETATM    1  C   UNL     1      44.235 -31.854  -1.584  1.00  0.00     0.016 C 
HETATM    2  C   UNL     1      44.850 -30.578  -0.912  1.00  0.00    -0.030 C 
HETATM    3  C   UNL     1      44.529 -30.747   0.663  1.00  0.00     0.056 C 
HETATM    4  C   UNL     1      45.701 -31.376   1.393  1.00  0.00     0.056 A 
HETATM    5  C   UNL     1      46.858 -31.813   0.786  1.00  0.00     0.012 A 
HETATM    6  S   UNL     1      47.912 -32.506   1.928  1.00  0.00    -0.055 SA
HETATM    7  C   UNL     1      46.786 -32.161   3.156  1.00  0.00     0.173 A 
HETATM    8  N   UNL     1      45.684 -31.558   2.768  1.00  0.00    -0.227 NA
HETATM    9  C   UNL     1      47.184 -31.716  -0.655  1.00  0.00     0.055 C 
HETATM   10  C   UNL     1      46.400 -30.552  -1.311  1.00  0.00     0.012 C 
HETATM   11  C   UNL     1      47.130 -29.144  -1.231  1.00  0.00     0.008 C 
HETATM   12  C   UNL     1      48.491 -29.225  -1.981  1.00  0.00     0.020 C 
HETATM   13  C   UNL     1      46.261 -28.070  -1.948  1.00  0.00     0.128 C 
HETATM   14  C   UNL     1      44.826 -28.035  -1.433  1.00  0.00     0.033 C 
HETATM   15  C   UNL     1      44.129 -29.386  -1.595  1.00  0.00     0.013 C 
ENDROOT
BRANCH   3  16
HETATM   16  C   UNL     1      43.975 -29.516   1.405  1.00  0.00     0.114 C 
BRANCH  16  17
HETATM   17  C   UNL     1      42.541 -29.694   1.879  1.00  0.00     0.218 C 
HETATM   18  N   UNL     1      42.391 -30.658   2.846  1.00  0.00    -0.356 N 
HETATM   19  H   UNL     1      43.063 -31.422   2.776  1.00  0.00     0.162 HD
HETATM   20  O   UNL     1      41.623 -28.997   1.455  1.00  0.00    -0.274 OA
BRANCH  18  21
HETATM   21  C   UNL     1      41.111 -30.940   3.450  1.00  0.00     0.084 C 
HETATM   22  C   UNL     1      40.505 -32.267   3.009  1.00  0.00     0.025 C 
HETATM   23  C   UNL     1      39.442 -32.531   4.068  1.00  0.00     0.002 C 
HETATM   24  C   UNL     1      39.971 -31.897   5.355  1.00  0.00     0.002 C 
HETATM   25  C   UNL     1      41.217 -31.107   4.962  1.00  0.00     0.025 C 
ENDBRANCH  18  21
ENDBRANCH  16  17
ENDBRANCH   3  16
BRANCH  11  26
HETATM   26  C   UNL     1      47.443 -28.691   0.215  1.00  0.00     0.176 C 
BRANCH  26  27
HETATM   27  O   UNL     1      48.827 -28.833   0.523  1.00  0.00    -0.400 OA
HETATM   28  H   UNL     1      49.139 -27.983   0.881  1.00  0.00     0.209 HD
ENDBRANCH  26  27
ENDBRANCH  11  26
BRANCH   7  29
HETATM   29  N   UNL     1      47.007 -32.450   4.475  1.00  0.00    -0.305 N 
HETATM   30  C   UNL     1      47.067 -31.570   5.532  1.00  0.00     0.232 C 
HETATM   31  O   UNL     1      46.950 -30.348   5.482  1.00  0.00    -0.272 OA
HETATM   32  H   UNL     1      47.226 -33.423   4.659  1.00  0.00     0.171 HD
BRANCH  30  33
HETATM   33  C   UNL     1      47.215 -32.265   6.880  1.00  0.00     0.176 C 
BRANCH  33  34
HETATM   34  S   UNL     1      45.828 -33.394   7.243  1.00  0.00    -0.164 SA
HETATM   35  C   UNL     1      44.465 -32.205   7.129  1.00  0.00     0.090 C 
ENDBRANCH  33  34
ENDBRANCH  30  33
ENDBRANCH   7  29
BRANCH  13  36
HETATM   36  O   UNL     1      46.199 -28.336  -3.354  1.00  0.00    -0.395 OA
HETATM   37  H   UNL     1      46.917 -28.958  -3.562  1.00  0.00     0.210 HD
ENDBRANCH  13  36
TORSDOF 9
ENDMDL
MODEL 10
REMARK VINA RESULT:      -7.2      9.193     13.406
REMARK  9 active torsions:
REMARK  status: ('A' for Active; 'I' for Inactive)
REMARK    1  A    between atoms: C_3  and  C_4 
REMARK    2  A    between atoms: C_4  and  C_5 
REMARK       I    between atoms: C_5  and  N_6 
REMARK    3  A    between atoms: N_6  and  C_7 
REMARK    4  A    between atoms: C_16  and  N_17 
REMARK       I    between atoms: N_17  and  C_18 
REMARK    5  A    between atoms: C_18  and  C_19 
REMARK    6  A    between atoms: C_19  and  S_20 
REMARK    7  A    between atoms: C_26  and  C_27 
REMARK    8  A    between atoms: C_27  and  O_28 
REMARK    9  A    between atoms: C_30  and  O_31 
ROOT
HETATM    1  C   UNL     1      42.780  -5.833  10.160  1.00  0.00     0.016 C 
HETATM    2  C   UNL     1      41.639  -6.735  10.748  1.00  0.00    -0.030 C 
HETATM    3  C   UNL     1      42.322  -7.497  11.998  1.00  0.00     0.056 C 
HETATM    4  C   UNL     1      42.053  -6.762  13.298  1.00  0.00     0.056 A 
HETATM    5  C   UNL     1      41.377  -5.565  13.394  1.00  0.00     0.012 A 
HETATM    6  S   UNL     1      41.324  -5.032  15.009  1.00  0.00    -0.055 SA
HETATM    7  C   UNL     1      42.171  -6.429  15.484  1.00  0.00     0.173 A 
HETATM    8  N   UNL     1      42.482  -7.265  14.517  1.00  0.00    -0.227 NA
HETATM    9  C   UNL     1      40.767  -4.809  12.276  1.00  0.00     0.055 C 
HETATM   10  C   UNL     1      40.421  -5.760  11.104  1.00  0.00     0.012 C 
HETATM   11  C   UNL     1      38.984  -6.427  11.205  1.00  0.00     0.008 C 
HETATM   12  C   UNL     1      37.896  -5.314  11.194  1.00  0.00     0.020 C 
HETATM   13  C   UNL     1      38.745  -7.330   9.959  1.00  0.00     0.128 C 
HETATM   14  C   UNL     1      39.866  -8.342   9.743  1.00  0.00     0.033 C 
HETATM   15  C   UNL     1      41.224  -7.661   9.574  1.00  0.00     0.013 C 
ENDROOT
BRANCH   3  16
HETATM   16  C   UNL     1      42.069  -9.012  12.124  1.00  0.00     0.114 C 
BRANCH  16  17
HETATM   17  C   UNL     1      43.170  -9.859  11.507  1.00  0.00     0.218 C 
HETATM   18  N   UNL     1      43.701  -9.329  10.356  1.00  0.00    -0.356 N 
HETATM   19  H   UNL     1      43.039  -8.779   9.811  1.00  0.00     0.162 HD
HETATM   20  O   UNL     1      43.566 -10.896  12.031  1.00  0.00    -0.274 OA
BRANCH  18  21
HETATM   21  C   UNL     1      44.787  -9.968   9.651  1.00  0.00     0.084 C 
HETATM   22  C   UNL     1      44.332 -10.827   8.477  1.00  0.00     0.025 C 
HETATM   23  C   UNL     1      45.611 -11.012   7.669  1.00  0.00     0.002 C 
HETATM   24  C   UNL     1      46.433  -9.743   7.896  1.00  0.00     0.002 C 
HETATM   25  C   UNL     1      45.712  -8.955   8.986  1.00  0.00     0.025 C 
ENDBRANCH  18  21
ENDBRANCH  16  17
ENDBRANCH   3  16
BRANCH  11  26
HETATM   26  C   UNL     1      38.772  -7.246  12.500  1.00  0.00     0.176 C 
BRANCH  26  27
HETATM   27  O   UNL     1      37.389  -7.455  12.771  1.00  0.00    -0.400 OA
HETATM   28  H   UNL     1      37.106  -6.773  13.404  1.00  0.00     0.209 HD
ENDBRANCH  26  27
ENDBRANCH  11  26
BRANCH   7  29
HETATM   29  N   UNL     1      42.488  -6.705  16.786  1.00  0.00    -0.305 N 
HETATM   30  C   UNL     1      41.687  -7.287  17.743  1.00  0.00     0.232 C 
HETATM   31  O   UNL     1      40.523  -7.653  17.607  1.00  0.00    -0.272 OA
HETATM   32  H   UNL     1      43.397  -6.362  17.077  1.00  0.00     0.171 HD
BRANCH  30  33
HETATM   33  C   UNL     1      42.418  -7.545  19.055  1.00  0.00     0.176 C 
BRANCH  33  34
HETATM   34  S   UNL     1      42.410  -6.093  20.160  1.00  0.00    -0.164 SA
HETATM   35  C   UNL     1      40.793  -6.343  20.938  1.00  0.00     0.090 C 
ENDBRANCH  33  34
ENDBRANCH  30  33
ENDBRANCH   7  29
BRANCH  13  36
HETATM   36  O   UNL     1      38.661  -6.532   8.773  1.00  0.00    -0.395 OA
HETATM   37  H   UNL     1      39.257  -5.772   8.893  1.00  0.00     0.210 HD
ENDBRANCH  13  36
TORSDOF 9
ENDMDL
