MODEL 1
REMARK VINA RESULT:      -8.6      0.000      0.000
REMARK  6 active torsions:
REMARK  status: ('A' for Active; 'I' for Inactive)
REMARK    1  A    between atoms: C_2  and  C_3 
REMARK    2  A    between atoms: C_3  and  C_4 
REMARK    3  A    between atoms: C_7  and  C_8 
REMARK    4  A    between atoms: C_8  and  C_9 
REMARK       I    between atoms: C_9  and  N_10 
REMARK    5  A    between atoms: N_10  and  C_11 
REMARK    6  A    between atoms: C_18  and  C_19 
REMARK       I    between atoms: C_19  and  N_20 
ROOT
HETATM    1  C   UNL     1      43.728 -12.165   7.065  1.00  0.00     0.035 A 
HETATM    2  C   UNL     1      43.445 -11.009   7.805  1.00  0.00     0.046 A 
HETATM    3  C   UNL     1      44.435 -10.012   7.949  1.00  0.00     0.030 A 
HETATM    4  C   UNL     1      45.674 -10.207   7.352  1.00  0.00     0.063 A 
HETATM    5  N   UNL     1      46.405  -9.094   7.663  1.00  0.00    -0.277 N 
HETATM    6  H   UNL     1      47.361  -8.893   7.392  1.00  0.00     0.189 HD
HETATM    7  N   UNL     1      45.753  -8.190   8.410  1.00  0.00    -0.168 NA
HETATM    8  C   UNL     1      44.532  -8.742   8.596  1.00  0.00     0.156 A 
HETATM    9  C   UNL     1      45.991 -11.345   6.608  1.00  0.00     0.034 A 
HETATM   10  C   UNL     1      44.992 -12.317   6.477  1.00  0.00     0.032 A 
ENDROOT
BRANCH   1  11
HETATM   11  N   UNL     1      42.798 -13.207   6.851  1.00  0.00    -0.327 N 
HETATM   12  C   UNL     1      41.686 -13.190   6.026  1.00  0.00     0.226 C 
HETATM   13  O   UNL     1      41.280 -12.238   5.368  1.00  0.00    -0.273 OA
HETATM   14  H   UNL     1      42.931 -14.047   7.402  1.00  0.00     0.169 HD
BRANCH  12  15
HETATM   15  C   UNL     1      40.977 -14.534   5.954  1.00  0.00     0.141 C 
BRANCH  15  16
HETATM   16  C   UNL     1      41.733 -15.615   5.219  1.00  0.00    -0.049 A 
HETATM   17  C   UNL     1      41.817 -15.624   3.820  1.00  0.00     0.008 A 
HETATM   18  C   UNL     1      42.570 -16.598   3.159  1.00  0.00     0.007 A 
HETATM   19  C   UNL     1      43.276 -17.569   3.880  1.00  0.00    -0.058 A 
HETATM   20  C   UNL     1      43.198 -17.556   5.277  1.00  0.00     0.007 A 
HETATM   21  C   UNL     1      42.439 -16.588   5.940  1.00  0.00     0.008 A 
BRANCH  19  22
HETATM   22  C   UNL     1      44.115 -18.601   3.166  1.00  0.00     0.042 C 
BRANCH  22  23
HETATM   23  C   UNL     1      43.474 -19.993   2.977  1.00  0.00    -0.019 C 
HETATM   24  C   UNL     1      43.941 -21.011   4.019  1.00  0.00     0.010 C 
HETATM   25  C   UNL     1      43.663 -20.550   1.566  1.00  0.00     0.010 C 
ENDBRANCH  22  23
ENDBRANCH  19  22
ENDBRANCH  15  16
ENDBRANCH  12  15
ENDBRANCH   1  11
BRANCH   8  26
HETATM   26  C   UNL     1      43.495  -8.050   9.375  1.00  0.00     0.270 C 
HETATM   27  N   UNL     1      43.287  -6.750   8.998  1.00  0.00    -0.365 N 
HETATM   28  H   UNL     1      43.839  -6.372   8.237  1.00  0.00     0.159 HD
HETATM   29  H   UNL     1      42.594  -6.198   9.475  1.00  0.00     0.159 HD
HETATM   30  O   UNL     1      42.850  -8.555  10.287  1.00  0.00    -0.266 OA
ENDBRANCH   8  26
TORSDOF 6
ENDMDL
MODEL 2
REMARK VINA RESULT:      -8.6      2.902      9.544
REMARK  6 active torsions:
REMARK  status: ('A' for Active; 'I' for Inactive)
REMARK    1  A    between atoms: C_2  and  C_3 
REMARK    2  A    between atoms: C_3  and  C_4 
REMARK    3  A    between atoms: C_7  and  C_8 
REMARK    4  A    between atoms: C_8  and  C_9 
REMARK       I    between atoms: C_9  and  N_10 
REMARK    5  A    between atoms: N_10  and  C_11 
REMARK    6  A    between atoms: C_18  and  C_19 
REMARK       I    between atoms: C_19  and  N_20 
ROOT
HETATM    1  C   UNL     1      43.431 -12.763   6.733  1.00  0.00     0.035 A 
HETATM    2  C   UNL     1      43.552 -14.153   6.602  1.00  0.00     0.046 A 
HETATM    3  C   UNL     1      42.536 -14.885   5.950  1.00  0.00     0.030 A 
HETATM    4  C   UNL     1      41.433 -14.204   5.452  1.00  0.00     0.063 A 
HETATM    5  N   UNL     1      40.639 -15.162   4.888  1.00  0.00    -0.277 N 
HETATM    6  H   UNL     1      39.747 -15.026   4.426  1.00  0.00     0.189 HD
HETATM    7  N   UNL     1      41.125 -16.410   4.972  1.00  0.00    -0.168 NA
HETATM    8  C   UNL     1      42.300 -16.257   5.626  1.00  0.00     0.156 A 
HETATM    9  C   UNL     1      41.278 -12.820   5.563  1.00  0.00     0.034 A 
HETATM   10  C   UNL     1      42.301 -12.117   6.211  1.00  0.00     0.032 A 
ENDROOT
BRANCH   1  11
HETATM   11  N   UNL     1      44.401 -11.945   7.353  1.00  0.00    -0.327 N 
HETATM   12  C   UNL     1      45.377 -11.179   6.738  1.00  0.00     0.226 C 
HETATM   13  O   UNL     1      45.605 -11.116   5.534  1.00  0.00    -0.273 OA
HETATM   14  H   UNL     1      44.419 -11.958   8.366  1.00  0.00     0.169 HD
BRANCH  12  15
HETATM   15  C   UNL     1      46.175 -10.332   7.718  1.00  0.00     0.141 C 
BRANCH  15  16
HETATM   16  C   UNL     1      45.351  -9.620   8.764  1.00  0.00    -0.049 A 
HETATM   17  C   UNL     1      44.533  -8.533   8.431  1.00  0.00     0.008 A 
HETATM   18  C   UNL     1      43.731  -7.922   9.399  1.00  0.00     0.007 A 
HETATM   19  C   UNL     1      43.710  -8.401  10.716  1.00  0.00    -0.058 A 
HETATM   20  C   UNL     1      44.521  -9.492  11.047  1.00  0.00     0.007 A 
HETATM   21  C   UNL     1      45.329 -10.098  10.081  1.00  0.00     0.008 A 
BRANCH  19  22
HETATM   22  C   UNL     1      42.820  -7.762  11.754  1.00  0.00     0.042 C 
BRANCH  22  23
HETATM   23  C   UNL     1      43.059  -8.190  13.219  1.00  0.00    -0.019 C 
HETATM   24  C   UNL     1      41.985  -9.145  13.743  1.00  0.00     0.010 C 
HETATM   25  C   UNL     1      43.227  -7.003  14.167  1.00  0.00     0.010 C 
ENDBRANCH  22  23
ENDBRANCH  19  22
ENDBRANCH  15  16
ENDBRANCH  12  15
ENDBRANCH   1  11
BRANCH   8  26
HETATM   26  C   UNL     1      43.163 -17.410   5.920  1.00  0.00     0.270 C 
HETATM   27  N   UNL     1      43.230 -17.732   7.249  1.00  0.00    -0.365 N 
HETATM   28  H   UNL     1      42.699 -17.178   7.910  1.00  0.00     0.159 HD
HETATM   29  H   UNL     1      43.796 -18.510   7.544  1.00  0.00     0.159 HD
HETATM   30  O   UNL     1      43.784 -18.052   5.081  1.00  0.00    -0.266 OA
ENDBRANCH   8  26
TORSDOF 6
ENDMDL
MODEL 3
REMARK VINA RESULT:      -8.3      1.834      2.351
REMARK  6 active torsions:
REMARK  status: ('A' for Active; 'I' for Inactive)
REMARK    1  A    between atoms: C_2  and  C_3 
REMARK    2  A    between atoms: C_3  and  C_4 
REMARK    3  A    between atoms: C_7  and  C_8 
REMARK    4  A    between atoms: C_8  and  C_9 
REMARK       I    between atoms: C_9  and  N_10 
REMARK    5  A    between atoms: N_10  and  C_11 
REMARK    6  A    between atoms: C_18  and  C_19 
REMARK       I    between atoms: C_19  and  N_20 
ROOT
HETATM    1  C   UNL     1      44.321 -11.316   6.258  1.00  0.00     0.035 A 
HETATM    2  C   UNL     1      43.427 -10.826   7.219  1.00  0.00     0.046 A 
HETATM    3  C   UNL     1      43.923 -10.289   8.427  1.00  0.00     0.030 A 
HETATM    4  C   UNL     1      45.295 -10.263   8.635  1.00  0.00     0.063 A 
HETATM    5  N   UNL     1      45.465  -9.699   9.868  1.00  0.00    -0.277 N 
HETATM    6  H   UNL     1      46.341  -9.522  10.347  1.00  0.00     0.189 HD
HETATM    7  N   UNL     1      44.324  -9.353  10.485  1.00  0.00    -0.168 NA
HETATM    8  C   UNL     1      43.359  -9.711   9.606  1.00  0.00     0.156 A 
HETATM    9  C   UNL     1      46.217 -10.742   7.702  1.00  0.00     0.034 A 
HETATM   10  C   UNL     1      45.700 -11.266   6.511  1.00  0.00     0.032 A 
ENDROOT
BRANCH   1  11
HETATM   11  N   UNL     1      43.922 -11.854   5.015  1.00  0.00    -0.327 N 
HETATM   12  C   UNL     1      42.631 -12.059   4.559  1.00  0.00     0.226 C 
HETATM   13  O   UNL     1      41.595 -11.852   5.183  1.00  0.00    -0.273 OA
HETATM   14  H   UNL     1      44.666 -12.176   4.405  1.00  0.00     0.169 HD
BRANCH  12  15
HETATM   15  C   UNL     1      42.579 -12.551   3.120  1.00  0.00     0.141 C 
BRANCH  15  16
HETATM   16  C   UNL     1      42.637 -14.052   2.957  1.00  0.00    -0.049 A 
HETATM   17  C   UNL     1      41.912 -14.906   3.798  1.00  0.00     0.008 A 
HETATM   18  C   UNL     1      41.931 -16.288   3.596  1.00  0.00     0.007 A 
HETATM   19  C   UNL     1      42.654 -16.846   2.535  1.00  0.00    -0.058 A 
HETATM   20  C   UNL     1      43.373 -15.993   1.690  1.00  0.00     0.007 A 
HETATM   21  C   UNL     1      43.361 -14.611   1.895  1.00  0.00     0.008 A 
BRANCH  19  22
HETATM   22  C   UNL     1      42.648 -18.337   2.297  1.00  0.00     0.042 C 
BRANCH  22  23
HETATM   23  C   UNL     1      43.949 -19.092   2.646  1.00  0.00    -0.019 C 
HETATM   24  C   UNL     1      43.924 -20.557   2.207  1.00  0.00     0.010 C 
HETATM   25  C   UNL     1      44.324 -18.984   4.124  1.00  0.00     0.010 C 
ENDBRANCH  22  23
ENDBRANCH  19  22
ENDBRANCH  15  16
ENDBRANCH  12  15
ENDBRANCH   1  11
BRANCH   8  26
HETATM   26  C   UNL     1      41.937  -9.491   9.907  1.00  0.00     0.270 C 
HETATM   27  N   UNL     1      41.515 -10.080  11.068  1.00  0.00    -0.365 N 
HETATM   28  H   UNL     1      42.185 -10.603  11.618  1.00  0.00     0.159 HD
HETATM   29  H   UNL     1      40.555  -9.982  11.355  1.00  0.00     0.159 HD
HETATM   30  O   UNL     1      41.165  -8.845   9.207  1.00  0.00    -0.266 OA
ENDBRANCH   8  26
TORSDOF 6
ENDMDL
MODEL 4
REMARK VINA RESULT:      -7.9      3.346      9.277
REMARK  6 active torsions:
REMARK  status: ('A' for Active; 'I' for Inactive)
REMARK    1  A    between atoms: C_2  and  C_3 
REMARK    2  A    between atoms: C_3  and  C_4 
REMARK    3  A    between atoms: C_7  and  C_8 
REMARK    4  A    between atoms: C_8  and  C_9 
REMARK       I    between atoms: C_9  and  N_10 
REMARK    5  A    between atoms: N_10  and  C_11 
REMARK    6  A    between atoms: C_18  and  C_19 
REMARK       I    between atoms: C_19  and  N_20 
ROOT
HETATM    1  C   UNL     1      43.588 -13.543   6.459  1.00  0.00     0.035 A 
HETATM    2  C   UNL     1      42.683 -13.293   5.419  1.00  0.00     0.046 A 
HETATM    3  C   UNL     1      41.839 -14.330   4.962  1.00  0.00     0.030 A 
HETATM    4  C   UNL     1      41.931 -15.580   5.559  1.00  0.00     0.063 A 
HETATM    5  N   UNL     1      41.009 -16.358   4.917  1.00  0.00    -0.277 N 
HETATM    6  H   UNL     1      40.799 -17.334   5.092  1.00  0.00     0.189 HD
HETATM    7  N   UNL     1      40.321 -15.726   3.953  1.00  0.00    -0.168 NA
HETATM    8  C   UNL     1      40.823 -14.469   3.968  1.00  0.00     0.156 A 
HETATM    9  C   UNL     1      42.820 -15.866   6.598  1.00  0.00     0.034 A 
HETATM   10  C   UNL     1      43.643 -14.821   7.034  1.00  0.00     0.032 A 
ENDROOT
BRANCH   1  11
HETATM   11  N   UNL     1      44.458 -12.568   6.994  1.00  0.00    -0.327 N 
HETATM   12  C   UNL     1      45.028 -11.492   6.335  1.00  0.00     0.226 C 
HETATM   13  O   UNL     1      44.915 -11.222   5.143  1.00  0.00    -0.273 OA
HETATM   14  H   UNL     1      44.740 -12.698   7.959  1.00  0.00     0.169 HD
BRANCH  12  15
HETATM   15  C   UNL     1      45.824 -10.581   7.258  1.00  0.00     0.141 C 
BRANCH  15  16
HETATM   16  C   UNL     1      45.024  -9.943   8.369  1.00  0.00    -0.049 A 
HETATM   17  C   UNL     1      45.378 -10.114   9.714  1.00  0.00     0.008 A 
HETATM   18  C   UNL     1      44.663  -9.469  10.725  1.00  0.00     0.007 A 
HETATM   19  C   UNL     1      43.594  -8.618  10.416  1.00  0.00    -0.058 A 
HETATM   20  C   UNL     1      43.244  -8.441   9.072  1.00  0.00     0.007 A 
HETATM   21  C   UNL     1      43.954  -9.092   8.059  1.00  0.00     0.008 A 
BRANCH  19  22
HETATM   22  C   UNL     1      42.842  -7.896  11.507  1.00  0.00     0.042 C 
BRANCH  22  23
HETATM   23  C   UNL     1      43.137  -8.344  12.955  1.00  0.00    -0.019 C 
HETATM   24  C   UNL     1      42.154  -9.401  13.463  1.00  0.00     0.010 C 
HETATM   25  C   UNL     1      43.218  -7.176  13.937  1.00  0.00     0.010 C 
ENDBRANCH  22  23
ENDBRANCH  19  22
ENDBRANCH  15  16
ENDBRANCH  12  15
ENDBRANCH   1  11
BRANCH   8  26
HETATM   26  C   UNL     1      40.322 -13.439   3.046  1.00  0.00     0.270 C 
HETATM   27  N   UNL     1      38.967 -13.469   2.858  1.00  0.00    -0.365 N 
HETATM   28  H   UNL     1      38.424 -14.168   3.350  1.00  0.00     0.159 HD
HETATM   29  H   UNL     1      38.535 -12.798   2.243  1.00  0.00     0.159 HD
HETATM   30  O   UNL     1      41.022 -12.610   2.476  1.00  0.00    -0.266 OA
ENDBRANCH   8  26
TORSDOF 6
ENDMDL
MODEL 5
REMARK VINA RESULT:      -7.8      5.844      8.416
REMARK  6 active torsions:
REMARK  status: ('A' for Active; 'I' for Inactive)
REMARK    1  A    between atoms: C_2  and  C_3 
REMARK    2  A    between atoms: C_3  and  C_4 
REMARK    3  A    between atoms: C_7  and  C_8 
REMARK    4  A    between atoms: C_8  and  C_9 
REMARK       I    between atoms: C_9  and  N_10 
REMARK    5  A    between atoms: N_10  and  C_11 
REMARK    6  A    between atoms: C_18  and  C_19 
REMARK       I    between atoms: C_19  and  N_20 
ROOT
HETATM    1  C   UNL     1      39.751 -11.975   1.385  1.00  0.00     0.035 A 
HETATM    2  C   UNL     1      39.492 -12.384   0.071  1.00  0.00     0.046 A 
HETATM    3  C   UNL     1      38.420 -11.806  -0.644  1.00  0.00     0.030 A 
HETATM    4  C   UNL     1      37.643 -10.839  -0.019  1.00  0.00     0.063 A 
HETATM    5  N   UNL     1      36.703 -10.475  -0.943  1.00  0.00    -0.277 N 
HETATM    6  H   UNL     1      35.966  -9.789  -0.831  1.00  0.00     0.189 HD
HETATM    7  N   UNL     1      36.799 -11.118  -2.117  1.00  0.00    -0.168 NA
HETATM    8  C   UNL     1      37.857 -11.945  -1.949  1.00  0.00     0.156 A 
HETATM    9  C   UNL     1      37.870 -10.406   1.289  1.00  0.00     0.034 A 
HETATM   10  C   UNL     1      38.941 -10.993   1.974  1.00  0.00     0.032 A 
ENDROOT
BRANCH   1  11
HETATM   11  N   UNL     1      40.809 -12.482   2.172  1.00  0.00    -0.327 N 
HETATM   12  C   UNL     1      42.034 -11.888   2.424  1.00  0.00     0.226 C 
HETATM   13  O   UNL     1      42.439 -10.826   1.961  1.00  0.00    -0.273 OA
HETATM   14  H   UNL     1      40.677 -13.411   2.555  1.00  0.00     0.169 HD
BRANCH  12  15
HETATM   15  C   UNL     1      42.884 -12.672   3.412  1.00  0.00     0.141 C 
BRANCH  15  16
HETATM   16  C   UNL     1      42.906 -14.166   3.189  1.00  0.00    -0.049 A 
HETATM   17  C   UNL     1      42.321 -15.049   4.106  1.00  0.00     0.008 A 
HETATM   18  C   UNL     1      42.299 -16.423   3.856  1.00  0.00     0.007 A 
HETATM   19  C   UNL     1      42.838 -16.944   2.673  1.00  0.00    -0.058 A 
HETATM   20  C   UNL     1      43.416 -16.062   1.753  1.00  0.00     0.007 A 
HETATM   21  C   UNL     1      43.446 -14.688   2.006  1.00  0.00     0.008 A 
BRANCH  19  22
HETATM   22  C   UNL     1      42.784 -18.426   2.388  1.00  0.00     0.042 C 
BRANCH  22  23
HETATM   23  C   UNL     1      44.025 -19.248   2.802  1.00  0.00    -0.019 C 
HETATM   24  C   UNL     1      43.801 -20.758   2.694  1.00  0.00     0.010 C 
HETATM   25  C   UNL     1      44.546 -18.883   4.191  1.00  0.00     0.010 C 
ENDBRANCH  22  23
ENDBRANCH  19  22
ENDBRANCH  15  16
ENDBRANCH  12  15
ENDBRANCH   1  11
BRANCH   8  26
HETATM   26  C   UNL     1      38.304 -12.837  -3.029  1.00  0.00     0.270 C 
HETATM   27  N   UNL     1      37.306 -13.602  -3.569  1.00  0.00    -0.365 N 
HETATM   28  H   UNL     1      36.367 -13.503  -3.204  1.00  0.00     0.159 HD
HETATM   29  H   UNL     1      37.519 -14.243  -4.317  1.00  0.00     0.159 HD
HETATM   30  O   UNL     1      39.456 -12.918  -3.439  1.00  0.00    -0.266 OA
ENDBRANCH   8  26
TORSDOF 6
ENDMDL
MODEL 6
REMARK VINA RESULT:      -7.8      1.896      2.943
REMARK  6 active torsions:
REMARK  status: ('A' for Active; 'I' for Inactive)
REMARK    1  A    between atoms: C_2  and  C_3 
REMARK    2  A    between atoms: C_3  and  C_4 
REMARK    3  A    between atoms: C_7  and  C_8 
REMARK    4  A    between atoms: C_8  and  C_9 
REMARK       I    between atoms: C_9  and  N_10 
REMARK    5  A    between atoms: N_10  and  C_11 
REMARK    6  A    between atoms: C_18  and  C_19 
REMARK       I    between atoms: C_19  and  N_20 
ROOT
HETATM    1  C   UNL     1      41.231 -11.443   5.759  1.00  0.00     0.035 A 
HETATM    2  C   UNL     1      42.494 -11.377   6.362  1.00  0.00     0.046 A 
HETATM    3  C   UNL     1      42.862 -10.224   7.089  1.00  0.00     0.030 A 
HETATM    4  C   UNL     1      41.956  -9.176   7.186  1.00  0.00     0.063 A 
HETATM    5  N   UNL     1      42.586  -8.221   7.935  1.00  0.00    -0.277 N 
HETATM    6  H   UNL     1      42.220  -7.316   8.209  1.00  0.00     0.189 HD
HETATM    7  N   UNL     1      43.823  -8.553   8.336  1.00  0.00    -0.168 NA
HETATM    8  C   UNL     1      44.010  -9.790   7.821  1.00  0.00     0.156 A 
HETATM    9  C   UNL     1      40.690  -9.206   6.600  1.00  0.00     0.034 A 
HETATM   10  C   UNL     1      40.348 -10.362   5.887  1.00  0.00     0.032 A 
ENDROOT
BRANCH   1  11
HETATM   11  N   UNL     1      40.767 -12.559   5.028  1.00  0.00    -0.327 N 
HETATM   12  C   UNL     1      40.933 -12.811   3.676  1.00  0.00     0.226 C 
HETATM   13  O   UNL     1      41.475 -12.076   2.857  1.00  0.00    -0.273 OA
HETATM   14  H   UNL     1      40.203 -13.228   5.539  1.00  0.00     0.169 HD
BRANCH  12  15
HETATM   15  C   UNL     1      40.397 -14.171   3.254  1.00  0.00     0.141 C 
BRANCH  15  16
HETATM   16  C   UNL     1      41.418 -15.285   3.248  1.00  0.00    -0.049 A 
HETATM   17  C   UNL     1      41.837 -15.896   4.437  1.00  0.00     0.008 A 
HETATM   18  C   UNL     1      42.737 -16.964   4.409  1.00  0.00     0.007 A 
HETATM   19  C   UNL     1      43.220 -17.462   3.192  1.00  0.00    -0.058 A 
HETATM   20  C   UNL     1      42.796 -16.856   2.004  1.00  0.00     0.007 A 
HETATM   21  C   UNL     1      41.902 -15.783   2.030  1.00  0.00     0.008 A 
BRANCH  19  22
HETATM   22  C   UNL     1      44.168 -18.637   3.160  1.00  0.00     0.042 C 
BRANCH  22  23
HETATM   23  C   UNL     1      43.525 -20.030   2.986  1.00  0.00    -0.019 C 
HETATM   24  C   UNL     1      43.958 -21.025   4.065  1.00  0.00     0.010 C 
HETATM   25  C   UNL     1      43.751 -20.621   1.594  1.00  0.00     0.010 C 
ENDBRANCH  22  23
ENDBRANCH  19  22
ENDBRANCH  15  16
ENDBRANCH  12  15
ENDBRANCH   1  11
BRANCH   8  26
HETATM   26  C   UNL     1      45.264 -10.524   8.041  1.00  0.00     0.270 C 
HETATM   27  N   UNL     1      46.046 -10.641   6.924  1.00  0.00    -0.365 N 
HETATM   28  H   UNL     1      45.719 -10.228   6.058  1.00  0.00     0.159 HD
HETATM   29  H   UNL     1      46.926 -11.127   6.980  1.00  0.00     0.159 HD
HETATM   30  O   UNL     1      45.617 -11.003   9.113  1.00  0.00    -0.266 OA
ENDBRANCH   8  26
TORSDOF 6
ENDMDL
MODEL 7
REMARK VINA RESULT:      -7.6      3.171      4.563
REMARK  6 active torsions:
REMARK  status: ('A' for Active; 'I' for Inactive)
REMARK    1  A    between atoms: C_2  and  C_3 
REMARK    2  A    between atoms: C_3  and  C_4 
REMARK    3  A    between atoms: C_7  and  C_8 
REMARK    4  A    between atoms: C_8  and  C_9 
REMARK       I    between atoms: C_9  and  N_10 
REMARK    5  A    between atoms: N_10  and  C_11 
REMARK    6  A    between atoms: C_18  and  C_19 
REMARK       I    between atoms: C_19  and  N_20 
ROOT
HETATM    1  C   UNL     1      43.621 -10.045   9.999  1.00  0.00     0.035 A 
HETATM    2  C   UNL     1      42.407 -10.343  10.632  1.00  0.00     0.046 A 
HETATM    3  C   UNL     1      42.087  -9.723  11.860  1.00  0.00     0.030 A 
HETATM    4  C   UNL     1      42.993  -8.829  12.414  1.00  0.00     0.063 A 
HETATM    5  N   UNL     1      42.417  -8.402  13.578  1.00  0.00    -0.277 N 
HETATM    6  H   UNL     1      42.797  -7.741  14.245  1.00  0.00     0.189 HD
HETATM    7  N   UNL     1      41.213  -8.939  13.833  1.00  0.00    -0.168 NA
HETATM    8  C   UNL     1      40.993  -9.759  12.778  1.00  0.00     0.156 A 
HETATM    9  C   UNL     1      44.212  -8.507  11.813  1.00  0.00     0.034 A 
HETATM   10  C   UNL     1      44.503  -9.132  10.595  1.00  0.00     0.032 A 
ENDROOT
BRANCH   1  11
HETATM   11  N   UNL     1      44.020 -10.600   8.763  1.00  0.00    -0.327 N 
HETATM   12  C   UNL     1      43.366 -10.509   7.546  1.00  0.00     0.226 C 
HETATM   13  O   UNL     1      42.287  -9.965   7.336  1.00  0.00    -0.273 OA
HETATM   14  H   UNL     1      44.854 -11.175   8.778  1.00  0.00     0.169 HD
BRANCH  12  15
HETATM   15  C   UNL     1      44.148 -11.134   6.401  1.00  0.00     0.141 C 
BRANCH  15  16
HETATM   16  C   UNL     1      43.688 -12.513   5.992  1.00  0.00    -0.049 A 
HETATM   17  C   UNL     1      43.107 -12.746   4.739  1.00  0.00     0.008 A 
HETATM   18  C   UNL     1      42.740 -14.038   4.353  1.00  0.00     0.007 A 
HETATM   19  C   UNL     1      42.969 -15.129   5.200  1.00  0.00    -0.058 A 
HETATM   20  C   UNL     1      43.557 -14.899   6.449  1.00  0.00     0.007 A 
HETATM   21  C   UNL     1      43.917 -13.606   6.839  1.00  0.00     0.008 A 
BRANCH  19  22
HETATM   22  C   UNL     1      42.603 -16.529   4.770  1.00  0.00     0.042 C 
BRANCH  22  23
HETATM   23  C   UNL     1      43.196 -17.011   3.427  1.00  0.00    -0.019 C 
HETATM   24  C   UNL     1      42.152 -17.101   2.313  1.00  0.00     0.010 C 
HETATM   25  C   UNL     1      43.959 -18.330   3.551  1.00  0.00     0.010 C 
ENDBRANCH  22  23
ENDBRANCH  19  22
ENDBRANCH  15  16
ENDBRANCH  12  15
ENDBRANCH   1  11
BRANCH   8  26
HETATM   26  C   UNL     1      39.757 -10.546  12.671  1.00  0.00     0.270 C 
HETATM   27  N   UNL     1      39.033 -10.297  11.536  1.00  0.00    -0.365 N 
HETATM   28  H   UNL     1      39.387  -9.617  10.875  1.00  0.00     0.159 HD
HETATM   29  H   UNL     1      38.171 -10.792  11.377  1.00  0.00     0.159 HD
HETATM   30  O   UNL     1      39.372 -11.361  13.501  1.00  0.00    -0.266 OA
ENDBRANCH   8  26
TORSDOF 6
ENDMDL
MODEL 8
REMARK VINA RESULT:      -7.6      3.174      9.804
REMARK  6 active torsions:
REMARK  status: ('A' for Active; 'I' for Inactive)
REMARK    1  A    between atoms: C_2  and  C_3 
REMARK    2  A    between atoms: C_3  and  C_4 
REMARK    3  A    between atoms: C_7  and  C_8 
REMARK    4  A    between atoms: C_8  and  C_9 
REMARK       I    between atoms: C_9  and  N_10 
REMARK    5  A    between atoms: N_10  and  C_11 
REMARK    6  A    between atoms: C_18  and  C_19 
REMARK       I    between atoms: C_19  and  N_20 
ROOT
HETATM    1  C   UNL     1      43.112 -14.232   6.705  1.00  0.00     0.035 A 
HETATM    2  C   UNL     1      43.148 -14.833   5.440  1.00  0.00     0.046 A 
HETATM    3  C   UNL     1      43.304 -16.232   5.335  1.00  0.00     0.030 A 
HETATM    4  C   UNL     1      43.421 -16.982   6.497  1.00  0.00     0.063 A 
HETATM    5  N   UNL     1      43.558 -18.277   6.081  1.00  0.00    -0.277 N 
HETATM    6  H   UNL     1      43.668 -19.101   6.663  1.00  0.00     0.189 HD
HETATM    7  N   UNL     1      43.539 -18.440   4.749  1.00  0.00    -0.168 NA
HETATM    8  C   UNL     1      43.382 -17.184   4.271  1.00  0.00     0.156 A 
HETATM    9  C   UNL     1      43.390 -16.420   7.775  1.00  0.00     0.034 A 
HETATM   10  C   UNL     1      43.231 -15.030   7.852  1.00  0.00     0.032 A 
ENDROOT
BRANCH   1  11
HETATM   11  N   UNL     1      42.942 -12.845   6.912  1.00  0.00    -0.327 N 
HETATM   12  C   UNL     1      43.918 -11.863   6.898  1.00  0.00     0.226 C 
HETATM   13  O   UNL     1      45.124 -12.035   6.752  1.00  0.00    -0.273 OA
HETATM   14  H   UNL     1      42.005 -12.538   7.148  1.00  0.00     0.169 HD
BRANCH  12  15
HETATM   15  C   UNL     1      43.353 -10.459   7.045  1.00  0.00     0.141 C 
BRANCH  15  16
HETATM   16  C   UNL     1      43.438  -9.879   8.437  1.00  0.00    -0.049 A 
HETATM   17  C   UNL     1      42.330  -9.274   9.044  1.00  0.00     0.008 A 
HETATM   18  C   UNL     1      42.409  -8.796  10.354  1.00  0.00     0.007 A 
HETATM   19  C   UNL     1      43.589  -8.934  11.097  1.00  0.00    -0.058 A 
HETATM   20  C   UNL     1      44.694  -9.545  10.494  1.00  0.00     0.007 A 
HETATM   21  C   UNL     1      44.618 -10.017   9.180  1.00  0.00     0.008 A 
BRANCH  19  22
HETATM   22  C   UNL     1      43.664  -8.446  12.524  1.00  0.00     0.042 C 
BRANCH  22  23
HETATM   23  C   UNL     1      42.344  -7.939  13.145  1.00  0.00    -0.019 C 
HETATM   24  C   UNL     1      42.349  -6.432  13.406  1.00  0.00     0.010 C 
HETATM   25  C   UNL     1      41.950  -8.699  14.411  1.00  0.00     0.010 C 
ENDBRANCH  22  23
ENDBRANCH  19  22
ENDBRANCH  15  16
ENDBRANCH  12  15
ENDBRANCH   1  11
BRANCH   8  26
HETATM   26  C   UNL     1      43.307 -16.923   2.827  1.00  0.00     0.270 C 
HETATM   27  N   UNL     1      42.981 -18.021   2.078  1.00  0.00    -0.365 N 
HETATM   28  H   UNL     1      42.817 -18.901   2.552  1.00  0.00     0.159 HD
HETATM   29  H   UNL     1      42.904 -17.937   1.077  1.00  0.00     0.159 HD
HETATM   30  O   UNL     1      43.511 -15.836   2.300  1.00  0.00    -0.266 OA
ENDBRANCH   8  26
TORSDOF 6
ENDMDL
MODEL 9
REMARK VINA RESULT:      -7.3      5.307      8.496
REMARK  6 active torsions:
REMARK  status: ('A' for Active; 'I' for Inactive)
REMARK    1  A    between atoms: C_2  and  C_3 
REMARK    2  A    between atoms: C_3  and  C_4 
REMARK    3  A    between atoms: C_7  and  C_8 
REMARK    4  A    between atoms: C_8  and  C_9 
REMARK       I    between atoms: C_9  and  N_10 
REMARK    5  A    between atoms: N_10  and  C_11 
REMARK    6  A    between atoms: C_18  and  C_19 
REMARK       I    between atoms: C_19  and  N_20 
ROOT
HETATM    1  C   UNL     1      42.573 -15.988   2.217  1.00  0.00     0.035 A 
HETATM    2  C   UNL     1      42.767 -15.328   3.438  1.00  0.00     0.046 A 
HETATM    3  C   UNL     1      43.368 -16.013   4.516  1.00  0.00     0.030 A 
HETATM    4  C   UNL     1      43.753 -17.336   4.337  1.00  0.00     0.063 A 
HETATM    5  N   UNL     1      44.293 -17.721   5.533  1.00  0.00    -0.277 N 
HETATM    6  H   UNL     1      44.679 -18.628   5.768  1.00  0.00     0.189 HD
HETATM    7  N   UNL     1      44.295 -16.767   6.477  1.00  0.00    -0.168 NA
HETATM    8  C   UNL     1      43.727 -15.703   5.863  1.00  0.00     0.156 A 
HETATM    9  C   UNL     1      43.577 -18.026   3.136  1.00  0.00     0.034 A 
HETATM   10  C   UNL     1      42.981 -17.323   2.082  1.00  0.00     0.032 A 
ENDROOT
BRANCH   1  11
HETATM   11  N   UNL     1      41.998 -15.381   1.078  1.00  0.00    -0.327 N 
HETATM   12  C   UNL     1      40.671 -15.037   0.885  1.00  0.00     0.226 C 
HETATM   13  O   UNL     1      39.742 -15.247   1.659  1.00  0.00    -0.273 OA
HETATM   14  H   UNL     1      42.617 -15.226   0.291  1.00  0.00     0.169 HD
BRANCH  12  15
HETATM   15  C   UNL     1      40.432 -14.294  -0.421  1.00  0.00     0.141 C 
BRANCH  15  16
HETATM   16  C   UNL     1      40.697 -12.808  -0.367  1.00  0.00    -0.049 A 
HETATM   17  C   UNL     1      41.024 -12.169   0.836  1.00  0.00     0.008 A 
HETATM   18  C   UNL     1      41.324 -10.805   0.858  1.00  0.00     0.007 A 
HETATM   19  C   UNL     1      41.328 -10.054  -0.324  1.00  0.00    -0.058 A 
HETATM   20  C   UNL     1      41.008 -10.693  -1.527  1.00  0.00     0.007 A 
HETATM   21  C   UNL     1      40.701 -12.056  -1.550  1.00  0.00     0.008 A 
BRANCH  19  22
HETATM   22  C   UNL     1      41.683  -8.586  -0.304  1.00  0.00     0.042 C 
BRANCH  22  23
HETATM   23  C   UNL     1      42.070  -7.957  -1.660  1.00  0.00    -0.019 C 
HETATM   24  C   UNL     1      43.516  -7.460  -1.696  1.00  0.00     0.010 C 
HETATM   25  C   UNL     1      41.114  -6.847  -2.097  1.00  0.00     0.010 C 
ENDBRANCH  22  23
ENDBRANCH  19  22
ENDBRANCH  15  16
ENDBRANCH  12  15
ENDBRANCH   1  11
BRANCH   8  26
HETATM   26  C   UNL     1      43.544 -14.426   6.569  1.00  0.00     0.270 C 
HETATM   27  N   UNL     1      42.899 -14.540   7.771  1.00  0.00    -0.365 N 
HETATM   28  H   UNL     1      42.607 -15.459   8.079  1.00  0.00     0.159 HD
HETATM   29  H   UNL     1      42.731 -13.717   8.326  1.00  0.00     0.159 HD
HETATM   30  O   UNL     1      43.921 -13.336   6.154  1.00  0.00    -0.266 OA
ENDBRANCH   8  26
TORSDOF 6
ENDMDL
MODEL 10
REMARK VINA RESULT:      -7.3      3.673      8.937
REMARK  6 active torsions:
REMARK  status: ('A' for Active; 'I' for Inactive)
REMARK    1  A    between atoms: C_2  and  C_3 
REMARK    2  A    between atoms: C_3  and  C_4 
REMARK    3  A    between atoms: C_7  and  C_8 
REMARK    4  A    between atoms: C_8  and  C_9 
REMARK       I    between atoms: C_9  and  N_10 
REMARK    5  A    between atoms: N_10  and  C_11 
REMARK    6  A    between atoms: C_18  and  C_19 
REMARK       I    between atoms: C_19  and  N_20 
ROOT
HETATM    1  C   UNL     1      43.000 -12.191   6.336  1.00  0.00     0.035 A 
HETATM    2  C   UNL     1      41.790 -11.526   6.096  1.00  0.00     0.046 A 
HETATM    3  C   UNL     1      40.813 -12.127   5.273  1.00  0.00     0.030 A 
HETATM    4  C   UNL     1      41.078 -13.372   4.718  1.00  0.00     0.063 A 
HETATM    5  N   UNL     1      39.968 -13.688   3.986  1.00  0.00    -0.277 N 
HETATM    6  H   UNL     1      39.809 -14.528   3.442  1.00  0.00     0.189 HD
HETATM    7  N   UNL     1      38.999 -12.759   4.015  1.00  0.00    -0.168 NA
HETATM    8  C   UNL     1      39.505 -11.787   4.808  1.00  0.00     0.156 A 
HETATM    9  C   UNL     1      42.271 -14.065   4.935  1.00  0.00     0.034 A 
HETATM   10  C   UNL     1      43.222 -13.448   5.757  1.00  0.00     0.032 A 
ENDROOT
BRANCH   1  11
HETATM   11  N   UNL     1      44.028 -11.679   7.157  1.00  0.00    -0.327 N 
HETATM   12  C   UNL     1      45.240 -11.141   6.756  1.00  0.00     0.226 C 
HETATM   13  O   UNL     1      45.657 -11.060   5.605  1.00  0.00    -0.273 OA
HETATM   14  H   UNL     1      43.887 -11.760   8.158  1.00  0.00     0.169 HD
BRANCH  12  15
HETATM   15  C   UNL     1      46.055 -10.581   7.912  1.00  0.00     0.141 C 
BRANCH  15  16
HETATM   16  C   UNL     1      45.265  -9.782   8.922  1.00  0.00    -0.049 A 
HETATM   17  C   UNL     1      44.556  -8.633   8.549  1.00  0.00     0.008 A 
HETATM   18  C   UNL     1      43.783  -7.940   9.483  1.00  0.00     0.007 A 
HETATM   19  C   UNL     1      43.680  -8.393  10.805  1.00  0.00    -0.058 A 
HETATM   20  C   UNL     1      44.382  -9.545  11.176  1.00  0.00     0.007 A 
HETATM   21  C   UNL     1      45.162 -10.236  10.245  1.00  0.00     0.008 A 
BRANCH  19  22
HETATM   22  C   UNL     1      42.818  -7.662  11.806  1.00  0.00     0.042 C 
BRANCH  22  23
HETATM   23  C   UNL     1      41.965  -8.541  12.747  1.00  0.00    -0.019 C 
HETATM   24  C   UNL     1      40.462  -8.348  12.542  1.00  0.00     0.010 C 
HETATM   25  C   UNL     1      42.330  -8.364  14.221  1.00  0.00     0.010 C 
ENDBRANCH  22  23
ENDBRANCH  19  22
ENDBRANCH  15  16
ENDBRANCH  12  15
ENDBRANCH   1  11
BRANCH   8  26
HETATM   26  C   UNL     1      38.737 -10.569   5.104  1.00  0.00     0.270 C 
HETATM   27  N   UNL     1      38.267  -9.922   3.993  1.00  0.00    -0.365 N 
HETATM   28  H   UNL     1      38.471 -10.313   3.081  1.00  0.00     0.159 HD
HETATM   29  H   UNL     1      37.727  -9.078   4.099  1.00  0.00     0.159 HD
HETATM   30  O   UNL     1      38.513 -10.138   6.229  1.00  0.00    -0.266 OA
ENDBRANCH   8  26
TORSDOF 6
ENDMDL
