MODEL 1
REMARK VINA RESULT:      -7.5      0.000      0.000
REMARK  6 active torsions:
REMARK  status: ('A' for Active; 'I' for Inactive)
REMARK    1  A    between atoms: C_6  and  C_7 
REMARK       I    between atoms: C_7  and  N_8 
REMARK    2  A    between atoms: N_8  and  C_9 
REMARK    3  A    between atoms: C_9  and  C_10 
REMARK    4  A    between atoms: C_10  and  O_11 
REMARK    5  A    between atoms: C_10  and  C_12 
REMARK    6  A    between atoms: C_15  and  O_16 
ROOT
HETATM    1  C   UNL     1      42.968 -16.116   2.432  1.00  0.00     0.258 C 
HETATM    2  N   UNL     1      41.647 -15.731   2.508  1.00  0.00    -0.350 N 
HETATM    3  O   UNL     1      43.747 -15.676   1.595  1.00  0.00    -0.267 OA
HETATM    4  H   UNL     1      41.127 -16.088   3.309  1.00  0.00     0.163 HD
ENDROOT
BRANCH   2   5
HETATM    5  C   UNL     1      41.079 -14.659   1.686  1.00  0.00     0.114 C 
HETATM    6  C   UNL     1      39.987 -15.221   0.768  1.00  0.00     0.035 C 
BRANCH   5   7
HETATM    7  C   UNL     1      40.554 -13.515   2.603  1.00  0.00     0.173 C 
BRANCH   7   8
HETATM    8  O   UNL     1      39.782 -12.567   1.855  1.00  0.00    -0.389 OA
HETATM    9  H   UNL     1      38.895 -12.952   1.744  1.00  0.00     0.210 HD
ENDBRANCH   7   8
BRANCH   7  10
HETATM   10  C   UNL     1      41.659 -12.818   3.370  1.00  0.00    -0.028 A 
HETATM   11  C   UNL     1      41.524 -12.623   4.752  1.00  0.00     0.012 A 
HETATM   12  C   UNL     1      42.541 -12.008   5.486  1.00  0.00     0.037 A 
HETATM   13  C   UNL     1      43.714 -11.584   4.862  1.00  0.00     0.068 A 
HETATM   14  C   UNL     1      43.856 -11.766   3.488  1.00  0.00     0.037 A 
HETATM   15  C   UNL     1      42.835 -12.376   2.748  1.00  0.00     0.012 A 
BRANCH  13  16
HETATM   16  O   UNL     1      44.632 -11.010   5.698  1.00  0.00    -0.356 OA
HETATM   17  C   UNL     1      44.994 -11.752   6.855  1.00  0.00     0.210 C 
ENDBRANCH  13  16
ENDBRANCH   7  10
ENDBRANCH   5   7
ENDBRANCH   2   5
BRANCH   1  18
HETATM   18  C   UNL     1      43.375 -17.078   3.444  1.00  0.00     0.105 A 
HETATM   19  C   UNL     1      43.674 -16.835   4.811  1.00  0.00     0.071 A 
HETATM   20  C   UNL     1      43.656 -15.533   5.528  1.00  0.00     0.073 C 
HETATM   21  N   UNL     1      44.000 -17.954   5.469  1.00  0.00    -0.170 NA
HETATM   22  N   UNL     1      43.909 -18.936   4.547  1.00  0.00    -0.225 N 
HETATM   23  C   UNL     1      43.542 -18.444   3.291  1.00  0.00     0.168 A 
HETATM   24  C   UNL     1      44.128 -20.296   4.735  1.00  0.00     0.122 A 
HETATM   25  N   UNL     1      43.394 -19.269   2.200  1.00  0.00    -0.240 NA
HETATM   26  C   UNL     1      43.606 -20.534   2.418  1.00  0.00     0.120 A 
HETATM   27  C   UNL     1      43.993 -21.154   3.715  1.00  0.00     0.038 A 
ENDBRANCH   1  18
TORSDOF 6
ENDMDL
MODEL 2
REMARK VINA RESULT:      -7.3      2.925      6.773
REMARK  6 active torsions:
REMARK  status: ('A' for Active; 'I' for Inactive)
REMARK    1  A    between atoms: C_6  and  C_7 
REMARK       I    between atoms: C_7  and  N_8 
REMARK    2  A    between atoms: N_8  and  C_9 
REMARK    3  A    between atoms: C_9  and  C_10 
REMARK    4  A    between atoms: C_10  and  O_11 
REMARK    5  A    between atoms: C_10  and  C_12 
REMARK    6  A    between atoms: C_15  and  O_16 
ROOT
HETATM    1  C   UNL     1      40.924 -13.294   5.154  1.00  0.00     0.258 C 
HETATM    2  N   UNL     1      41.507 -13.518   3.927  1.00  0.00    -0.350 N 
HETATM    3  O   UNL     1      40.050 -14.015   5.622  1.00  0.00    -0.267 OA
HETATM    4  H   UNL     1      42.292 -12.911   3.692  1.00  0.00     0.163 HD
ENDROOT
BRANCH   2   5
HETATM    5  C   UNL     1      41.240 -14.712   3.120  1.00  0.00     0.114 C 
HETATM    6  C   UNL     1      40.094 -14.440   2.138  1.00  0.00     0.035 C 
BRANCH   5   7
HETATM    7  C   UNL     1      42.545 -15.165   2.402  1.00  0.00     0.173 C 
BRANCH   7   8
HETATM    8  O   UNL     1      42.335 -15.311   0.992  1.00  0.00    -0.389 OA
HETATM    9  H   UNL     1      42.731 -14.531   0.565  1.00  0.00     0.210 HD
ENDBRANCH   7   8
BRANCH   7  10
HETATM   10  C   UNL     1      43.134 -16.431   2.988  1.00  0.00    -0.028 A 
HETATM   11  C   UNL     1      43.580 -16.435   4.318  1.00  0.00     0.012 A 
HETATM   12  C   UNL     1      44.101 -17.598   4.890  1.00  0.00     0.037 A 
HETATM   13  C   UNL     1      44.179 -18.781   4.154  1.00  0.00     0.068 A 
HETATM   14  C   UNL     1      43.747 -18.786   2.830  1.00  0.00     0.037 A 
HETATM   15  C   UNL     1      43.230 -17.620   2.251  1.00  0.00     0.012 A 
BRANCH  13  16
HETATM   16  O   UNL     1      44.696 -19.846   4.838  1.00  0.00    -0.356 OA
HETATM   17  C   UNL     1      43.769 -20.820   5.300  1.00  0.00     0.210 C 
ENDBRANCH  13  16
ENDBRANCH   7  10
ENDBRANCH   5   7
ENDBRANCH   2   5
BRANCH   1  18
HETATM   18  C   UNL     1      41.445 -12.140   5.868  1.00  0.00     0.105 A 
HETATM   19  C   UNL     1      40.735 -10.991   6.311  1.00  0.00     0.071 A 
HETATM   20  C   UNL     1      39.290 -10.691   6.130  1.00  0.00     0.073 C 
HETATM   21  N   UNL     1      41.521 -10.122   6.956  1.00  0.00    -0.170 NA
HETATM   22  N   UNL     1      42.745 -10.693   6.952  1.00  0.00    -0.225 N 
HETATM   23  C   UNL     1      42.747 -11.923   6.286  1.00  0.00     0.168 A 
HETATM   24  C   UNL     1      43.912 -10.197   7.520  1.00  0.00     0.122 A 
HETATM   25  N   UNL     1      43.889 -12.679   6.157  1.00  0.00    -0.240 NA
HETATM   26  C   UNL     1      44.960 -12.180   6.703  1.00  0.00     0.120 A 
HETATM   27  C   UNL     1      45.056 -10.888   7.436  1.00  0.00     0.038 A 
ENDBRANCH   1  18
TORSDOF 6
ENDMDL
MODEL 3
REMARK VINA RESULT:      -7.2      3.298      7.328
REMARK  6 active torsions:
REMARK  status: ('A' for Active; 'I' for Inactive)
REMARK    1  A    between atoms: C_6  and  C_7 
REMARK       I    between atoms: C_7  and  N_8 
REMARK    2  A    between atoms: N_8  and  C_9 
REMARK    3  A    between atoms: C_9  and  C_10 
REMARK    4  A    between atoms: C_10  and  O_11 
REMARK    5  A    between atoms: C_10  and  C_12 
REMARK    6  A    between atoms: C_15  and  O_16 
ROOT
HETATM    1  C   UNL     1      40.179 -12.857   1.903  1.00  0.00     0.258 C 
HETATM    2  N   UNL     1      40.251 -14.209   2.156  1.00  0.00    -0.350 N 
HETATM    3  O   UNL     1      40.784 -12.018   2.561  1.00  0.00    -0.267 OA
HETATM    4  H   UNL     1      39.786 -14.812   1.478  1.00  0.00     0.163 HD
ENDROOT
BRANCH   2   5
HETATM    5  C   UNL     1      41.162 -14.788   3.146  1.00  0.00     0.114 C 
HETATM    6  C   UNL     1      40.470 -15.936   3.892  1.00  0.00     0.035 C 
BRANCH   5   7
HETATM    7  C   UNL     1      42.479 -15.241   2.449  1.00  0.00     0.173 C 
BRANCH   7   8
HETATM    8  O   UNL     1      42.289 -15.396   1.037  1.00  0.00    -0.389 OA
HETATM    9  H   UNL     1      41.329 -15.446   0.886  1.00  0.00     0.210 HD
ENDBRANCH   7   8
BRANCH   7  10
HETATM   10  C   UNL     1      43.064 -16.503   3.050  1.00  0.00    -0.028 A 
HETATM   11  C   UNL     1      43.073 -17.687   2.298  1.00  0.00     0.012 A 
HETATM   12  C   UNL     1      43.631 -18.856   2.820  1.00  0.00     0.037 A 
HETATM   13  C   UNL     1      44.199 -18.868   4.094  1.00  0.00     0.068 A 
HETATM   14  C   UNL     1      44.188 -17.699   4.853  1.00  0.00     0.037 A 
HETATM   15  C   UNL     1      43.623 -16.527   4.335  1.00  0.00     0.012 A 
BRANCH  13  16
HETATM   16  O   UNL     1      44.720 -20.073   4.477  1.00  0.00    -0.356 OA
HETATM   17  C   UNL     1      43.984 -20.810   5.444  1.00  0.00     0.210 C 
ENDBRANCH  13  16
ENDBRANCH   7  10
ENDBRANCH   5   7
ENDBRANCH   2   5
BRANCH   1  18
HETATM   18  C   UNL     1      39.339 -12.499   0.772  1.00  0.00     0.105 A 
HETATM   19  C   UNL     1      38.323 -11.507   0.715  1.00  0.00     0.071 A 
HETATM   20  C   UNL     1      37.866 -10.611   1.811  1.00  0.00     0.073 C 
HETATM   21  N   UNL     1      37.754 -11.426  -0.493  1.00  0.00    -0.170 NA
HETATM   22  N   UNL     1      38.395 -12.351  -1.239  1.00  0.00    -0.225 N 
HETATM   23  C   UNL     1      39.363 -13.040  -0.503  1.00  0.00     0.168 A 
HETATM   24  C   UNL     1      38.189 -12.647  -2.582  1.00  0.00     0.122 A 
HETATM   25  N   UNL     1      40.136 -14.032  -1.062  1.00  0.00    -0.240 NA
HETATM   26  C   UNL     1      39.913 -14.277  -2.321  1.00  0.00     0.120 A 
HETATM   27  C   UNL     1      38.913 -13.596  -3.188  1.00  0.00     0.038 A 
ENDBRANCH   1  18
TORSDOF 6
ENDMDL
MODEL 4
REMARK VINA RESULT:      -7.1      3.859      8.056
REMARK  6 active torsions:
REMARK  status: ('A' for Active; 'I' for Inactive)
REMARK    1  A    between atoms: C_6  and  C_7 
REMARK       I    between atoms: C_7  and  N_8 
REMARK    2  A    between atoms: N_8  and  C_9 
REMARK    3  A    between atoms: C_9  and  C_10 
REMARK    4  A    between atoms: C_10  and  O_11 
REMARK    5  A    between atoms: C_10  and  C_12 
REMARK    6  A    between atoms: C_15  and  O_16 
ROOT
HETATM    1  C   UNL     1      43.644 -12.498   6.894  1.00  0.00     0.258 C 
HETATM    2  N   UNL     1      42.536 -13.308   6.782  1.00  0.00    -0.350 N 
HETATM    3  O   UNL     1      44.783 -12.885   6.662  1.00  0.00    -0.267 OA
HETATM    4  H   UNL     1      41.635 -12.845   6.901  1.00  0.00     0.163 HD
ENDROOT
BRANCH   2   5
HETATM    5  C   UNL     1      42.592 -14.670   6.245  1.00  0.00     0.114 C 
HETATM    6  C   UNL     1      41.307 -15.430   6.596  1.00  0.00     0.035 C 
BRANCH   5   7
HETATM    7  C   UNL     1      42.853 -14.620   4.710  1.00  0.00     0.173 C 
BRANCH   7   8
HETATM    8  O   UNL     1      41.771 -13.978   4.023  1.00  0.00    -0.389 OA
HETATM    9  H   UNL     1      42.142 -13.192   3.586  1.00  0.00     0.210 HD
ENDBRANCH   7   8
BRANCH   7  10
HETATM   10  C   UNL     1      43.131 -15.984   4.113  1.00  0.00    -0.028 A 
HETATM   11  C   UNL     1      43.929 -16.897   4.818  1.00  0.00     0.012 A 
HETATM   12  C   UNL     1      44.177 -18.171   4.302  1.00  0.00     0.037 A 
HETATM   13  C   UNL     1      43.629 -18.564   3.081  1.00  0.00     0.068 A 
HETATM   14  C   UNL     1      42.842 -17.662   2.368  1.00  0.00     0.037 A 
HETATM   15  C   UNL     1      42.597 -16.382   2.880  1.00  0.00     0.012 A 
BRANCH  13  16
HETATM   16  O   UNL     1      43.941 -19.840   2.698  1.00  0.00    -0.356 OA
HETATM   17  C   UNL     1      43.881 -20.841   3.706  1.00  0.00     0.210 C 
ENDBRANCH  13  16
ENDBRANCH   7  10
ENDBRANCH   5   7
ENDBRANCH   2   5
BRANCH   1  18
HETATM   18  C   UNL     1      43.355 -11.130   7.291  1.00  0.00     0.105 A 
HETATM   19  C   UNL     1      42.683 -10.125   6.544  1.00  0.00     0.071 A 
HETATM   20  C   UNL     1      42.131 -10.233   5.168  1.00  0.00     0.073 C 
HETATM   21  N   UNL     1      42.569  -8.976   7.220  1.00  0.00    -0.170 NA
HETATM   22  N   UNL     1      43.153  -9.218   8.414  1.00  0.00    -0.225 N 
HETATM   23  C   UNL     1      43.659 -10.518   8.496  1.00  0.00     0.168 A 
HETATM   24  C   UNL     1      43.277  -8.344   9.488  1.00  0.00     0.122 A 
HETATM   25  N   UNL     1      44.300 -10.981   9.622  1.00  0.00    -0.240 NA
HETATM   26  C   UNL     1      44.394 -10.133  10.605  1.00  0.00     0.120 A 
HETATM   27  C   UNL     1      43.883  -8.735  10.616  1.00  0.00     0.038 A 
ENDBRANCH   1  18
TORSDOF 6
ENDMDL
MODEL 5
REMARK VINA RESULT:      -7.0      2.147      4.696
REMARK  6 active torsions:
REMARK  status: ('A' for Active; 'I' for Inactive)
REMARK    1  A    between atoms: C_6  and  C_7 
REMARK       I    between atoms: C_7  and  N_8 
REMARK    2  A    between atoms: N_8  and  C_9 
REMARK    3  A    between atoms: C_9  and  C_10 
REMARK    4  A    between atoms: C_10  and  O_11 
REMARK    5  A    between atoms: C_10  and  C_12 
REMARK    6  A    between atoms: C_15  and  O_16 
ROOT
HETATM    1  C   UNL     1      41.828 -14.728   5.042  1.00  0.00     0.258 C 
HETATM    2  N   UNL     1      42.462 -13.819   4.224  1.00  0.00    -0.350 N 
HETATM    3  O   UNL     1      40.701 -14.554   5.491  1.00  0.00    -0.267 OA
HETATM    4  H   UNL     1      43.353 -14.121   3.833  1.00  0.00     0.163 HD
ENDROOT
BRANCH   2   5
HETATM    5  C   UNL     1      41.802 -12.620   3.699  1.00  0.00     0.114 C 
HETATM    6  C   UNL     1      42.093 -11.417   4.605  1.00  0.00     0.035 C 
BRANCH   5   7
HETATM    7  C   UNL     1      42.246 -12.377   2.226  1.00  0.00     0.173 C 
BRANCH   7   8
HETATM    8  O   UNL     1      42.331 -10.976   1.937  1.00  0.00    -0.389 OA
HETATM    9  H   UNL     1      42.065 -10.505   2.746  1.00  0.00     0.210 HD
ENDBRANCH   7   8
BRANCH   7  10
HETATM   10  C   UNL     1      41.360 -13.078   1.218  1.00  0.00    -0.028 A 
HETATM   11  C   UNL     1      40.989 -12.410   0.042  1.00  0.00     0.012 A 
HETATM   12  C   UNL     1      40.195 -13.044  -0.917  1.00  0.00     0.037 A 
HETATM   13  C   UNL     1      39.764 -14.358  -0.728  1.00  0.00     0.068 A 
HETATM   14  C   UNL     1      40.119 -15.028   0.441  1.00  0.00     0.037 A 
HETATM   15  C   UNL     1      40.909 -14.392   1.406  1.00  0.00     0.012 A 
BRANCH  13  16
HETATM   16  O   UNL     1      39.005 -14.862  -1.748  1.00  0.00    -0.356 OA
HETATM   17  C   UNL     1      38.832 -14.031  -2.888  1.00  0.00     0.210 C 
ENDBRANCH  13  16
ENDBRANCH   7  10
ENDBRANCH   5   7
ENDBRANCH   2   5
BRANCH   1  18
HETATM   18  C   UNL     1      42.597 -15.930   5.318  1.00  0.00     0.105 A 
HETATM   19  C   UNL     1      43.106 -16.376   6.567  1.00  0.00     0.071 A 
HETATM   20  C   UNL     1      42.986 -15.706   7.889  1.00  0.00     0.073 C 
HETATM   21  N   UNL     1      43.757 -17.541   6.466  1.00  0.00    -0.170 NA
HETATM   22  N   UNL     1      43.674 -17.873   5.160  1.00  0.00    -0.225 N 
HETATM   23  C   UNL     1      42.984 -16.910   4.418  1.00  0.00     0.168 A 
HETATM   24  C   UNL     1      44.176 -19.012   4.543  1.00  0.00     0.122 A 
HETATM   25  N   UNL     1      42.783 -17.040   3.063  1.00  0.00    -0.240 NA
HETATM   26  C   UNL     1      43.266 -18.121   2.523  1.00  0.00     0.120 A 
HETATM   27  C   UNL     1      44.007 -19.203   3.227  1.00  0.00     0.038 A 
ENDBRANCH   1  18
TORSDOF 6
ENDMDL
MODEL 6
REMARK VINA RESULT:      -6.8      3.224      6.952
REMARK  6 active torsions:
REMARK  status: ('A' for Active; 'I' for Inactive)
REMARK    1  A    between atoms: C_6  and  C_7 
REMARK       I    between atoms: C_7  and  N_8 
REMARK    2  A    between atoms: N_8  and  C_9 
REMARK    3  A    between atoms: C_9  and  C_10 
REMARK    4  A    between atoms: C_10  and  O_11 
REMARK    5  A    between atoms: C_10  and  C_12 
REMARK    6  A    between atoms: C_15  and  O_16 
ROOT
HETATM    1  C   UNL     1      41.549 -12.038   1.776  1.00  0.00     0.258 C 
HETATM    2  N   UNL     1      40.768 -12.844   2.575  1.00  0.00    -0.350 N 
HETATM    3  O   UNL     1      42.586 -11.513   2.163  1.00  0.00    -0.267 OA
HETATM    4  H   UNL     1      39.986 -13.304   2.110  1.00  0.00     0.163 HD
ENDROOT
BRANCH   2   5
HETATM    5  C   UNL     1      41.169 -13.263   3.920  1.00  0.00     0.114 C 
HETATM    6  C   UNL     1      40.712 -12.226   4.954  1.00  0.00     0.035 C 
BRANCH   5   7
HETATM    7  C   UNL     1      40.608 -14.686   4.217  1.00  0.00     0.173 C 
BRANCH   7   8
HETATM    8  O   UNL     1      40.225 -14.813   5.592  1.00  0.00    -0.389 OA
HETATM    9  H   UNL     1      40.249 -15.763   5.804  1.00  0.00     0.210 HD
ENDBRANCH   7   8
BRANCH   7  10
HETATM   10  C   UNL     1      41.565 -15.792   3.824  1.00  0.00    -0.028 A 
HETATM   11  C   UNL     1      42.559 -16.198   4.726  1.00  0.00     0.012 A 
HETATM   12  C   UNL     1      43.436 -17.235   4.398  1.00  0.00     0.037 A 
HETATM   13  C   UNL     1      43.334 -17.894   3.172  1.00  0.00     0.068 A 
HETATM   14  C   UNL     1      42.355 -17.493   2.265  1.00  0.00     0.037 A 
HETATM   15  C   UNL     1      41.479 -16.449   2.589  1.00  0.00     0.012 A 
BRANCH  13  16
HETATM   16  O   UNL     1      44.245 -18.897   2.984  1.00  0.00    -0.356 OA
HETATM   17  C   UNL     1      43.775 -20.074   2.340  1.00  0.00     0.210 C 
ENDBRANCH  13  16
ENDBRANCH   7  10
ENDBRANCH   5   7
ENDBRANCH   2   5
BRANCH   1  18
HETATM   18  C   UNL     1      41.054 -11.873   0.418  1.00  0.00     0.105 A 
HETATM   19  C   UNL     1      41.117 -10.715  -0.401  1.00  0.00     0.071 A 
HETATM   20  C   UNL     1      41.690  -9.387  -0.056  1.00  0.00     0.073 C 
HETATM   21  N   UNL     1      40.580 -10.915  -1.610  1.00  0.00    -0.170 NA
HETATM   22  N   UNL     1      40.171 -12.202  -1.599  1.00  0.00    -0.225 N 
HETATM   23  C   UNL     1      40.430 -12.823  -0.373  1.00  0.00     0.168 A 
HETATM   24  C   UNL     1      39.565 -12.907  -2.632  1.00  0.00     0.122 A 
HETATM   25  N   UNL     1      40.093 -14.136  -0.135  1.00  0.00    -0.240 NA
HETATM   26  C   UNL     1      39.530 -14.761  -1.128  1.00  0.00     0.120 A 
HETATM   27  C   UNL     1      39.220 -14.191  -2.468  1.00  0.00     0.038 A 
ENDBRANCH   1  18
TORSDOF 6
ENDMDL
MODEL 7
REMARK VINA RESULT:      -6.8      4.364      8.321
REMARK  6 active torsions:
REMARK  status: ('A' for Active; 'I' for Inactive)
REMARK    1  A    between atoms: C_6  and  C_7 
REMARK       I    between atoms: C_7  and  N_8 
REMARK    2  A    between atoms: N_8  and  C_9 
REMARK    3  A    between atoms: C_9  and  C_10 
REMARK    4  A    between atoms: C_10  and  O_11 
REMARK    5  A    between atoms: C_10  and  C_12 
REMARK    6  A    between atoms: C_15  and  O_16 
ROOT
HETATM    1  C   UNL     1      39.860 -13.079  -0.919  1.00  0.00     0.258 C 
HETATM    2  N   UNL     1      39.633 -13.838   0.208  1.00  0.00    -0.350 N 
HETATM    3  O   UNL     1      40.970 -12.675  -1.243  1.00  0.00    -0.267 OA
HETATM    4  H   UNL     1      38.687 -14.199   0.316  1.00  0.00     0.163 HD
ENDROOT
BRANCH   2   5
HETATM    5  C   UNL     1      40.713 -14.351   1.056  1.00  0.00     0.114 C 
HETATM    6  C   UNL     1      41.224 -13.245   1.987  1.00  0.00     0.035 C 
BRANCH   5   7
HETATM    7  C   UNL     1      40.218 -15.604   1.837  1.00  0.00     0.173 C 
BRANCH   7   8
HETATM    8  O   UNL     1      39.036 -15.310   2.591  1.00  0.00    -0.389 OA
HETATM    9  H   UNL     1      39.004 -14.343   2.697  1.00  0.00     0.210 HD
ENDBRANCH   7   8
BRANCH   7  10
HETATM   10  C   UNL     1      41.286 -16.205   2.728  1.00  0.00    -0.028 A 
HETATM   11  C   UNL     1      41.131 -16.153   4.121  1.00  0.00     0.012 A 
HETATM   12  C   UNL     1      42.088 -16.724   4.964  1.00  0.00     0.037 A 
HETATM   13  C   UNL     1      43.210 -17.365   4.438  1.00  0.00     0.068 A 
HETATM   14  C   UNL     1      43.377 -17.415   3.056  1.00  0.00     0.037 A 
HETATM   15  C   UNL     1      42.423 -16.838   2.208  1.00  0.00     0.012 A 
BRANCH  13  16
HETATM   16  O   UNL     1      44.059 -17.891   5.372  1.00  0.00    -0.356 OA
HETATM   17  C   UNL     1      43.627 -19.072   6.035  1.00  0.00     0.210 C 
ENDBRANCH  13  16
ENDBRANCH   7  10
ENDBRANCH   5   7
ENDBRANCH   2   5
BRANCH   1  18
HETATM   18  C   UNL     1      38.673 -12.810  -1.714  1.00  0.00     0.105 A 
HETATM   19  C   UNL     1      38.009 -13.682  -2.619  1.00  0.00     0.071 A 
HETATM   20  C   UNL     1      38.386 -15.074  -2.980  1.00  0.00     0.073 C 
HETATM   21  N   UNL     1      36.930 -13.118  -3.172  1.00  0.00    -0.170 NA
HETATM   22  N   UNL     1      36.869 -11.882  -2.632  1.00  0.00    -0.225 N 
HETATM   23  C   UNL     1      37.923 -11.646  -1.744  1.00  0.00     0.168 A 
HETATM   24  C   UNL     1      35.911 -10.902  -2.865  1.00  0.00     0.122 A 
HETATM   25  N   UNL     1      38.062 -10.449  -1.079  1.00  0.00    -0.240 NA
HETATM   26  C   UNL     1      37.145  -9.559  -1.325  1.00  0.00     0.120 A 
HETATM   27  C   UNL     1      35.985  -9.718  -2.244  1.00  0.00     0.038 A 
ENDBRANCH   1  18
TORSDOF 6
ENDMDL
MODEL 8
REMARK VINA RESULT:      -6.7     14.129     16.070
REMARK  6 active torsions:
REMARK  status: ('A' for Active; 'I' for Inactive)
REMARK    1  A    between atoms: C_6  and  C_7 
REMARK       I    between atoms: C_7  and  N_8 
REMARK    2  A    between atoms: N_8  and  C_9 
REMARK    3  A    between atoms: C_9  and  C_10 
REMARK    4  A    between atoms: C_10  and  O_11 
REMARK    5  A    between atoms: C_10  and  C_12 
REMARK    6  A    between atoms: C_15  and  O_16 
ROOT
HETATM    1  C   UNL     1      47.089 -28.585   1.809  1.00  0.00     0.258 C 
HETATM    2  N   UNL     1      46.621 -29.001   0.582  1.00  0.00    -0.350 N 
HETATM    3  O   UNL     1      47.541 -27.464   2.009  1.00  0.00    -0.267 OA
HETATM    4  H   UNL     1      46.175 -29.918   0.566  1.00  0.00     0.163 HD
ENDROOT
BRANCH   2   5
HETATM    5  C   UNL     1      46.491 -28.105  -0.569  1.00  0.00     0.114 C 
HETATM    6  C   UNL     1      47.482 -28.510  -1.668  1.00  0.00     0.035 C 
BRANCH   5   7
HETATM    7  C   UNL     1      45.016 -28.102  -1.071  1.00  0.00     0.173 C 
BRANCH   7   8
HETATM    8  O   UNL     1      44.109 -28.419  -0.008  1.00  0.00    -0.389 OA
HETATM    9  H   UNL     1      44.341 -29.311   0.304  1.00  0.00     0.210 HD
ENDBRANCH   7   8
BRANCH   7  10
HETATM   10  C   UNL     1      44.792 -29.019  -2.256  1.00  0.00    -0.028 A 
HETATM   11  C   UNL     1      44.476 -30.367  -2.036  1.00  0.00     0.012 A 
HETATM   12  C   UNL     1      44.238 -31.227  -3.111  1.00  0.00     0.037 A 
HETATM   13  C   UNL     1      44.300 -30.759  -4.424  1.00  0.00     0.068 A 
HETATM   14  C   UNL     1      44.621 -29.422  -4.654  1.00  0.00     0.037 A 
HETATM   15  C   UNL     1      44.867 -28.560  -3.578  1.00  0.00     0.012 A 
BRANCH  13  16
HETATM   16  O   UNL     1      44.034 -31.700  -5.380  1.00  0.00    -0.356 OA
HETATM   17  C   UNL     1      44.001 -31.250  -6.728  1.00  0.00     0.210 C 
ENDBRANCH  13  16
ENDBRANCH   7  10
ENDBRANCH   5   7
ENDBRANCH   2   5
BRANCH   1  18
HETATM   18  C   UNL     1      46.984 -29.580   2.864  1.00  0.00     0.105 A 
HETATM   19  C   UNL     1      47.967 -29.947   3.822  1.00  0.00     0.071 A 
HETATM   20  C   UNL     1      49.347 -29.409   3.959  1.00  0.00     0.073 C 
HETATM   21  N   UNL     1      47.532 -30.890   4.665  1.00  0.00    -0.170 NA
HETATM   22  N   UNL     1      46.263 -31.142   4.278  1.00  0.00    -0.225 N 
HETATM   23  C   UNL     1      45.890 -30.372   3.172  1.00  0.00     0.168 A 
HETATM   24  C   UNL     1      45.364 -32.033   4.851  1.00  0.00     0.122 A 
HETATM   25  N   UNL     1      44.640 -30.468   2.604  1.00  0.00    -0.240 NA
HETATM   26  C   UNL     1      43.828 -31.313   3.172  1.00  0.00     0.120 A 
HETATM   27  C   UNL     1      44.129 -32.169   4.352  1.00  0.00     0.038 A 
ENDBRANCH   1  18
TORSDOF 6
ENDMDL
MODEL 9
REMARK VINA RESULT:      -6.7      3.429      6.173
REMARK  6 active torsions:
REMARK  status: ('A' for Active; 'I' for Inactive)
REMARK    1  A    between atoms: C_6  and  C_7 
REMARK       I    between atoms: C_7  and  N_8 
REMARK    2  A    between atoms: N_8  and  C_9 
REMARK    3  A    between atoms: C_9  and  C_10 
REMARK    4  A    between atoms: C_10  and  O_11 
REMARK    5  A    between atoms: C_10  and  C_12 
REMARK    6  A    between atoms: C_15  and  O_16 
ROOT
HETATM    1  C   UNL     1      41.028 -12.615   2.463  1.00  0.00     0.258 C 
HETATM    2  N   UNL     1      39.994 -12.367   3.338  1.00  0.00    -0.350 N 
HETATM    3  O   UNL     1      42.177 -12.240   2.659  1.00  0.00    -0.267 OA
HETATM    4  H   UNL     1      39.107 -12.817   3.116  1.00  0.00     0.163 HD
ENDROOT
BRANCH   2   5
HETATM    5  C   UNL     1      40.191 -11.751   4.653  1.00  0.00     0.114 C 
HETATM    6  C   UNL     1      39.409 -10.435   4.743  1.00  0.00     0.035 C 
BRANCH   5   7
HETATM    7  C   UNL     1      39.791 -12.759   5.772  1.00  0.00     0.173 C 
BRANCH   7   8
HETATM    8  O   UNL     1      39.465 -12.076   6.989  1.00  0.00    -0.389 OA
HETATM    9  H   UNL     1      39.418 -12.752   7.687  1.00  0.00     0.210 HD
ENDBRANCH   7   8
BRANCH   7  10
HETATM   10  C   UNL     1      40.846 -13.817   6.019  1.00  0.00    -0.028 A 
HETATM   11  C   UNL     1      40.451 -15.136   6.287  1.00  0.00     0.012 A 
HETATM   12  C   UNL     1      41.405 -16.136   6.491  1.00  0.00     0.037 A 
HETATM   13  C   UNL     1      42.768 -15.846   6.423  1.00  0.00     0.068 A 
HETATM   14  C   UNL     1      43.171 -14.537   6.165  1.00  0.00     0.037 A 
HETATM   15  C   UNL     1      42.217 -13.531   5.967  1.00  0.00     0.012 A 
BRANCH  13  16
HETATM   16  O   UNL     1      43.592 -16.918   6.629  1.00  0.00    -0.356 OA
HETATM   17  C   UNL     1      44.123 -17.547   5.470  1.00  0.00     0.210 C 
ENDBRANCH  13  16
ENDBRANCH   7  10
ENDBRANCH   5   7
ENDBRANCH   2   5
BRANCH   1  18
HETATM   18  C   UNL     1      40.651 -13.381   1.286  1.00  0.00     0.105 A 
HETATM   19  C   UNL     1      40.140 -14.706   1.231  1.00  0.00     0.071 A 
HETATM   20  C   UNL     1      39.887 -15.630   2.368  1.00  0.00     0.073 C 
HETATM   21  N   UNL     1      39.879 -15.102  -0.020  1.00  0.00    -0.170 NA
HETATM   22  N   UNL     1      40.205 -14.043  -0.793  1.00  0.00    -0.225 N 
HETATM   23  C   UNL     1      40.693 -12.973  -0.037  1.00  0.00     0.168 A 
HETATM   24  C   UNL     1      40.096 -13.938  -2.175  1.00  0.00     0.122 A 
HETATM   25  N   UNL     1      41.091 -11.791  -0.618  1.00  0.00    -0.240 NA
HETATM   26  C   UNL     1      40.971 -11.733  -1.913  1.00  0.00     0.120 A 
HETATM   27  C   UNL     1      40.459 -12.811  -2.801  1.00  0.00     0.038 A 
ENDBRANCH   1  18
TORSDOF 6
ENDMDL
MODEL 10
REMARK VINA RESULT:      -6.6      1.880      2.226
REMARK  6 active torsions:
REMARK  status: ('A' for Active; 'I' for Inactive)
REMARK    1  A    between atoms: C_6  and  C_7 
REMARK       I    between atoms: C_7  and  N_8 
REMARK    2  A    between atoms: N_8  and  C_9 
REMARK    3  A    between atoms: C_9  and  C_10 
REMARK    4  A    between atoms: C_10  and  O_11 
REMARK    5  A    between atoms: C_10  and  C_12 
REMARK    6  A    between atoms: C_15  and  O_16 
ROOT
HETATM    1  C   UNL     1      42.873 -15.785   2.888  1.00  0.00     0.258 C 
HETATM    2  N   UNL     1      41.555 -15.433   3.080  1.00  0.00    -0.350 N 
HETATM    3  O   UNL     1      43.600 -15.237   2.068  1.00  0.00    -0.267 OA
HETATM    4  H   UNL     1      41.083 -15.890   3.859  1.00  0.00     0.163 HD
ENDROOT
BRANCH   2   5
HETATM    5  C   UNL     1      40.932 -14.281   2.422  1.00  0.00     0.114 C 
HETATM    6  C   UNL     1      40.421 -14.679   1.032  1.00  0.00     0.035 C 
BRANCH   5   7
HETATM    7  C   UNL     1      39.804 -13.705   3.329  1.00  0.00     0.173 C 
BRANCH   7   8
HETATM    8  O   UNL     1      38.540 -13.724   2.654  1.00  0.00    -0.389 OA
HETATM    9  H   UNL     1      37.964 -13.089   3.116  1.00  0.00     0.210 HD
ENDBRANCH   7   8
BRANCH   7  10
HETATM   10  C   UNL     1      40.113 -12.315   3.846  1.00  0.00    -0.028 A 
HETATM   11  C   UNL     1      39.202 -11.274   3.614  1.00  0.00     0.012 A 
HETATM   12  C   UNL     1      39.451  -9.989   4.105  1.00  0.00     0.037 A 
HETATM   13  C   UNL     1      40.604  -9.720   4.843  1.00  0.00     0.068 A 
HETATM   14  C   UNL     1      41.519 -10.745   5.072  1.00  0.00     0.037 A 
HETATM   15  C   UNL     1      41.275 -12.032   4.576  1.00  0.00     0.012 A 
BRANCH  13  16
HETATM   16  O   UNL     1      40.717  -8.427   5.274  1.00  0.00    -0.356 OA
HETATM   17  C   UNL     1      41.242  -7.487   4.345  1.00  0.00     0.210 C 
ENDBRANCH  13  16
ENDBRANCH   7  10
ENDBRANCH   5   7
ENDBRANCH   2   5
BRANCH   1  18
HETATM   18  C   UNL     1      43.345 -16.853   3.755  1.00  0.00     0.105 A 
HETATM   19  C   UNL     1      43.752 -16.761   5.112  1.00  0.00     0.071 A 
HETATM   20  C   UNL     1      43.807 -15.544   5.964  1.00  0.00     0.073 C 
HETATM   21  N   UNL     1      44.113 -17.946   5.618  1.00  0.00    -0.170 NA
HETATM   22  N   UNL     1      43.937 -18.822   4.606  1.00  0.00    -0.225 N 
HETATM   23  C   UNL     1      43.481 -18.195   3.443  1.00  0.00     0.168 A 
HETATM   24  C   UNL     1      44.152 -20.196   4.628  1.00  0.00     0.122 A 
HETATM   25  N   UNL     1      43.237 -18.896   2.284  1.00  0.00    -0.240 NA
HETATM   26  C   UNL     1      43.449 -20.178   2.347  1.00  0.00     0.120 A 
HETATM   27  C   UNL     1      43.927 -20.937   3.535  1.00  0.00     0.038 A 
ENDBRANCH   1  18
TORSDOF 6
ENDMDL
