MODEL 1
REMARK VINA RESULT:      -9.1      0.000      0.000
REMARK  8 active torsions:
REMARK  status: ('A' for Active; 'I' for Inactive)
REMARK    1  A    between atoms: O_2  and  C_3 
REMARK    2  A    between atoms: C_5  and  N_6 
REMARK       I    between atoms: N_6  and  C_7 
REMARK    3  A    between atoms: C_7  and  C_8 
REMARK    4  A    between atoms: C_8  and  O_9 
REMARK    5  A    between atoms: O_9  and  C_10 
REMARK    6  A    between atoms: C_13  and  C_14 
REMARK       I    between atoms: C_14  and  N_15 
REMARK    7  A    between atoms: N_15  and  C_16 
REMARK    8  A    between atoms: C_19  and  N_20 
ROOT
HETATM    1  C   UNL     1      43.888 -11.495   5.764  1.00  0.00     0.069 A 
HETATM    2  C   UNL     1      45.037 -11.663   6.532  1.00  0.00     0.038 A 
HETATM    3  C   UNL     1      45.078 -11.169   7.842  1.00  0.00     0.020 A 
HETATM    4  C   UNL     1      43.975 -10.499   8.390  1.00  0.00     0.032 A 
HETATM    5  C   UNL     1      42.843 -10.289   7.591  1.00  0.00     0.020 A 
HETATM    6  C   UNL     1      42.813 -10.768   6.280  1.00  0.00     0.038 A 
ENDROOT
BRANCH   4   7
HETATM    7  C   UNL     1      43.994 -10.169   9.851  1.00  0.00     0.256 C 
HETATM    8  N   UNL     1      43.227  -9.083  10.230  1.00  0.00    -0.323 N 
HETATM    9  H   UNL     1      42.967  -8.419   9.514  1.00  0.00     0.169 HD
HETATM   10  O   UNL     1      44.643 -10.886  10.604  1.00  0.00    -0.267 OA
BRANCH   8  11
HETATM   11  C   UNL     1      42.632  -8.878  11.492  1.00  0.00     0.035 A 
HETATM   12  C   UNL     1      41.305  -9.176  11.785  1.00  0.00     0.032 A 
HETATM   13  C   UNL     1      40.737  -8.774  13.004  1.00  0.00     0.031 A 
HETATM   14  C   UNL     1      41.470  -8.066  13.964  1.00  0.00     0.030 A 
HETATM   15  C   UNL     1      42.822  -7.830  13.672  1.00  0.00     0.031 A 
HETATM   16  C   UNL     1      43.399  -8.231  12.460  1.00  0.00     0.032 A 
BRANCH  14  17
HETATM   17  N   UNL     1      40.902  -7.526  15.117  1.00  0.00    -0.381 N 
HETATM   18  C   UNL     1      40.251  -6.213  14.992  1.00  0.00     0.123 C 
HETATM   19  C   UNL     1      39.165  -6.093  16.062  1.00  0.00     0.020 C 
HETATM   20  C   UNL     1      39.734  -6.332  17.460  1.00  0.00     0.003 C 
HETATM   21  C   UNL     1      40.492  -7.656  17.523  1.00  0.00     0.020 C 
HETATM   22  C   UNL     1      41.543  -7.761  16.417  1.00  0.00     0.123 C 
ENDBRANCH  14  17
ENDBRANCH   8  11
ENDBRANCH   4   7
BRANCH   1  23
HETATM   23  O   UNL     1      43.649 -12.059   4.541  1.00  0.00    -0.342 OA
BRANCH  23  24
HETATM   24  C   UNL     1      42.366 -12.634   4.319  1.00  0.00     0.278 C 
BRANCH  24  25
HETATM   25  C   UNL     1      42.214 -14.167   4.432  1.00  0.00     0.246 C 
HETATM   26  N   UNL     1      43.287 -14.867   3.908  1.00  0.00    -0.325 N 
HETATM   27  H   UNL     1      44.026 -14.299   3.510  1.00  0.00     0.169 HD
HETATM   28  O   UNL     1      41.213 -14.652   4.952  1.00  0.00    -0.271 OA
BRANCH  26  29
HETATM   29  C   UNL     1      43.408 -16.257   3.712  1.00  0.00     0.037 A 
HETATM   30  C   UNL     1      43.856 -17.149   4.691  1.00  0.00     0.066 A 
HETATM   31  C   UNL     1      43.923 -18.521   4.422  1.00  0.00     0.070 A 
HETATM   32  C   UNL     1      43.525 -18.998   3.171  1.00  0.00     0.037 A 
HETATM   33  C   UNL     1      43.080 -18.119   2.189  1.00  0.00     0.005 A 
HETATM   34  C   UNL     1      43.031 -16.751   2.457  1.00  0.00     0.029 A 
BRANCH  31  35
HETATM   35  O   UNL     1      44.350 -19.491   5.289  1.00  0.00    -0.356 OA
HETATM   36  C   UNL     1      43.989 -20.832   4.979  1.00  0.00     0.210 C 
ENDBRANCH  31  35
ENDBRANCH  26  29
ENDBRANCH  24  25
ENDBRANCH  23  24
ENDBRANCH   1  23
TORSDOF 8
ENDMDL
MODEL 2
REMARK VINA RESULT:      -9.0      2.504     11.776
REMARK  8 active torsions:
REMARK  status: ('A' for Active; 'I' for Inactive)
REMARK    1  A    between atoms: O_2  and  C_3 
REMARK    2  A    between atoms: C_5  and  N_6 
REMARK       I    between atoms: N_6  and  C_7 
REMARK    3  A    between atoms: C_7  and  C_8 
REMARK    4  A    between atoms: C_8  and  O_9 
REMARK    5  A    between atoms: O_9  and  C_10 
REMARK    6  A    between atoms: C_13  and  C_14 
REMARK       I    between atoms: C_14  and  N_15 
REMARK    7  A    between atoms: N_15  and  C_16 
REMARK    8  A    between atoms: C_19  and  N_20 
ROOT
HETATM    1  C   UNL     1      43.079  -8.101   7.928  1.00  0.00     0.069 A 
HETATM    2  C   UNL     1      44.249  -8.634   8.462  1.00  0.00     0.038 A 
HETATM    3  C   UNL     1      44.553  -9.986   8.260  1.00  0.00     0.020 A 
HETATM    4  C   UNL     1      43.690 -10.814   7.529  1.00  0.00     0.032 A 
HETATM    5  C   UNL     1      42.490 -10.280   7.040  1.00  0.00     0.020 A 
HETATM    6  C   UNL     1      42.181  -8.935   7.259  1.00  0.00     0.038 A 
ENDROOT
BRANCH   4   7
HETATM    7  C   UNL     1      44.154 -12.193   7.172  1.00  0.00     0.256 C 
HETATM    8  N   UNL     1      43.261 -13.214   7.440  1.00  0.00    -0.323 N 
HETATM    9  H   UNL     1      42.527 -13.032   8.109  1.00  0.00     0.169 HD
HETATM   10  O   UNL     1      45.253 -12.321   6.645  1.00  0.00    -0.267 OA
BRANCH   8  11
HETATM   11  C   UNL     1      43.172 -14.446   6.761  1.00  0.00     0.035 A 
HETATM   12  C   UNL     1      43.654 -15.650   7.266  1.00  0.00     0.032 A 
HETATM   13  C   UNL     1      43.695 -16.796   6.457  1.00  0.00     0.031 A 
HETATM   14  C   UNL     1      43.261 -16.779   5.126  1.00  0.00     0.030 A 
HETATM   15  C   UNL     1      42.725 -15.571   4.657  1.00  0.00     0.031 A 
HETATM   16  C   UNL     1      42.675 -14.422   5.458  1.00  0.00     0.032 A 
BRANCH  14  17
HETATM   17  N   UNL     1      43.422 -17.855   4.253  1.00  0.00    -0.381 N 
HETATM   18  C   UNL     1      44.370 -18.906   4.653  1.00  0.00     0.123 C 
HETATM   19  C   UNL     1      43.948 -20.226   4.007  1.00  0.00     0.020 C 
HETATM   20  C   UNL     1      43.833 -20.091   2.490  1.00  0.00     0.003 C 
HETATM   21  C   UNL     1      42.923 -18.923   2.112  1.00  0.00     0.020 C 
HETATM   22  C   UNL     1      43.348 -17.627   2.805  1.00  0.00     0.123 C 
ENDBRANCH  14  17
ENDBRANCH   8  11
ENDBRANCH   4   7
BRANCH   1  23
HETATM   23  O   UNL     1      42.736  -6.777   7.907  1.00  0.00    -0.342 OA
BRANCH  23  24
HETATM   24  C   UNL     1      42.920  -6.029   9.104  1.00  0.00     0.278 C 
BRANCH  24  25
HETATM   25  C   UNL     1      42.058  -6.382  10.336  1.00  0.00     0.246 C 
HETATM   26  N   UNL     1      42.782  -6.947  11.371  1.00  0.00    -0.325 N 
HETATM   27  H   UNL     1      43.772  -7.067  11.196  1.00  0.00     0.169 HD
HETATM   28  O   UNL     1      40.850  -6.156  10.331  1.00  0.00    -0.271 OA
BRANCH  26  29
HETATM   29  C   UNL     1      42.295  -7.518  12.564  1.00  0.00     0.037 A 
HETATM   30  C   UNL     1      41.361  -8.558  12.609  1.00  0.00     0.066 A 
HETATM   31  C   UNL     1      40.948  -9.086  13.837  1.00  0.00     0.070 A 
HETATM   32  C   UNL     1      41.486  -8.579  15.022  1.00  0.00     0.037 A 
HETATM   33  C   UNL     1      42.415  -7.543  14.989  1.00  0.00     0.005 A 
HETATM   34  C   UNL     1      42.811  -7.009  13.763  1.00  0.00     0.029 A 
BRANCH  31  35
HETATM   35  O   UNL     1      40.038 -10.095  14.015  1.00  0.00    -0.356 OA
HETATM   36  C   UNL     1      39.469 -10.658  12.840  1.00  0.00     0.210 C 
ENDBRANCH  31  35
ENDBRANCH  26  29
ENDBRANCH  24  25
ENDBRANCH  23  24
ENDBRANCH   1  23
TORSDOF 8
ENDMDL
MODEL 3
REMARK VINA RESULT:      -8.6      3.515     11.102
REMARK  8 active torsions:
REMARK  status: ('A' for Active; 'I' for Inactive)
REMARK    1  A    between atoms: O_2  and  C_3 
REMARK    2  A    between atoms: C_5  and  N_6 
REMARK       I    between atoms: N_6  and  C_7 
REMARK    3  A    between atoms: C_7  and  C_8 
REMARK    4  A    between atoms: C_8  and  O_9 
REMARK    5  A    between atoms: O_9  and  C_10 
REMARK    6  A    between atoms: C_13  and  C_14 
REMARK       I    between atoms: C_14  and  N_15 
REMARK    7  A    between atoms: N_15  and  C_16 
REMARK    8  A    between atoms: C_19  and  N_20 
ROOT
HETATM    1  C   UNL     1      39.368  -8.981   6.568  1.00  0.00     0.069 A 
HETATM    2  C   UNL     1      39.109 -10.346   6.664  1.00  0.00     0.038 A 
HETATM    3  C   UNL     1      40.026 -11.266   6.141  1.00  0.00     0.020 A 
HETATM    4  C   UNL     1      41.201 -10.830   5.514  1.00  0.00     0.032 A 
HETATM    5  C   UNL     1      41.426  -9.454   5.376  1.00  0.00     0.020 A 
HETATM    6  C   UNL     1      40.502  -8.539   5.884  1.00  0.00     0.038 A 
ENDROOT
BRANCH   4   7
HETATM    7  C   UNL     1      42.239 -11.849   5.151  1.00  0.00     0.256 C 
HETATM    8  N   UNL     1      41.998 -13.134   5.600  1.00  0.00    -0.323 N 
HETATM    9  H   UNL     1      41.350 -13.251   6.365  1.00  0.00     0.169 HD
HETATM   10  O   UNL     1      43.192 -11.494   4.467  1.00  0.00    -0.267 OA
BRANCH   8  11
HETATM   11  C   UNL     1      42.450 -14.327   4.999  1.00  0.00     0.035 A 
HETATM   12  C   UNL     1      41.987 -14.808   3.778  1.00  0.00     0.032 A 
HETATM   13  C   UNL     1      42.346 -16.090   3.335  1.00  0.00     0.031 A 
HETATM   14  C   UNL     1      43.173 -16.930   4.091  1.00  0.00     0.030 A 
HETATM   15  C   UNL     1      43.675 -16.402   5.289  1.00  0.00     0.031 A 
HETATM   16  C   UNL     1      43.327 -15.121   5.738  1.00  0.00     0.032 A 
BRANCH  14  17
HETATM   17  N   UNL     1      43.431 -18.258   3.753  1.00  0.00    -0.381 N 
HETATM   18  C   UNL     1      44.367 -18.998   4.612  1.00  0.00     0.123 C 
HETATM   19  C   UNL     1      44.031 -20.488   4.544  1.00  0.00     0.020 C 
HETATM   20  C   UNL     1      44.037 -20.994   3.103  1.00  0.00     0.003 C 
HETATM   21  C   UNL     1      43.133 -20.137   2.219  1.00  0.00     0.020 C 
HETATM   22  C   UNL     1      43.469 -18.650   2.339  1.00  0.00     0.123 C 
ENDBRANCH  14  17
ENDBRANCH   8  11
ENDBRANCH   4   7
BRANCH   1  23
HETATM   23  O   UNL     1      38.651  -7.983   7.170  1.00  0.00    -0.342 OA
BRANCH  23  24
HETATM   24  C   UNL     1      38.951  -7.682   8.528  1.00  0.00     0.278 C 
BRANCH  24  25
HETATM   25  C   UNL     1      39.968  -8.572   9.275  1.00  0.00     0.246 C 
HETATM   26  N   UNL     1      41.283  -8.184   9.087  1.00  0.00    -0.325 N 
HETATM   27  H   UNL     1      41.418  -7.381   8.484  1.00  0.00     0.169 HD
HETATM   28  O   UNL     1      39.579  -9.518   9.956  1.00  0.00    -0.271 OA
BRANCH  26  29
HETATM   29  C   UNL     1      42.455  -8.853   9.491  1.00  0.00     0.037 A 
HETATM   30  C   UNL     1      43.145  -9.773   8.696  1.00  0.00     0.066 A 
HETATM   31  C   UNL     1      44.318 -10.375   9.165  1.00  0.00     0.070 A 
HETATM   32  C   UNL     1      44.806 -10.041  10.430  1.00  0.00     0.037 A 
HETATM   33  C   UNL     1      44.126  -9.128  11.231  1.00  0.00     0.005 A 
HETATM   34  C   UNL     1      42.949  -8.543  10.765  1.00  0.00     0.029 A 
BRANCH  31  35
HETATM   35  O   UNL     1      45.077 -11.294   8.490  1.00  0.00    -0.356 OA
HETATM   36  C   UNL     1      45.856 -10.807   7.404  1.00  0.00     0.210 C 
ENDBRANCH  31  35
ENDBRANCH  26  29
ENDBRANCH  24  25
ENDBRANCH  23  24
ENDBRANCH   1  23
TORSDOF 8
ENDMDL
MODEL 4
REMARK VINA RESULT:      -8.6      1.735      2.824
REMARK  8 active torsions:
REMARK  status: ('A' for Active; 'I' for Inactive)
REMARK    1  A    between atoms: O_2  and  C_3 
REMARK    2  A    between atoms: C_5  and  N_6 
REMARK       I    between atoms: N_6  and  C_7 
REMARK    3  A    between atoms: C_7  and  C_8 
REMARK    4  A    between atoms: C_8  and  O_9 
REMARK    5  A    between atoms: O_9  and  C_10 
REMARK    6  A    between atoms: C_13  and  C_14 
REMARK       I    between atoms: C_14  and  N_15 
REMARK    7  A    between atoms: N_15  and  C_16 
REMARK    8  A    between atoms: C_19  and  N_20 
ROOT
HETATM    1  C   UNL     1      42.246 -12.473   3.737  1.00  0.00     0.069 A 
HETATM    2  C   UNL     1      41.684 -12.723   4.986  1.00  0.00     0.038 A 
HETATM    3  C   UNL     1      42.357 -12.317   6.146  1.00  0.00     0.020 A 
HETATM    4  C   UNL     1      43.595 -11.667   6.065  1.00  0.00     0.032 A 
HETATM    5  C   UNL     1      44.176 -11.467   4.806  1.00  0.00     0.020 A 
HETATM    6  C   UNL     1      43.511 -11.888   3.653  1.00  0.00     0.038 A 
ENDROOT
BRANCH   4   7
HETATM    7  C   UNL     1      44.176 -11.077   7.315  1.00  0.00     0.256 C 
HETATM    8  N   UNL     1      43.514  -9.975   7.821  1.00  0.00    -0.323 N 
HETATM    9  H   UNL     1      42.908  -9.462   7.196  1.00  0.00     0.169 HD
HETATM   10  O   UNL     1      45.155 -11.619   7.816  1.00  0.00    -0.267 OA
BRANCH   8  11
HETATM   11  C   UNL     1      43.473  -9.571   9.172  1.00  0.00     0.035 A 
HETATM   12  C   UNL     1      43.647 -10.435  10.248  1.00  0.00     0.032 A 
HETATM   13  C   UNL     1      43.410  -9.996  11.560  1.00  0.00     0.031 A 
HETATM   14  C   UNL     1      42.993  -8.689  11.839  1.00  0.00     0.030 A 
HETATM   15  C   UNL     1      42.882  -7.819  10.744  1.00  0.00     0.031 A 
HETATM   16  C   UNL     1      43.121  -8.247   9.431  1.00  0.00     0.032 A 
BRANCH  14  17
HETATM   17  N   UNL     1      42.609  -8.261  13.109  1.00  0.00    -0.381 N 
HETATM   18  C   UNL     1      43.495  -7.306  13.791  1.00  0.00     0.123 C 
HETATM   19  C   UNL     1      42.667  -6.470  14.767  1.00  0.00     0.020 C 
HETATM   20  C   UNL     1      41.899  -7.356  15.746  1.00  0.00     0.003 C 
HETATM   21  C   UNL     1      41.071  -8.403  15.003  1.00  0.00     0.020 C 
HETATM   22  C   UNL     1      41.920  -9.195  14.008  1.00  0.00     0.123 C 
ENDBRANCH  14  17
ENDBRANCH   8  11
ENDBRANCH   4   7
BRANCH   1  23
HETATM   23  O   UNL     1      41.635 -12.665   2.529  1.00  0.00    -0.342 OA
BRANCH  23  24
HETATM   24  C   UNL     1      41.991 -13.826   1.785  1.00  0.00     0.278 C 
BRANCH  24  25
HETATM   25  C   UNL     1      41.898 -15.203   2.479  1.00  0.00     0.246 C 
HETATM   26  N   UNL     1      43.080 -15.595   3.083  1.00  0.00    -0.325 N 
HETATM   27  H   UNL     1      43.853 -14.948   2.991  1.00  0.00     0.169 HD
HETATM   28  O   UNL     1      40.845 -15.835   2.460  1.00  0.00    -0.271 OA
BRANCH  26  29
HETATM   29  C   UNL     1      43.388 -16.841   3.665  1.00  0.00     0.037 A 
HETATM   30  C   UNL     1      43.468 -18.040   2.950  1.00  0.00     0.066 A 
HETATM   31  C   UNL     1      43.805 -19.232   3.601  1.00  0.00     0.070 A 
HETATM   32  C   UNL     1      44.076 -19.216   4.971  1.00  0.00     0.037 A 
HETATM   33  C   UNL     1      43.998 -18.029   5.693  1.00  0.00     0.005 A 
HETATM   34  C   UNL     1      43.645 -16.847   5.042  1.00  0.00     0.029 A 
BRANCH  31  35
HETATM   35  O   UNL     1      43.907 -20.468   3.018  1.00  0.00    -0.356 OA
HETATM   36  C   UNL     1      43.668 -20.537   1.618  1.00  0.00     0.210 C 
ENDBRANCH  31  35
ENDBRANCH  26  29
ENDBRANCH  24  25
ENDBRANCH  23  24
ENDBRANCH   1  23
TORSDOF 8
ENDMDL
MODEL 5
REMARK VINA RESULT:      -8.5      1.543      2.220
REMARK  8 active torsions:
REMARK  status: ('A' for Active; 'I' for Inactive)
REMARK    1  A    between atoms: O_2  and  C_3 
REMARK    2  A    between atoms: C_5  and  N_6 
REMARK       I    between atoms: N_6  and  C_7 
REMARK    3  A    between atoms: C_7  and  C_8 
REMARK    4  A    between atoms: C_8  and  O_9 
REMARK    5  A    between atoms: O_9  and  C_10 
REMARK    6  A    between atoms: C_13  and  C_14 
REMARK       I    between atoms: C_14  and  N_15 
REMARK    7  A    between atoms: N_15  and  C_16 
REMARK    8  A    between atoms: C_19  and  N_20 
ROOT
HETATM    1  C   UNL     1      42.202 -10.246   6.603  1.00  0.00     0.069 A 
HETATM    2  C   UNL     1      43.426 -10.717   7.071  1.00  0.00     0.038 A 
HETATM    3  C   UNL     1      43.798 -10.489   8.402  1.00  0.00     0.020 A 
HETATM    4  C   UNL     1      42.954  -9.783   9.270  1.00  0.00     0.032 A 
HETATM    5  C   UNL     1      41.749  -9.268   8.776  1.00  0.00     0.020 A 
HETATM    6  C   UNL     1      41.389  -9.483   7.443  1.00  0.00     0.038 A 
ENDROOT
BRANCH   4   7
HETATM    7  C   UNL     1      43.304  -9.739  10.727  1.00  0.00     0.256 C 
HETATM    8  N   UNL     1      43.019  -8.552  11.375  1.00  0.00    -0.323 N 
HETATM    9  H   UNL     1      42.897  -7.724  10.809  1.00  0.00     0.169 HD
HETATM   10  O   UNL     1      43.775 -10.745  11.245  1.00  0.00    -0.267 OA
BRANCH   8  11
HETATM   11  C   UNL     1      42.726  -8.397  12.746  1.00  0.00     0.035 A 
HETATM   12  C   UNL     1      41.759  -9.132  13.424  1.00  0.00     0.032 A 
HETATM   13  C   UNL     1      41.398  -8.794  14.737  1.00  0.00     0.031 A 
HETATM   14  C   UNL     1      41.987  -7.719  15.413  1.00  0.00     0.030 A 
HETATM   15  C   UNL     1      43.001  -7.030  14.732  1.00  0.00     0.031 A 
HETATM   16  C   UNL     1      43.372  -7.362  13.422  1.00  0.00     0.032 A 
BRANCH  14  17
HETATM   17  N   UNL     1      41.552  -7.266  16.658  1.00  0.00    -0.381 N 
HETATM   18  C   UNL     1      40.265  -7.783  17.148  1.00  0.00     0.123 C 
HETATM   19  C   UNL     1      40.268  -7.753  18.677  1.00  0.00     0.020 C 
HETATM   20  C   UNL     1      40.574  -6.353  19.205  1.00  0.00     0.003 C 
HETATM   21  C   UNL     1      41.863  -5.807  18.595  1.00  0.00     0.020 C 
HETATM   22  C   UNL     1      41.845  -5.887  17.068  1.00  0.00     0.123 C 
ENDBRANCH  14  17
ENDBRANCH   8  11
ENDBRANCH   4   7
BRANCH   1  23
HETATM   23  O   UNL     1      41.642 -10.531   5.388  1.00  0.00    -0.342 OA
BRANCH  23  24
HETATM   24  C   UNL     1      42.463 -10.391   4.234  1.00  0.00     0.278 C 
BRANCH  24  25
HETATM   25  C   UNL     1      43.208 -11.636   3.703  1.00  0.00     0.246 C 
HETATM   26  N   UNL     1      42.400 -12.755   3.591  1.00  0.00    -0.325 N 
HETATM   27  H   UNL     1      41.437 -12.628   3.876  1.00  0.00     0.169 HD
HETATM   28  O   UNL     1      44.402 -11.569   3.423  1.00  0.00    -0.271 OA
BRANCH  26  29
HETATM   29  C   UNL     1      42.782 -14.077   3.288  1.00  0.00     0.037 A 
HETATM   30  C   UNL     1      43.031 -15.060   4.252  1.00  0.00     0.066 A 
HETATM   31  C   UNL     1      43.381 -16.358   3.865  1.00  0.00     0.070 A 
HETATM   32  C   UNL     1      43.468 -16.673   2.507  1.00  0.00     0.037 A 
HETATM   33  C   UNL     1      43.224 -15.703   1.540  1.00  0.00     0.005 A 
HETATM   34  C   UNL     1      42.891 -14.406   1.931  1.00  0.00     0.029 A 
BRANCH  31  35
HETATM   35  O   UNL     1      43.657 -17.402   4.708  1.00  0.00    -0.356 OA
HETATM   36  C   UNL     1      43.960 -18.652   4.101  1.00  0.00     0.210 C 
ENDBRANCH  31  35
ENDBRANCH  26  29
ENDBRANCH  24  25
ENDBRANCH  23  24
ENDBRANCH   1  23
TORSDOF 8
ENDMDL
MODEL 6
REMARK VINA RESULT:      -8.5      2.762     12.410
REMARK  8 active torsions:
REMARK  status: ('A' for Active; 'I' for Inactive)
REMARK    1  A    between atoms: O_2  and  C_3 
REMARK    2  A    between atoms: C_5  and  N_6 
REMARK       I    between atoms: N_6  and  C_7 
REMARK    3  A    between atoms: C_7  and  C_8 
REMARK    4  A    between atoms: C_8  and  O_9 
REMARK    5  A    between atoms: O_9  and  C_10 
REMARK    6  A    between atoms: C_13  and  C_14 
REMARK       I    between atoms: C_14  and  N_15 
REMARK    7  A    between atoms: N_15  and  C_16 
REMARK    8  A    between atoms: C_19  and  N_20 
ROOT
HETATM    1  C   UNL     1      42.319  -8.349   7.648  1.00  0.00     0.069 A 
HETATM    2  C   UNL     1      43.284  -8.887   8.495  1.00  0.00     0.038 A 
HETATM    3  C   UNL     1      43.768 -10.182   8.266  1.00  0.00     0.020 A 
HETATM    4  C   UNL     1      43.287 -10.948   7.196  1.00  0.00     0.032 A 
HETATM    5  C   UNL     1      42.278 -10.417   6.381  1.00  0.00     0.020 A 
HETATM    6  C   UNL     1      41.786  -9.132   6.622  1.00  0.00     0.038 A 
ENDROOT
BRANCH   4   7
HETATM    7  C   UNL     1      43.975 -12.240   6.875  1.00  0.00     0.256 C 
HETATM    8  N   UNL     1      43.150 -13.339   6.736  1.00  0.00    -0.323 N 
HETATM    9  H   UNL     1      42.227 -13.289   7.144  1.00  0.00     0.169 HD
HETATM   10  O   UNL     1      45.192 -12.232   6.724  1.00  0.00    -0.267 OA
BRANCH   8  11
HETATM   11  C   UNL     1      43.403 -14.481   5.947  1.00  0.00     0.035 A 
HETATM   12  C   UNL     1      42.914 -14.659   4.657  1.00  0.00     0.032 A 
HETATM   13  C   UNL     1      43.053 -15.895   4.007  1.00  0.00     0.031 A 
HETATM   14  C   UNL     1      43.680 -16.988   4.620  1.00  0.00     0.030 A 
HETATM   15  C   UNL     1      44.217 -16.766   5.897  1.00  0.00     0.031 A 
HETATM   16  C   UNL     1      44.087 -15.535   6.552  1.00  0.00     0.032 A 
BRANCH  14  17
HETATM   17  N   UNL     1      43.706 -18.266   4.065  1.00  0.00    -0.381 N 
HETATM   18  C   UNL     1      44.411 -19.311   4.823  1.00  0.00     0.123 C 
HETATM   19  C   UNL     1      43.804 -20.671   4.476  1.00  0.00     0.020 C 
HETATM   20  C   UNL     1      43.831 -20.924   2.970  1.00  0.00     0.003 C 
HETATM   21  C   UNL     1      43.183 -19.769   2.209  1.00  0.00     0.020 C 
HETATM   22  C   UNL     1      43.785 -18.420   2.607  1.00  0.00     0.123 C 
ENDBRANCH  14  17
ENDBRANCH   8  11
ENDBRANCH   4   7
BRANCH   1  23
HETATM   23  O   UNL     1      41.877  -7.055   7.652  1.00  0.00    -0.342 OA
BRANCH  23  24
HETATM   24  C   UNL     1      40.625  -6.787   8.274  1.00  0.00     0.278 C 
BRANCH  24  25
HETATM   25  C   UNL     1      40.531  -6.874   9.813  1.00  0.00     0.246 C 
HETATM   26  N   UNL     1      41.685  -6.466  10.459  1.00  0.00    -0.325 N 
HETATM   27  H   UNL     1      42.443  -6.173   9.855  1.00  0.00     0.169 HD
HETATM   28  O   UNL     1      39.500  -7.274  10.347  1.00  0.00    -0.271 OA
BRANCH  26  29
HETATM   29  C   UNL     1      41.994  -6.558  11.831  1.00  0.00     0.037 A 
HETATM   30  C   UNL     1      41.447  -5.727  12.814  1.00  0.00     0.066 A 
HETATM   31  C   UNL     1      41.788  -5.902  14.159  1.00  0.00     0.070 A 
HETATM   32  C   UNL     1      42.670  -6.923  14.520  1.00  0.00     0.037 A 
HETATM   33  C   UNL     1      43.221  -7.754  13.550  1.00  0.00     0.005 A 
HETATM   34  C   UNL     1      42.891  -7.565  12.209  1.00  0.00     0.029 A 
BRANCH  31  35
HETATM   35  O   UNL     1      41.330  -5.152  15.210  1.00  0.00    -0.356 OA
HETATM   36  C   UNL     1      41.114  -3.768  14.964  1.00  0.00     0.210 C 
ENDBRANCH  31  35
ENDBRANCH  26  29
ENDBRANCH  24  25
ENDBRANCH  23  24
ENDBRANCH   1  23
TORSDOF 8
ENDMDL
MODEL 7
REMARK VINA RESULT:      -8.3      1.636      2.594
REMARK  8 active torsions:
REMARK  status: ('A' for Active; 'I' for Inactive)
REMARK    1  A    between atoms: O_2  and  C_3 
REMARK    2  A    between atoms: C_5  and  N_6 
REMARK       I    between atoms: N_6  and  C_7 
REMARK    3  A    between atoms: C_7  and  C_8 
REMARK    4  A    between atoms: C_8  and  O_9 
REMARK    5  A    between atoms: O_9  and  C_10 
REMARK    6  A    between atoms: C_13  and  C_14 
REMARK       I    between atoms: C_14  and  N_15 
REMARK    7  A    between atoms: N_15  and  C_16 
REMARK    8  A    between atoms: C_19  and  N_20 
ROOT
HETATM    1  C   UNL     1      42.623 -11.557   3.176  1.00  0.00     0.069 A 
HETATM    2  C   UNL     1      43.935 -11.843   3.543  1.00  0.00     0.038 A 
HETATM    3  C   UNL     1      44.372 -11.563   4.844  1.00  0.00     0.020 A 
HETATM    4  C   UNL     1      43.504 -10.990   5.783  1.00  0.00     0.032 A 
HETATM    5  C   UNL     1      42.201 -10.658   5.389  1.00  0.00     0.020 A 
HETATM    6  C   UNL     1      41.774 -10.923   4.085  1.00  0.00     0.038 A 
ENDROOT
BRANCH   4   7
HETATM    7  C   UNL     1      43.954 -10.895   7.209  1.00  0.00     0.256 C 
HETATM    8  N   UNL     1      43.913  -9.632   7.767  1.00  0.00    -0.323 N 
HETATM    9  H   UNL     1      43.891  -8.841   7.140  1.00  0.00     0.169 HD
HETATM   10  O   UNL     1      44.288 -11.925   7.786  1.00  0.00    -0.267 OA
BRANCH   8  11
HETATM   11  C   UNL     1      43.745  -9.327   9.134  1.00  0.00     0.035 A 
HETATM   12  C   UNL     1      43.693 -10.282  10.144  1.00  0.00     0.032 A 
HETATM   13  C   UNL     1      43.339  -9.916  11.452  1.00  0.00     0.031 A 
HETATM   14  C   UNL     1      43.028  -8.594  11.793  1.00  0.00     0.030 A 
HETATM   15  C   UNL     1      43.146  -7.640  10.772  1.00  0.00     0.031 A 
HETATM   16  C   UNL     1      43.502  -7.993   9.464  1.00  0.00     0.032 A 
BRANCH  14  17
HETATM   17  N   UNL     1      42.534  -8.221  13.042  1.00  0.00    -0.381 N 
HETATM   18  C   UNL     1      41.192  -8.701  13.402  1.00  0.00     0.123 C 
HETATM   19  C   UNL     1      41.091  -8.798  14.925  1.00  0.00     0.020 C 
HETATM   20  C   UNL     1      41.432  -7.466  15.590  1.00  0.00     0.003 C 
HETATM   21  C   UNL     1      42.787  -6.947  15.113  1.00  0.00     0.020 C 
HETATM   22  C   UNL     1      42.869  -6.899  13.586  1.00  0.00     0.123 C 
ENDBRANCH  14  17
ENDBRANCH   8  11
ENDBRANCH   4   7
BRANCH   1  23
HETATM   23  O   UNL     1      42.019 -11.921   2.004  1.00  0.00    -0.342 OA
BRANCH  23  24
HETATM   24  C   UNL     1      41.092 -13.001   2.047  1.00  0.00     0.278 C 
BRANCH  24  25
HETATM   25  C   UNL     1      41.406 -14.208   2.958  1.00  0.00     0.246 C 
HETATM   26  N   UNL     1      42.475 -14.967   2.517  1.00  0.00    -0.325 N 
HETATM   27  H   UNL     1      42.910 -14.652   1.658  1.00  0.00     0.169 HD
HETATM   28  O   UNL     1      40.732 -14.414   3.964  1.00  0.00    -0.271 OA
BRANCH  26  29
HETATM   29  C   UNL     1      42.930 -16.204   3.016  1.00  0.00     0.037 A 
HETATM   30  C   UNL     1      43.256 -16.435   4.356  1.00  0.00     0.066 A 
HETATM   31  C   UNL     1      43.677 -17.702   4.775  1.00  0.00     0.070 A 
HETATM   32  C   UNL     1      43.756 -18.743   3.848  1.00  0.00     0.037 A 
HETATM   33  C   UNL     1      43.436 -18.525   2.512  1.00  0.00     0.005 A 
HETATM   34  C   UNL     1      43.033 -17.256   2.096  1.00  0.00     0.029 A 
BRANCH  31  35
HETATM   35  O   UNL     1      44.031 -18.052   6.052  1.00  0.00    -0.356 OA
HETATM   36  C   UNL     1      43.627 -17.171   7.093  1.00  0.00     0.210 C 
ENDBRANCH  31  35
ENDBRANCH  26  29
ENDBRANCH  24  25
ENDBRANCH  23  24
ENDBRANCH   1  23
TORSDOF 8
ENDMDL
MODEL 8
REMARK VINA RESULT:      -8.3      3.585     12.680
REMARK  8 active torsions:
REMARK  status: ('A' for Active; 'I' for Inactive)
REMARK    1  A    between atoms: O_2  and  C_3 
REMARK    2  A    between atoms: C_5  and  N_6 
REMARK       I    between atoms: N_6  and  C_7 
REMARK    3  A    between atoms: C_7  and  C_8 
REMARK    4  A    between atoms: C_8  and  O_9 
REMARK    5  A    between atoms: O_9  and  C_10 
REMARK    6  A    between atoms: C_13  and  C_14 
REMARK       I    between atoms: C_14  and  N_15 
REMARK    7  A    between atoms: N_15  and  C_16 
REMARK    8  A    between atoms: C_19  and  N_20 
ROOT
HETATM    1  C   UNL     1      44.636 -10.241   7.963  1.00  0.00     0.069 A 
HETATM    2  C   UNL     1      45.615 -10.834   7.171  1.00  0.00     0.038 A 
HETATM    3  C   UNL     1      45.254 -11.463   5.972  1.00  0.00     0.020 A 
HETATM    4  C   UNL     1      43.915 -11.511   5.563  1.00  0.00     0.032 A 
HETATM    5  C   UNL     1      42.931 -10.957   6.394  1.00  0.00     0.020 A 
HETATM    6  C   UNL     1      43.293 -10.345   7.596  1.00  0.00     0.038 A 
ENDROOT
BRANCH   4   7
HETATM    7  C   UNL     1      43.605 -12.016   4.187  1.00  0.00     0.256 C 
HETATM    8  N   UNL     1      42.685 -13.045   4.119  1.00  0.00    -0.323 N 
HETATM    9  H   UNL     1      42.520 -13.583   4.957  1.00  0.00     0.169 HD
HETATM   10  O   UNL     1      44.147 -11.473   3.230  1.00  0.00    -0.267 OA
BRANCH   8  11
HETATM   11  C   UNL     1      41.830 -13.331   3.035  1.00  0.00     0.035 A 
HETATM   12  C   UNL     1      42.053 -14.352   2.117  1.00  0.00     0.032 A 
HETATM   13  C   UNL     1      41.260 -14.459   0.963  1.00  0.00     0.031 A 
HETATM   14  C   UNL     1      40.226 -13.555   0.690  1.00  0.00     0.030 A 
HETATM   15  C   UNL     1      39.982 -12.570   1.659  1.00  0.00     0.031 A 
HETATM   16  C   UNL     1      40.764 -12.459   2.815  1.00  0.00     0.032 A 
BRANCH  14  17
HETATM   17  N   UNL     1      39.517 -13.542  -0.511  1.00  0.00    -0.381 N 
HETATM   18  C   UNL     1      40.162 -14.164  -1.677  1.00  0.00     0.123 C 
HETATM   19  C   UNL     1      39.080 -14.656  -2.639  1.00  0.00     0.020 C 
HETATM   20  C   UNL     1      38.130 -13.526  -3.031  1.00  0.00     0.003 C 
HETATM   21  C   UNL     1      37.560 -12.836  -1.794  1.00  0.00     0.020 C 
HETATM   22  C   UNL     1      38.665 -12.391  -0.834  1.00  0.00     0.123 C 
ENDBRANCH  14  17
ENDBRANCH   8  11
ENDBRANCH   4   7
BRANCH   1  23
HETATM   23  O   UNL     1      44.858  -9.460   9.064  1.00  0.00    -0.342 OA
BRANCH  23  24
HETATM   24  C   UNL     1      44.318  -8.142   9.058  1.00  0.00     0.278 C 
BRANCH  24  25
HETATM   25  C   UNL     1      43.463  -7.690  10.261  1.00  0.00     0.246 C 
HETATM   26  N   UNL     1      43.645  -8.469  11.391  1.00  0.00    -0.325 N 
HETATM   27  H   UNL     1      44.299  -9.236  11.291  1.00  0.00     0.169 HD
HETATM   28  O   UNL     1      42.714  -6.721  10.158  1.00  0.00    -0.271 OA
BRANCH  26  29
HETATM   29  C   UNL     1      42.923  -8.431  12.600  1.00  0.00     0.037 A 
HETATM   30  C   UNL     1      43.205  -7.556  13.653  1.00  0.00     0.066 A 
HETATM   31  C   UNL     1      42.422  -7.567  14.813  1.00  0.00     0.070 A 
HETATM   32  C   UNL     1      41.344  -8.449  14.908  1.00  0.00     0.037 A 
HETATM   33  C   UNL     1      41.055  -9.326  13.867  1.00  0.00     0.005 A 
HETATM   34  C   UNL     1      41.849  -9.323  12.720  1.00  0.00     0.029 A 
BRANCH  31  35
HETATM   35  O   UNL     1      42.600  -6.769  15.912  1.00  0.00    -0.356 OA
HETATM   36  C   UNL     1      41.440  -6.142  16.444  1.00  0.00     0.210 C 
ENDBRANCH  31  35
ENDBRANCH  26  29
ENDBRANCH  24  25
ENDBRANCH  23  24
ENDBRANCH   1  23
TORSDOF 8
ENDMDL
MODEL 9
REMARK VINA RESULT:      -8.1      3.550     11.547
REMARK  8 active torsions:
REMARK  status: ('A' for Active; 'I' for Inactive)
REMARK    1  A    between atoms: O_2  and  C_3 
REMARK    2  A    between atoms: C_5  and  N_6 
REMARK       I    between atoms: N_6  and  C_7 
REMARK    3  A    between atoms: C_7  and  C_8 
REMARK    4  A    between atoms: C_8  and  O_9 
REMARK    5  A    between atoms: O_9  and  C_10 
REMARK    6  A    between atoms: C_13  and  C_14 
REMARK       I    between atoms: C_14  and  N_15 
REMARK    7  A    between atoms: N_15  and  C_16 
REMARK    8  A    between atoms: C_19  and  N_20 
ROOT
HETATM    1  C   UNL     1      39.985  -8.485   5.039  1.00  0.00     0.069 A 
HETATM    2  C   UNL     1      39.005  -9.472   4.978  1.00  0.00     0.038 A 
HETATM    3  C   UNL     1      39.251 -10.653   4.266  1.00  0.00     0.020 A 
HETATM    4  C   UNL     1      40.471 -10.852   3.607  1.00  0.00     0.032 A 
HETATM    5  C   UNL     1      41.430  -9.830   3.631  1.00  0.00     0.020 A 
HETATM    6  C   UNL     1      41.175  -8.647   4.328  1.00  0.00     0.038 A 
ENDROOT
BRANCH   4   7
HETATM    7  C   UNL     1      40.761 -12.205   3.031  1.00  0.00     0.256 C 
HETATM    8  N   UNL     1      42.097 -12.548   2.952  1.00  0.00    -0.323 N 
HETATM    9  H   UNL     1      42.777 -11.802   2.983  1.00  0.00     0.169 HD
HETATM   10  O   UNL     1      39.816 -12.917   2.709  1.00  0.00    -0.267 OA
BRANCH   8  11
HETATM   11  C   UNL     1      42.628 -13.854   2.986  1.00  0.00     0.035 A 
HETATM   12  C   UNL     1      42.948 -14.594   1.851  1.00  0.00     0.032 A 
HETATM   13  C   UNL     1      43.297 -15.949   1.959  1.00  0.00     0.031 A 
HETATM   14  C   UNL     1      43.336 -16.607   3.194  1.00  0.00     0.030 A 
HETATM   15  C   UNL     1      43.067 -15.827   4.329  1.00  0.00     0.031 A 
HETATM   16  C   UNL     1      42.723 -14.473   4.233  1.00  0.00     0.032 A 
BRANCH  14  17
HETATM   17  N   UNL     1      43.534 -17.981   3.325  1.00  0.00    -0.381 N 
HETATM   18  C   UNL     1      42.914 -18.846   2.310  1.00  0.00     0.123 C 
HETATM   19  C   UNL     1      43.729 -20.135   2.191  1.00  0.00     0.020 C 
HETATM   20  C   UNL     1      43.871 -20.830   3.544  1.00  0.00     0.003 C 
HETATM   21  C   UNL     1      44.420 -19.870   4.598  1.00  0.00     0.020 C 
HETATM   22  C   UNL     1      43.606 -18.577   4.664  1.00  0.00     0.123 C 
ENDBRANCH  14  17
ENDBRANCH   8  11
ENDBRANCH   4   7
BRANCH   1  23
HETATM   23  O   UNL     1      39.948  -7.363   5.822  1.00  0.00    -0.342 OA
BRANCH  23  24
HETATM   24  C   UNL     1      41.189  -6.761   6.172  1.00  0.00     0.278 C 
BRANCH  24  25
HETATM   25  C   UNL     1      41.786  -7.055   7.566  1.00  0.00     0.246 C 
HETATM   26  N   UNL     1      42.837  -7.955   7.536  1.00  0.00    -0.325 N 
HETATM   27  H   UNL     1      43.078  -8.314   6.620  1.00  0.00     0.169 HD
HETATM   28  O   UNL     1      41.325  -6.507   8.564  1.00  0.00    -0.271 OA
BRANCH  26  29
HETATM   29  C   UNL     1      43.502  -8.554   8.625  1.00  0.00     0.037 A 
HETATM   30  C   UNL     1      42.862  -8.983   9.792  1.00  0.00     0.066 A 
HETATM   31  C   UNL     1      43.594  -9.591  10.818  1.00  0.00     0.070 A 
HETATM   32  C   UNL     1      44.969  -9.782  10.664  1.00  0.00     0.037 A 
HETATM   33  C   UNL     1      45.616  -9.357   9.508  1.00  0.00     0.005 A 
HETATM   34  C   UNL     1      44.884  -8.736   8.496  1.00  0.00     0.029 A 
BRANCH  31  35
HETATM   35  O   UNL     1      43.089 -10.045  12.008  1.00  0.00    -0.356 OA
HETATM   36  C   UNL     1      41.687  -9.910  12.201  1.00  0.00     0.210 C 
ENDBRANCH  31  35
ENDBRANCH  26  29
ENDBRANCH  24  25
ENDBRANCH  23  24
ENDBRANCH   1  23
TORSDOF 8
ENDMDL
MODEL 10
REMARK VINA RESULT:      -8.0      3.104     13.130
REMARK  8 active torsions:
REMARK  status: ('A' for Active; 'I' for Inactive)
REMARK    1  A    between atoms: O_2  and  C_3 
REMARK    2  A    between atoms: C_5  and  N_6 
REMARK       I    between atoms: N_6  and  C_7 
REMARK    3  A    between atoms: C_7  and  C_8 
REMARK    4  A    between atoms: C_8  and  O_9 
REMARK    5  A    between atoms: O_9  and  C_10 
REMARK    6  A    between atoms: C_13  and  C_14 
REMARK       I    between atoms: C_14  and  N_15 
REMARK    7  A    between atoms: N_15  and  C_16 
REMARK    8  A    between atoms: C_19  and  N_20 
ROOT
HETATM    1  C   UNL     1      42.807  -7.511  11.721  1.00  0.00     0.069 A 
HETATM    2  C   UNL     1      42.815  -7.056  10.405  1.00  0.00     0.038 A 
HETATM    3  C   UNL     1      43.403  -7.838   9.402  1.00  0.00     0.020 A 
HETATM    4  C   UNL     1      43.991  -9.072   9.709  1.00  0.00     0.032 A 
HETATM    5  C   UNL     1      44.024  -9.496  11.044  1.00  0.00     0.020 A 
HETATM    6  C   UNL     1      43.452  -8.706  12.044  1.00  0.00     0.038 A 
ENDROOT
BRANCH   4   7
HETATM    7  C   UNL     1      44.425  -9.957   8.579  1.00  0.00     0.256 C 
HETATM    8  N   UNL     1      43.637 -11.069   8.353  1.00  0.00    -0.323 N 
HETATM    9  H   UNL     1      43.039 -11.382   9.104  1.00  0.00     0.169 HD
HETATM   10  O   UNL     1      45.406  -9.627   7.923  1.00  0.00    -0.267 OA
BRANCH   8  11
HETATM   11  C   UNL     1      43.461 -11.733   7.121  1.00  0.00     0.035 A 
HETATM   12  C   UNL     1      42.789 -11.188   6.032  1.00  0.00     0.032 A 
HETATM   13  C   UNL     1      42.495 -11.976   4.908  1.00  0.00     0.031 A 
HETATM   14  C   UNL     1      42.859 -13.326   4.836  1.00  0.00     0.030 A 
HETATM   15  C   UNL     1      43.587 -13.838   5.921  1.00  0.00     0.031 A 
HETATM   16  C   UNL     1      43.890 -13.058   7.044  1.00  0.00     0.032 A 
BRANCH  14  17
HETATM   17  N   UNL     1      42.458 -14.174   3.805  1.00  0.00    -0.381 N 
HETATM   18  C   UNL     1      43.199 -14.086   2.538  1.00  0.00     0.123 C 
HETATM   19  C   UNL     1      43.118 -15.434   1.820  1.00  0.00     0.020 C 
HETATM   20  C   UNL     1      41.668 -15.870   1.619  1.00  0.00     0.003 C 
HETATM   21  C   UNL     1      40.902 -15.849   2.940  1.00  0.00     0.020 C 
HETATM   22  C   UNL     1      41.035 -14.502   3.651  1.00  0.00     0.123 C 
ENDBRANCH  14  17
ENDBRANCH   8  11
ENDBRANCH   4   7
BRANCH   1  23
HETATM   23  O   UNL     1      42.135  -6.937  12.765  1.00  0.00    -0.342 OA
BRANCH  23  24
HETATM   24  C   UNL     1      41.427  -7.799  13.649  1.00  0.00     0.278 C 
BRANCH  24  25
HETATM   25  C   UNL     1      40.796  -7.195  14.923  1.00  0.00     0.246 C 
HETATM   26  N   UNL     1      41.492  -7.499  16.080  1.00  0.00    -0.325 N 
HETATM   27  H   UNL     1      42.312  -8.080  15.956  1.00  0.00     0.169 HD
HETATM   28  O   UNL     1      39.774  -6.517  14.844  1.00  0.00    -0.271 OA
BRANCH  26  29
HETATM   29  C   UNL     1      41.118  -7.241  17.413  1.00  0.00     0.037 A 
HETATM   30  C   UNL     1      40.289  -8.076  18.169  1.00  0.00     0.066 A 
HETATM   31  C   UNL     1      39.986  -7.759  19.498  1.00  0.00     0.070 A 
HETATM   32  C   UNL     1      40.529  -6.608  20.073  1.00  0.00     0.037 A 
HETATM   33  C   UNL     1      41.353  -5.769  19.330  1.00  0.00     0.005 A 
HETATM   34  C   UNL     1      41.639  -6.081  18.001  1.00  0.00     0.029 A 
BRANCH  31  35
HETATM   35  O   UNL     1      39.184  -8.487  20.337  1.00  0.00    -0.356 OA
HETATM   36  C   UNL     1      39.582  -8.561  21.700  1.00  0.00     0.210 C 
ENDBRANCH  31  35
ENDBRANCH  26  29
ENDBRANCH  24  25
ENDBRANCH  23  24
ENDBRANCH   1  23
TORSDOF 8
ENDMDL
