MODEL 1
REMARK VINA RESULT:      -7.5      0.000      0.000
REMARK  5 active torsions:
REMARK  status: ('A' for Active; 'I' for Inactive)
REMARK    1  A    between atoms: C_2  and  O_3 
REMARK    2  A    between atoms: O_3  and  C_4 
REMARK    3  A    between atoms: C_8  and  C_9 
REMARK    4  A    between atoms: C_9  and  N_10 
REMARK       I    between atoms: N_10  and  C_11 
REMARK    5  A    between atoms: C_11  and  C_12 
ROOT
HETATM    1  C   UNL     1      42.775 -16.093   7.300  1.00  0.00     0.161 C 
ENDROOT
BRANCH   1   2
HETATM    2  C   UNL     1      42.461 -14.781   6.638  1.00  0.00    -0.035 A 
HETATM    3  C   UNL     1      43.265 -13.662   6.866  1.00  0.00     0.028 A 
HETATM    4  C   UNL     1      42.921 -12.465   6.260  1.00  0.00     0.120 A 
HETATM    5  N   UNL     1      41.842 -12.308   5.464  1.00  0.00    -0.237 NA
HETATM    6  C   UNL     1      41.076 -13.394   5.257  1.00  0.00     0.165 A 
HETATM    7  C   UNL     1      41.343 -14.637   5.812  1.00  0.00     0.066 A 
BRANCH   6   8
HETATM    8  O   UNL     1      39.972 -13.330   4.438  1.00  0.00    -0.324 OA
BRANCH   8   9
HETATM    9  C   UNL     1      40.117 -13.506   3.016  1.00  0.00     0.058 C 
HETATM   10  C   UNL     1      39.770 -14.927   2.548  1.00  0.00     0.045 C 
HETATM   11  C   UNL     1      41.489 -13.042   2.507  1.00  0.00     0.045 C 
HETATM   12  C   UNL     1      39.056 -12.557   2.424  1.00  0.00     0.045 C 
ENDBRANCH   8   9
ENDBRANCH   6   8
ENDBRANCH   1   2
BRANCH   1  13
HETATM   13  N   UNL     1      42.802 -17.157   6.325  1.00  0.00    -0.353 N 
HETATM   14  C   UNL     1      43.926 -17.396   5.570  1.00  0.00     0.253 C 
HETATM   15  O   UNL     1      44.998 -16.832   5.756  1.00  0.00    -0.268 OA
HETATM   16  H   UNL     1      41.922 -17.570   6.046  1.00  0.00     0.163 HD
BRANCH  14  17
HETATM   17  C   UNL     1      43.816 -18.451   4.530  1.00  0.00     0.049 A 
HETATM   18  C   UNL     1      43.484 -18.221   3.188  1.00  0.00     0.026 A 
HETATM   19 BR   UNL     1      43.194 -16.490   2.459  1.00  0.00    -0.050 Br
HETATM   20  C   UNL     1      43.400 -19.298   2.297  1.00  0.00     0.020 A 
HETATM   21  C   UNL     1      43.654 -20.600   2.734  1.00  0.00     0.001 A 
HETATM   22  C   UNL     1      44.003 -20.832   4.062  1.00  0.00     0.001 A 
HETATM   23  C   UNL     1      44.089 -19.763   4.954  1.00  0.00     0.018 A 
ENDBRANCH  14  17
ENDBRANCH   1  13
TORSDOF 5
ENDMDL
MODEL 2
REMARK VINA RESULT:      -7.4      2.069      3.796
REMARK  5 active torsions:
REMARK  status: ('A' for Active; 'I' for Inactive)
REMARK    1  A    between atoms: C_2  and  O_3 
REMARK    2  A    between atoms: O_3  and  C_4 
REMARK    3  A    between atoms: C_8  and  C_9 
REMARK    4  A    between atoms: C_9  and  N_10 
REMARK       I    between atoms: N_10  and  C_11 
REMARK    5  A    between atoms: C_11  and  C_12 
ROOT
HETATM    1  C   UNL     1      40.936 -15.344   1.949  1.00  0.00     0.161 C 
ENDROOT
BRANCH   1   2
HETATM    2  C   UNL     1      40.694 -14.264   2.964  1.00  0.00    -0.035 A 
HETATM    3  C   UNL     1      39.599 -13.406   2.840  1.00  0.00     0.028 A 
HETATM    4  C   UNL     1      39.431 -12.406   3.783  1.00  0.00     0.120 A 
HETATM    5  N   UNL     1      40.273 -12.198   4.818  1.00  0.00    -0.237 NA
HETATM    6  C   UNL     1      41.325 -13.029   4.921  1.00  0.00     0.165 A 
HETATM    7  C   UNL     1      41.573 -14.066   4.033  1.00  0.00     0.066 A 
BRANCH   6   8
HETATM    8  O   UNL     1      42.219 -12.906   5.960  1.00  0.00    -0.324 OA
BRANCH   8   9
HETATM    9  C   UNL     1      43.212 -11.864   5.938  1.00  0.00     0.058 C 
HETATM   10  C   UNL     1      42.794 -10.617   6.731  1.00  0.00     0.045 C 
HETATM   11  C   UNL     1      43.670 -11.523   4.512  1.00  0.00     0.045 C 
HETATM   12  C   UNL     1      44.413 -12.493   6.673  1.00  0.00     0.045 C 
ENDBRANCH   8   9
ENDBRANCH   6   8
ENDBRANCH   1   2
BRANCH   1  13
HETATM   13  N   UNL     1      41.521 -16.505   2.575  1.00  0.00    -0.353 N 
HETATM   14  C   UNL     1      42.800 -16.906   2.267  1.00  0.00     0.253 C 
HETATM   15  O   UNL     1      43.562 -16.252   1.565  1.00  0.00    -0.268 OA
HETATM   16  H   UNL     1      40.907 -17.144   3.063  1.00  0.00     0.163 HD
BRANCH  14  17
HETATM   17  C   UNL     1      43.271 -18.167   2.895  1.00  0.00     0.049 A 
HETATM   18  C   UNL     1      43.810 -18.267   4.184  1.00  0.00     0.026 A 
HETATM   19 BR   UNL     1      43.954 -16.798   5.381  1.00  0.00    -0.050 Br
HETATM   20  C   UNL     1      44.232 -19.512   4.667  1.00  0.00     0.020 A 
HETATM   21  C   UNL     1      44.110 -20.657   3.877  1.00  0.00     0.001 A 
HETATM   22  C   UNL     1      43.558 -20.567   2.602  1.00  0.00     0.001 A 
HETATM   23  C   UNL     1      43.136 -19.329   2.115  1.00  0.00     0.018 A 
ENDBRANCH  14  17
ENDBRANCH   1  13
TORSDOF 5
ENDMDL
MODEL 3
REMARK VINA RESULT:      -7.1      3.221      5.249
REMARK  5 active torsions:
REMARK  status: ('A' for Active; 'I' for Inactive)
REMARK    1  A    between atoms: C_2  and  O_3 
REMARK    2  A    between atoms: O_3  and  C_4 
REMARK    3  A    between atoms: C_8  and  C_9 
REMARK    4  A    between atoms: C_9  and  N_10 
REMARK       I    between atoms: N_10  and  C_11 
REMARK    5  A    between atoms: C_11  and  C_12 
ROOT
HETATM    1  C   UNL     1      42.594 -12.422   4.639  1.00  0.00     0.161 C 
ENDROOT
BRANCH   1   2
HETATM    2  C   UNL     1      43.647 -11.938   5.594  1.00  0.00    -0.035 A 
HETATM    3  C   UNL     1      44.919 -11.591   5.132  1.00  0.00     0.028 A 
HETATM    4  C   UNL     1      45.868 -11.179   6.052  1.00  0.00     0.120 A 
HETATM    5  N   UNL     1      45.644 -11.101   7.380  1.00  0.00    -0.237 NA
HETATM    6  C   UNL     1      44.417 -11.443   7.811  1.00  0.00     0.165 A 
HETATM    7  C   UNL     1      43.397 -11.859   6.967  1.00  0.00     0.066 A 
BRANCH   6   8
HETATM    8  O   UNL     1      44.094 -11.368   9.146  1.00  0.00    -0.324 OA
BRANCH   8   9
HETATM    9  C   UNL     1      44.006 -10.087   9.797  1.00  0.00     0.058 C 
HETATM   10  C   UNL     1      43.156  -9.073   9.017  1.00  0.00     0.045 C 
HETATM   11  C   UNL     1      45.386  -9.526  10.172  1.00  0.00     0.045 C 
HETATM   12  C   UNL     1      43.259 -10.397  11.110  1.00  0.00     0.045 C 
ENDBRANCH   8   9
ENDBRANCH   6   8
ENDBRANCH   1   2
BRANCH   1  13
HETATM   13  N   UNL     1      42.937 -13.727   4.127  1.00  0.00    -0.353 N 
HETATM   14  C   UNL     1      42.363 -14.863   4.644  1.00  0.00     0.253 C 
HETATM   15  O   UNL     1      41.447 -14.847   5.458  1.00  0.00    -0.268 OA
HETATM   16  H   UNL     1      43.763 -13.810   3.548  1.00  0.00     0.163 HD
BRANCH  14  17
HETATM   17  C   UNL     1      42.856 -16.160   4.113  1.00  0.00     0.049 A 
HETATM   18  C   UNL     1      43.776 -16.993   4.762  1.00  0.00     0.026 A 
HETATM   19 BR   UNL     1      44.489 -16.631   6.486  1.00  0.00    -0.050 Br
HETATM   20  C   UNL     1      44.178 -18.191   4.157  1.00  0.00     0.020 A 
HETATM   21  C   UNL     1      43.660 -18.566   2.916  1.00  0.00     0.001 A 
HETATM   22  C   UNL     1      42.731 -17.751   2.275  1.00  0.00     0.001 A 
HETATM   23  C   UNL     1      42.328 -16.556   2.872  1.00  0.00     0.018 A 
ENDBRANCH  14  17
ENDBRANCH   1  13
TORSDOF 5
ENDMDL
MODEL 4
REMARK VINA RESULT:      -7.1      3.194      4.508
REMARK  5 active torsions:
REMARK  status: ('A' for Active; 'I' for Inactive)
REMARK    1  A    between atoms: C_2  and  O_3 
REMARK    2  A    between atoms: O_3  and  C_4 
REMARK    3  A    between atoms: C_8  and  C_9 
REMARK    4  A    between atoms: C_9  and  N_10 
REMARK       I    between atoms: N_10  and  C_11 
REMARK    5  A    between atoms: C_11  and  C_12 
ROOT
HETATM    1  C   UNL     1      42.955 -13.173   2.540  1.00  0.00     0.161 C 
ENDROOT
BRANCH   1   2
HETATM    2  C   UNL     1      41.650 -12.884   1.855  1.00  0.00    -0.035 A 
HETATM    3  C   UNL     1      40.914 -11.743   2.184  1.00  0.00     0.028 A 
HETATM    4  C   UNL     1      39.701 -11.532   1.550  1.00  0.00     0.120 A 
HETATM    5  N   UNL     1      39.176 -12.372   0.633  1.00  0.00    -0.237 NA
HETATM    6  C   UNL     1      39.893 -13.469   0.330  1.00  0.00     0.165 A 
HETATM    7  C   UNL     1      41.122 -13.762   0.904  1.00  0.00     0.066 A 
BRANCH   6   8
HETATM    8  O   UNL     1      39.445 -14.365  -0.611  1.00  0.00    -0.324 OA
BRANCH   8   9
HETATM    9  C   UNL     1      39.153 -13.920  -1.950  1.00  0.00     0.058 C 
HETATM   10  C   UNL     1      40.359 -13.269  -2.644  1.00  0.00     0.045 C 
HETATM   11  C   UNL     1      37.898 -13.038  -2.012  1.00  0.00     0.045 C 
HETATM   12  C   UNL     1      38.840 -15.227  -2.706  1.00  0.00     0.045 C 
ENDBRANCH   8   9
ENDBRANCH   6   8
ENDBRANCH   1   2
BRANCH   1  13
HETATM   13  N   UNL     1      43.223 -14.591   2.541  1.00  0.00    -0.353 N 
HETATM   14  C   UNL     1      42.797 -15.390   3.576  1.00  0.00     0.253 C 
HETATM   15  O   UNL     1      42.065 -14.996   4.477  1.00  0.00    -0.268 OA
HETATM   16  H   UNL     1      43.916 -14.946   1.895  1.00  0.00     0.163 HD
BRANCH  14  17
HETATM   17  C   UNL     1      43.207 -16.817   3.527  1.00  0.00     0.049 A 
HETATM   18  C   UNL     1      43.937 -17.474   4.526  1.00  0.00     0.026 A 
HETATM   19 BR   UNL     1      44.458 -16.655   6.160  1.00  0.00    -0.050 Br
HETATM   20  C   UNL     1      44.277 -18.824   4.365  1.00  0.00     0.020 A 
HETATM   21  C   UNL     1      43.886 -19.522   3.221  1.00  0.00     0.001 A 
HETATM   22  C   UNL     1      43.144 -18.878   2.234  1.00  0.00     0.001 A 
HETATM   23  C   UNL     1      42.802 -17.534   2.388  1.00  0.00     0.018 A 
ENDBRANCH  14  17
ENDBRANCH   1  13
TORSDOF 5
ENDMDL
MODEL 5
REMARK VINA RESULT:      -6.9      3.354      4.766
REMARK  5 active torsions:
REMARK  status: ('A' for Active; 'I' for Inactive)
REMARK    1  A    between atoms: C_2  and  O_3 
REMARK    2  A    between atoms: O_3  and  C_4 
REMARK    3  A    between atoms: C_8  and  C_9 
REMARK    4  A    between atoms: C_9  and  N_10 
REMARK       I    between atoms: N_10  and  C_11 
REMARK    5  A    between atoms: C_11  and  C_12 
ROOT
HETATM    1  C   UNL     1      40.812 -14.409   3.098  1.00  0.00     0.161 C 
ENDROOT
BRANCH   1   2
HETATM    2  C   UNL     1      40.549 -14.184   1.636  1.00  0.00    -0.035 A 
HETATM    3  C   UNL     1      39.952 -15.182   0.861  1.00  0.00     0.028 A 
HETATM    4  C   UNL     1      39.756 -14.943  -0.488  1.00  0.00     0.120 A 
HETATM    5  N   UNL     1      40.116 -13.800  -1.110  1.00  0.00    -0.237 NA
HETATM    6  C   UNL     1      40.693 -12.851  -0.352  1.00  0.00     0.165 A 
HETATM    7  C   UNL     1      40.924 -12.993   1.009  1.00  0.00     0.066 A 
BRANCH   6   8
HETATM    8  O   UNL     1      41.068 -11.646  -0.899  1.00  0.00    -0.324 OA
BRANCH   8   9
HETATM    9  C   UNL     1      40.070 -10.746  -1.416  1.00  0.00     0.058 C 
HETATM   10  C   UNL     1      38.772 -10.751  -0.595  1.00  0.00     0.045 C 
HETATM   11  C   UNL     1      39.814 -10.957  -2.916  1.00  0.00     0.045 C 
HETATM   12  C   UNL     1      40.713  -9.355  -1.247  1.00  0.00     0.045 C 
ENDBRANCH   8   9
ENDBRANCH   6   8
ENDBRANCH   1   2
BRANCH   1  13
HETATM   13  N   UNL     1      41.375 -15.721   3.314  1.00  0.00    -0.353 N 
HETATM   14  C   UNL     1      42.698 -15.976   3.045  1.00  0.00     0.253 C 
HETATM   15  O   UNL     1      43.506 -15.105   2.742  1.00  0.00    -0.268 OA
HETATM   16  H   UNL     1      40.738 -16.496   3.445  1.00  0.00     0.163 HD
BRANCH  14  17
HETATM   17  C   UNL     1      43.152 -17.380   3.211  1.00  0.00     0.049 A 
HETATM   18  C   UNL     1      43.839 -17.873   4.328  1.00  0.00     0.026 A 
HETATM   19 BR   UNL     1      44.235 -16.827   5.865  1.00  0.00    -0.050 Br
HETATM   20  C   UNL     1      44.228 -19.218   4.369  1.00  0.00     0.020 A 
HETATM   21  C   UNL     1      43.928 -20.075   3.307  1.00  0.00     0.001 A 
HETATM   22  C   UNL     1      43.229 -19.595   2.203  1.00  0.00     0.001 A 
HETATM   23  C   UNL     1      42.839 -18.256   2.157  1.00  0.00     0.018 A 
ENDBRANCH  14  17
ENDBRANCH   1  13
TORSDOF 5
ENDMDL
MODEL 6
REMARK VINA RESULT:      -6.8      3.389      7.403
REMARK  5 active torsions:
REMARK  status: ('A' for Active; 'I' for Inactive)
REMARK    1  A    between atoms: C_2  and  O_3 
REMARK    2  A    between atoms: O_3  and  C_4 
REMARK    3  A    between atoms: C_8  and  C_9 
REMARK    4  A    between atoms: C_9  and  N_10 
REMARK       I    between atoms: N_10  and  C_11 
REMARK    5  A    between atoms: C_11  and  C_12 
ROOT
HETATM    1  C   UNL     1      41.526 -12.073   5.620  1.00  0.00     0.161 C 
ENDROOT
BRANCH   1   2
HETATM    2  C   UNL     1      41.412 -13.570   5.567  1.00  0.00    -0.035 A 
HETATM    3  C   UNL     1      40.463 -14.237   6.346  1.00  0.00     0.028 A 
HETATM    4  C   UNL     1      40.413 -15.619   6.288  1.00  0.00     0.120 A 
HETATM    5  N   UNL     1      41.237 -16.371   5.528  1.00  0.00    -0.237 NA
HETATM    6  C   UNL     1      42.148 -15.715   4.787  1.00  0.00     0.165 A 
HETATM    7  C   UNL     1      42.270 -14.333   4.770  1.00  0.00     0.066 A 
BRANCH   6   8
HETATM    8  O   UNL     1      43.010 -16.401   3.963  1.00  0.00    -0.324 OA
BRANCH   8   9
HETATM    9  C   UNL     1      42.673 -16.610   2.579  1.00  0.00     0.058 C 
HETATM   10  C   UNL     1      43.511 -15.753   1.619  1.00  0.00     0.045 C 
HETATM   11  C   UNL     1      41.165 -16.475   2.318  1.00  0.00     0.045 C 
HETATM   12  C   UNL     1      43.056 -18.083   2.331  1.00  0.00     0.045 C 
ENDBRANCH   8   9
ENDBRANCH   6   8
ENDBRANCH   1   2
BRANCH   1  13
HETATM   13  N   UNL     1      42.219 -11.661   6.817  1.00  0.00    -0.353 N 
HETATM   14  C   UNL     1      42.535 -10.341   7.033  1.00  0.00     0.253 C 
HETATM   15  O   UNL     1      42.146  -9.427   6.315  1.00  0.00    -0.268 OA
HETATM   16  H   UNL     1      42.665 -12.375   7.379  1.00  0.00     0.163 HD
BRANCH  14  17
HETATM   17  C   UNL     1      43.332 -10.038   8.249  1.00  0.00     0.049 A 
HETATM   18  C   UNL     1      44.700 -10.301   8.396  1.00  0.00     0.026 A 
HETATM   19 BR   UNL     1      45.786 -11.027   7.015  1.00  0.00    -0.050 Br
HETATM   20  C   UNL     1      45.346  -9.981   9.597  1.00  0.00     0.020 A 
HETATM   21  C   UNL     1      44.638  -9.391  10.646  1.00  0.00     0.001 A 
HETATM   22  C   UNL     1      43.282  -9.109  10.499  1.00  0.00     0.001 A 
HETATM   23  C   UNL     1      42.634  -9.427   9.305  1.00  0.00     0.018 A 
ENDBRANCH  14  17
ENDBRANCH   1  13
TORSDOF 5
ENDMDL
MODEL 7
REMARK VINA RESULT:      -6.6      4.530      7.893
REMARK  5 active torsions:
REMARK  status: ('A' for Active; 'I' for Inactive)
REMARK    1  A    between atoms: C_2  and  O_3 
REMARK    2  A    between atoms: O_3  and  C_4 
REMARK    3  A    between atoms: C_8  and  C_9 
REMARK    4  A    between atoms: C_9  and  N_10 
REMARK       I    between atoms: N_10  and  C_11 
REMARK    5  A    between atoms: C_11  and  C_12 
ROOT
HETATM    1  C   UNL     1      44.177 -12.073   7.014  1.00  0.00     0.161 C 
ENDROOT
BRANCH   1   2
HETATM    2  C   UNL     1      43.043 -12.650   6.217  1.00  0.00    -0.035 A 
HETATM    3  C   UNL     1      41.859 -11.928   6.043  1.00  0.00     0.028 A 
HETATM    4  C   UNL     1      40.828 -12.511   5.326  1.00  0.00     0.120 A 
HETATM    5  N   UNL     1      40.890 -13.748   4.788  1.00  0.00    -0.237 NA
HETATM    6  C   UNL     1      42.035 -14.432   4.968  1.00  0.00     0.165 A 
HETATM    7  C   UNL     1      43.126 -13.930   5.663  1.00  0.00     0.066 A 
BRANCH   6   8
HETATM    8  O   UNL     1      42.194 -15.689   4.432  1.00  0.00    -0.324 OA
BRANCH   8   9
HETATM    9  C   UNL     1      42.381 -15.850   3.014  1.00  0.00     0.058 C 
HETATM   10  C   UNL     1      43.181 -14.703   2.378  1.00  0.00     0.045 C 
HETATM   11  C   UNL     1      41.061 -16.120   2.277  1.00  0.00     0.045 C 
HETATM   12  C   UNL     1      43.243 -17.125   2.905  1.00  0.00     0.045 C 
ENDBRANCH   8   9
ENDBRANCH   6   8
ENDBRANCH   1   2
BRANCH   1  13
HETATM   13  N   UNL     1      43.674 -11.310   8.131  1.00  0.00    -0.353 N 
HETATM   14  C   UNL     1      44.530 -10.762   9.056  1.00  0.00     0.253 C 
HETATM   15  O   UNL     1      45.749 -10.763   8.933  1.00  0.00    -0.268 OA
HETATM   16  H   UNL     1      42.688 -11.378   8.348  1.00  0.00     0.163 HD
BRANCH  14  17
HETATM   17  C   UNL     1      43.905 -10.078  10.218  1.00  0.00     0.049 A 
HETATM   18  C   UNL     1      43.592  -8.714  10.270  1.00  0.00     0.026 A 
HETATM   19 BR   UNL     1      43.847  -7.519   8.814  1.00  0.00    -0.050 Br
HETATM   20  C   UNL     1      43.013  -8.177  11.427  1.00  0.00     0.020 A 
HETATM   21  C   UNL     1      42.736  -8.993  12.526  1.00  0.00     0.001 A 
HETATM   22  C   UNL     1      43.028 -10.354  12.472  1.00  0.00     0.001 A 
HETATM   23  C   UNL     1      43.605 -10.894  11.322  1.00  0.00     0.018 A 
ENDBRANCH  14  17
ENDBRANCH   1  13
TORSDOF 5
ENDMDL
MODEL 8
REMARK VINA RESULT:      -6.6      3.496      7.232
REMARK  5 active torsions:
REMARK  status: ('A' for Active; 'I' for Inactive)
REMARK    1  A    between atoms: C_2  and  O_3 
REMARK    2  A    between atoms: O_3  and  C_4 
REMARK    3  A    between atoms: C_8  and  C_9 
REMARK    4  A    between atoms: C_9  and  N_10 
REMARK       I    between atoms: N_10  and  C_11 
REMARK    5  A    between atoms: C_11  and  C_12 
ROOT
HETATM    1  C   UNL     1      41.119 -12.218   5.351  1.00  0.00     0.161 C 
ENDROOT
BRANCH   1   2
HETATM    2  C   UNL     1      40.920 -13.707   5.320  1.00  0.00    -0.035 A 
HETATM    3  C   UNL     1      40.427 -14.380   6.440  1.00  0.00     0.028 A 
HETATM    4  C   UNL     1      40.289 -15.756   6.378  1.00  0.00     0.120 A 
HETATM    5  N   UNL     1      40.613 -16.497   5.298  1.00  0.00    -0.237 NA
HETATM    6  C   UNL     1      41.092 -15.835   4.228  1.00  0.00     0.165 A 
HETATM    7  C   UNL     1      41.258 -14.458   4.191  1.00  0.00     0.066 A 
BRANCH   6   8
HETATM    8  O   UNL     1      41.423 -16.509   3.076  1.00  0.00    -0.324 OA
BRANCH   8   9
HETATM    9  C   UNL     1      42.774 -16.964   2.869  1.00  0.00     0.058 C 
HETATM   10  C   UNL     1      42.848 -18.404   2.339  1.00  0.00     0.045 C 
HETATM   11  C   UNL     1      43.659 -16.751   4.106  1.00  0.00     0.045 C 
HETATM   12  C   UNL     1      43.302 -16.038   1.755  1.00  0.00     0.045 C 
ENDBRANCH   8   9
ENDBRANCH   6   8
ENDBRANCH   1   2
BRANCH   1  13
HETATM   13  N   UNL     1      41.985 -11.846   6.444  1.00  0.00    -0.353 N 
HETATM   14  C   UNL     1      42.438 -10.555   6.578  1.00  0.00     0.253 C 
HETATM   15  O   UNL     1      42.045  -9.625   5.884  1.00  0.00    -0.268 OA
HETATM   16  H   UNL     1      42.432 -12.585   6.970  1.00  0.00     0.163 HD
BRANCH  14  17
HETATM   17  C   UNL     1      43.400 -10.299   7.681  1.00  0.00     0.049 A 
HETATM   18  C   UNL     1      43.089  -9.640   8.877  1.00  0.00     0.026 A 
HETATM   19 BR   UNL     1      41.344  -9.030   9.320  1.00  0.00    -0.050 Br
HETATM   20  C   UNL     1      44.084  -9.446   9.844  1.00  0.00     0.020 A 
HETATM   21  C   UNL     1      45.383  -9.913   9.628  1.00  0.00     0.001 A 
HETATM   22  C   UNL     1      45.692 -10.585   8.448  1.00  0.00     0.001 A 
HETATM   23  C   UNL     1      44.705 -10.781   7.482  1.00  0.00     0.018 A 
ENDBRANCH  14  17
ENDBRANCH   1  13
TORSDOF 5
ENDMDL
MODEL 9
REMARK VINA RESULT:      -6.5      3.579      7.089
REMARK  5 active torsions:
REMARK  status: ('A' for Active; 'I' for Inactive)
REMARK    1  A    between atoms: C_2  and  O_3 
REMARK    2  A    between atoms: O_3  and  C_4 
REMARK    3  A    between atoms: C_8  and  C_9 
REMARK    4  A    between atoms: C_9  and  N_10 
REMARK       I    between atoms: N_10  and  C_11 
REMARK    5  A    between atoms: C_11  and  C_12 
ROOT
HETATM    1  C   UNL     1      42.127 -12.855   1.733  1.00  0.00     0.161 C 
ENDROOT
BRANCH   1   2
HETATM    2  C   UNL     1      42.492 -14.165   2.372  1.00  0.00    -0.035 A 
HETATM    3  C   UNL     1      42.986 -15.218   1.598  1.00  0.00     0.028 A 
HETATM    4  C   UNL     1      43.281 -16.417   2.224  1.00  0.00     0.120 A 
HETATM    5  N   UNL     1      43.110 -16.639   3.545  1.00  0.00    -0.237 NA
HETATM    6  C   UNL     1      42.630 -15.617   4.276  1.00  0.00     0.165 A 
HETATM    7  C   UNL     1      42.314 -14.376   3.742  1.00  0.00     0.066 A 
BRANCH   6   8
HETATM    8  O   UNL     1      42.449 -15.747   5.633  1.00  0.00    -0.324 OA
BRANCH   8   9
HETATM    9  C   UNL     1      43.516 -15.408   6.539  1.00  0.00     0.058 C 
HETATM   10  C   UNL     1      43.852 -13.909   6.539  1.00  0.00     0.045 C 
HETATM   11  C   UNL     1      44.760 -16.285   6.331  1.00  0.00     0.045 C 
HETATM   12  C   UNL     1      42.935 -15.747   7.926  1.00  0.00     0.045 C 
ENDBRANCH   8   9
ENDBRANCH   6   8
ENDBRANCH   1   2
BRANCH   1  13
HETATM   13  N   UNL     1      41.377 -13.076   0.520  1.00  0.00    -0.353 N 
HETATM   14  C   UNL     1      40.004 -13.132   0.537  1.00  0.00     0.253 C 
HETATM   15  O   UNL     1      39.330 -12.872   1.527  1.00  0.00    -0.268 OA
HETATM   16  H   UNL     1      41.876 -13.413  -0.294  1.00  0.00     0.163 HD
BRANCH  14  17
HETATM   17  C   UNL     1      39.335 -13.460  -0.748  1.00  0.00     0.049 A 
HETATM   18  C   UNL     1      38.598 -12.552  -1.520  1.00  0.00     0.026 A 
HETATM   19 BR   UNL     1      38.400 -10.714  -1.080  1.00  0.00    -0.050 Br
HETATM   20  C   UNL     1      38.000 -12.979  -2.713  1.00  0.00     0.020 A 
HETATM   21  C   UNL     1      38.142 -14.300  -3.144  1.00  0.00     0.001 A 
HETATM   22  C   UNL     1      38.889 -15.200  -2.390  1.00  0.00     0.001 A 
HETATM   23  C   UNL     1      39.487 -14.781  -1.201  1.00  0.00     0.018 A 
ENDBRANCH  14  17
ENDBRANCH   1  13
TORSDOF 5
ENDMDL
MODEL 10
REMARK VINA RESULT:      -6.5      1.909      2.603
REMARK  5 active torsions:
REMARK  status: ('A' for Active; 'I' for Inactive)
REMARK    1  A    between atoms: C_2  and  O_3 
REMARK    2  A    between atoms: O_3  and  C_4 
REMARK    3  A    between atoms: C_8  and  C_9 
REMARK    4  A    between atoms: C_9  and  N_10 
REMARK       I    between atoms: N_10  and  C_11 
REMARK    5  A    between atoms: C_11  and  C_12 
ROOT
HETATM    1  C   UNL     1      42.858 -14.856   5.850  1.00  0.00     0.161 C 
ENDROOT
BRANCH   1   2
HETATM    2  C   UNL     1      42.270 -13.779   4.984  1.00  0.00    -0.035 A 
HETATM    3  C   UNL     1      42.932 -13.356   3.829  1.00  0.00     0.028 A 
HETATM    4  C   UNL     1      42.369 -12.340   3.077  1.00  0.00     0.120 A 
HETATM    5  N   UNL     1      41.214 -11.718   3.397  1.00  0.00    -0.237 NA
HETATM    6  C   UNL     1      40.590 -12.133   4.514  1.00  0.00     0.165 A 
HETATM    7  C   UNL     1      41.070 -13.149   5.328  1.00  0.00     0.066 A 
BRANCH   6   8
HETATM    8  O   UNL     1      39.395 -11.573   4.901  1.00  0.00    -0.324 OA
BRANCH   8   9
HETATM    9  C   UNL     1      39.384 -10.351   5.663  1.00  0.00     0.058 C 
HETATM   10  C   UNL     1      38.345  -9.337   5.160  1.00  0.00     0.045 C 
HETATM   11  C   UNL     1      40.784  -9.734   5.799  1.00  0.00     0.045 C 
HETATM   12  C   UNL     1      38.938 -10.804   7.068  1.00  0.00     0.045 C 
ENDBRANCH   8   9
ENDBRANCH   6   8
ENDBRANCH   1   2
BRANCH   1  13
HETATM   13  N   UNL     1      42.828 -16.127   5.167  1.00  0.00    -0.353 N 
HETATM   14  C   UNL     1      43.935 -16.941   5.139  1.00  0.00     0.253 C 
HETATM   15  O   UNL     1      44.953 -16.720   5.784  1.00  0.00    -0.268 OA
HETATM   16  H   UNL     1      42.067 -16.305   4.524  1.00  0.00     0.163 HD
BRANCH  14  17
HETATM   17  C   UNL     1      43.829 -18.182   4.329  1.00  0.00     0.049 A 
HETATM   18  C   UNL     1      43.490 -18.223   2.970  1.00  0.00     0.026 A 
HETATM   19 BR   UNL     1      43.186 -16.673   1.913  1.00  0.00    -0.050 Br
HETATM   20  C   UNL     1      43.409 -19.456   2.310  1.00  0.00     0.020 A 
HETATM   21  C   UNL     1      43.673 -20.645   2.994  1.00  0.00     0.001 A 
HETATM   22  C   UNL     1      44.029 -20.608   4.340  1.00  0.00     0.001 A 
HETATM   23  C   UNL     1      44.111 -19.382   5.002  1.00  0.00     0.018 A 
ENDBRANCH  14  17
ENDBRANCH   1  13
TORSDOF 5
ENDMDL
