MODEL 1
REMARK VINA RESULT:      -8.1      0.000      0.000
REMARK  8 active torsions:
REMARK  status: ('A' for Active; 'I' for Inactive)
REMARK    1  A    between atoms: C_5  and  O_6 
REMARK    2  A    between atoms: O_6  and  C_7 
REMARK    3  A    between atoms: C_7  and  C_8 
REMARK    4  A    between atoms: C_8  and  C_9 
REMARK    5  A    between atoms: C_9  and  C_10 
REMARK    6  A    between atoms: C_10  and  N_11 
REMARK       I    between atoms: N_11  and  C_12 
REMARK    7  A    between atoms: C_12  and  C_13 
REMARK    8  A    between atoms: C_17  and  C_18 
ROOT
HETATM    1  C   UNL     1      43.801 -10.303  10.382  1.00  0.00     0.120 A 
HETATM    2  N   UNL     1      43.354 -11.205  11.305  1.00  0.00    -0.272 N 
HETATM    3  H   UNL     1      43.355 -12.217  11.215  1.00  0.00     0.189 HD
HETATM    4  N   UNL     1      42.866 -10.654  12.425  1.00  0.00    -0.174 NA
HETATM    5  C   UNL     1      43.012  -9.332  12.245  1.00  0.00     0.089 A 
HETATM    6  C   UNL     1      43.589  -9.071  10.969  1.00  0.00     0.071 A 
ENDROOT
BRANCH   1   7
HETATM    7  C   UNL     1      44.345 -10.722   9.120  1.00  0.00     0.270 C 
HETATM    8  N   UNL     1      43.422 -11.075   8.171  1.00  0.00    -0.345 N 
HETATM    9  H   UNL     1      42.435 -11.004   8.364  1.00  0.00     0.163 HD
HETATM   10  O   UNL     1      45.554 -10.759   8.909  1.00  0.00    -0.266 OA
BRANCH   8  11
HETATM   11  C   UNL     1      43.837 -11.482   6.856  1.00  0.00     0.217 C 
BRANCH  11  12
HETATM   12  C   UNL     1      43.771 -12.998   6.757  1.00  0.00    -0.085 C 
BRANCH  12  13
HETATM   13  C   UNL     1      43.715 -14.298   6.672  1.00  0.00    -0.078 C 
BRANCH  13  14
HETATM   14  C   UNL     1      43.649 -15.813   6.575  1.00  0.00     0.269 C 
BRANCH  14  15
HETATM   15  O   UNL     1      42.682 -16.161   5.588  1.00  0.00    -0.338 OA
BRANCH  15  16
HETATM   16  C   UNL     1      43.078 -17.045   4.627  1.00  0.00     0.087 A 
HETATM   17  C   UNL     1      43.910 -18.076   5.051  1.00  0.00     0.152 A 
HETATM   18  N   UNL     1      44.404 -19.048   4.246  1.00  0.00    -0.270 NA
HETATM   19  C   UNL     1      44.048 -18.989   2.948  1.00  0.00     0.116 A 
HETATM   20  C   UNL     1      43.224 -18.006   2.422  1.00  0.00     0.022 A 
HETATM   21  C   UNL     1      42.732 -17.019   3.278  1.00  0.00     0.040 A 
ENDBRANCH  15  16
ENDBRANCH  14  15
ENDBRANCH  13  14
ENDBRANCH  12  13
ENDBRANCH  11  12
ENDBRANCH   8  11
ENDBRANCH   1   7
BRANCH   5  22
HETATM   22  C   UNL     1      42.601  -8.364  13.267  1.00  0.00    -0.003 A 
HETATM   23  C   UNL     1      42.002  -8.792  14.463  1.00  0.00     0.053 A 
HETATM   24  C   UNL     1      41.638  -7.836  15.391  1.00  0.00     0.106 A 
HETATM   25  C   UNL     1      41.847  -6.495  15.177  1.00  0.00     0.105 A 
HETATM   26  O   UNL     1      41.048  -8.085  16.591  1.00  0.00    -0.323 OA
HETATM   27  O   UNL     1      41.416  -5.730  16.215  1.00  0.00    -0.323 OA
HETATM   28  C   UNL     1      42.429  -6.032  14.019  1.00  0.00     0.040 A 
HETATM   29  C   UNL     1      40.907  -6.744  17.106  1.00  0.00     0.352 A 
HETATM   30  C   UNL     1      42.805  -6.978  13.058  1.00  0.00     0.017 A 
ENDBRANCH   5  22
TORSDOF 8
ENDMDL
MODEL 2
REMARK VINA RESULT:      -8.0      3.211     11.953
REMARK  8 active torsions:
REMARK  status: ('A' for Active; 'I' for Inactive)
REMARK    1  A    between atoms: C_5  and  O_6 
REMARK    2  A    between atoms: O_6  and  C_7 
REMARK    3  A    between atoms: C_7  and  C_8 
REMARK    4  A    between atoms: C_8  and  C_9 
REMARK    5  A    between atoms: C_9  and  C_10 
REMARK    6  A    between atoms: C_10  and  N_11 
REMARK       I    between atoms: N_11  and  C_12 
REMARK    7  A    between atoms: C_12  and  C_13 
REMARK    8  A    between atoms: C_17  and  C_18 
ROOT
HETATM    1  C   UNL     1      42.879 -13.312   3.714  1.00  0.00     0.120 A 
HETATM    2  N   UNL     1      43.128 -13.526   2.388  1.00  0.00    -0.272 N 
HETATM    3  H   UNL     1      43.178 -12.822   1.658  1.00  0.00     0.189 HD
HETATM    4  N   UNL     1      43.312 -14.813   2.062  1.00  0.00    -0.174 NA
HETATM    5  C   UNL     1      43.199 -15.478   3.223  1.00  0.00     0.089 A 
HETATM    6  C   UNL     1      42.919 -14.569   4.284  1.00  0.00     0.071 A 
ENDROOT
BRANCH   1   7
HETATM    7  C   UNL     1      42.647 -11.993   4.234  1.00  0.00     0.270 C 
HETATM    8  N   UNL     1      42.321 -11.934   5.564  1.00  0.00    -0.345 N 
HETATM    9  H   UNL     1      42.286 -12.775   6.121  1.00  0.00     0.163 HD
HETATM   10  O   UNL     1      42.736 -10.989   3.533  1.00  0.00    -0.266 OA
BRANCH   8  11
HETATM   11  C   UNL     1      42.096 -10.671   6.213  1.00  0.00     0.217 C 
BRANCH  11  12
HETATM   12  C   UNL     1      43.262 -10.369   7.140  1.00  0.00    -0.085 C 
BRANCH  12  13
HETATM   13  C   UNL     1      44.263 -10.109   7.935  1.00  0.00    -0.078 C 
BRANCH  13  14
HETATM   14  C   UNL     1      45.428  -9.806   8.862  1.00  0.00     0.269 C 
BRANCH  14  15
HETATM   15  O   UNL     1      45.253 -10.548  10.065  1.00  0.00    -0.338 OA
BRANCH  15  16
HETATM   16  C   UNL     1      44.376 -10.038  10.978  1.00  0.00     0.087 A 
HETATM   17  C   UNL     1      43.649 -10.969  11.713  1.00  0.00     0.152 A 
HETATM   18  N   UNL     1      42.734 -10.656  12.663  1.00  0.00    -0.270 NA
HETATM   19  C   UNL     1      42.534  -9.343  12.893  1.00  0.00     0.116 A 
HETATM   20  C   UNL     1      43.206  -8.336  12.219  1.00  0.00     0.022 A 
HETATM   21  C   UNL     1      44.141  -8.692  11.246  1.00  0.00     0.040 A 
ENDBRANCH  15  16
ENDBRANCH  14  15
ENDBRANCH  13  14
ENDBRANCH  12  13
ENDBRANCH  11  12
ENDBRANCH   8  11
ENDBRANCH   1   7
BRANCH   5  22
HETATM   22  C   UNL     1      43.350 -16.935   3.296  1.00  0.00    -0.003 A 
HETATM   23  C   UNL     1      43.688 -17.563   4.506  1.00  0.00     0.053 A 
HETATM   24  C   UNL     1      43.814 -18.938   4.515  1.00  0.00     0.106 A 
HETATM   25  C   UNL     1      43.617 -19.697   3.386  1.00  0.00     0.105 A 
HETATM   26  O   UNL     1      44.138 -19.694   5.599  1.00  0.00    -0.323 OA
HETATM   27  O   UNL     1      43.790 -21.025   3.616  1.00  0.00    -0.323 OA
HETATM   28  C   UNL     1      43.287 -19.122   2.180  1.00  0.00     0.040 A 
HETATM   29  C   UNL     1      44.124 -21.016   5.020  1.00  0.00     0.352 A 
HETATM   30  C   UNL     1      43.155 -17.729   2.140  1.00  0.00     0.017 A 
ENDBRANCH   5  22
TORSDOF 8
ENDMDL
MODEL 3
REMARK VINA RESULT:      -7.9      2.580     12.253
REMARK  8 active torsions:
REMARK  status: ('A' for Active; 'I' for Inactive)
REMARK    1  A    between atoms: C_5  and  O_6 
REMARK    2  A    between atoms: O_6  and  C_7 
REMARK    3  A    between atoms: C_7  and  C_8 
REMARK    4  A    between atoms: C_8  and  C_9 
REMARK    5  A    between atoms: C_9  and  C_10 
REMARK    6  A    between atoms: C_10  and  N_11 
REMARK       I    between atoms: N_11  and  C_12 
REMARK    7  A    between atoms: C_12  and  C_13 
REMARK    8  A    between atoms: C_17  and  C_18 
ROOT
HETATM    1  C   UNL     1      43.467 -14.118   6.543  1.00  0.00     0.120 A 
HETATM    2  N   UNL     1      42.779 -14.854   7.466  1.00  0.00    -0.272 N 
HETATM    3  H   UNL     1      42.340 -14.507   8.314  1.00  0.00     0.189 HD
HETATM    4  N   UNL     1      42.710 -16.163   7.188  1.00  0.00    -0.174 NA
HETATM    5  C   UNL     1      43.362 -16.299   6.023  1.00  0.00     0.089 A 
HETATM    6  C   UNL     1      43.860 -15.037   5.589  1.00  0.00     0.071 A 
ENDROOT
BRANCH   1   7
HETATM    7  C   UNL     1      43.647 -12.701   6.691  1.00  0.00     0.270 C 
HETATM    8  N   UNL     1      44.947 -12.284   6.814  1.00  0.00    -0.345 N 
HETATM    9  H   UNL     1      45.705 -12.947   6.768  1.00  0.00     0.163 HD
HETATM   10  O   UNL     1      42.701 -11.919   6.706  1.00  0.00    -0.266 OA
BRANCH   8  11
HETATM   11  C   UNL     1      45.264 -10.887   6.937  1.00  0.00     0.217 C 
BRANCH  11  12
HETATM   12  C   UNL     1      45.006 -10.438   8.367  1.00  0.00    -0.085 C 
BRANCH  12  13
HETATM   13  C   UNL     1      44.785 -10.053   9.593  1.00  0.00    -0.078 C 
BRANCH  13  14
HETATM   14  C   UNL     1      44.528  -9.603  11.021  1.00  0.00     0.269 C 
BRANCH  14  15
HETATM   15  O   UNL     1      43.156  -9.242  11.141  1.00  0.00    -0.338 OA
BRANCH  15  16
HETATM   16  C   UNL     1      42.733  -8.842  12.375  1.00  0.00     0.087 A 
HETATM   17  C   UNL     1      41.644  -9.531  12.901  1.00  0.00     0.152 A 
HETATM   18  N   UNL     1      41.083  -9.279  14.109  1.00  0.00    -0.270 NA
HETATM   19  C   UNL     1      41.638  -8.287  14.832  1.00  0.00     0.116 A 
HETATM   20  C   UNL     1      42.723  -7.539  14.402  1.00  0.00     0.022 A 
HETATM   21  C   UNL     1      43.277  -7.824  13.153  1.00  0.00     0.040 A 
ENDBRANCH  15  16
ENDBRANCH  14  15
ENDBRANCH  13  14
ENDBRANCH  12  13
ENDBRANCH  11  12
ENDBRANCH   8  11
ENDBRANCH   1   7
BRANCH   5  22
HETATM   22  C   UNL     1      43.502 -17.601   5.363  1.00  0.00    -0.003 A 
HETATM   23  C   UNL     1      43.502 -17.701   3.963  1.00  0.00     0.053 A 
HETATM   24  C   UNL     1      43.639 -18.954   3.397  1.00  0.00     0.106 A 
HETATM   25  C   UNL     1      43.776 -20.088   4.160  1.00  0.00     0.105 A 
HETATM   26  O   UNL     1      43.655 -19.220   2.063  1.00  0.00    -0.323 OA
HETATM   27  O   UNL     1      43.897 -21.211   3.405  1.00  0.00    -0.323 OA
HETATM   28  C   UNL     1      43.780 -20.036   5.535  1.00  0.00     0.040 A 
HETATM   29  C   UNL     1      43.816 -20.655   2.076  1.00  0.00     0.352 A 
HETATM   30  C   UNL     1      43.639 -18.779   6.137  1.00  0.00     0.017 A 
ENDBRANCH   5  22
TORSDOF 8
ENDMDL
MODEL 4
REMARK VINA RESULT:      -7.9      8.435     11.804
REMARK  8 active torsions:
REMARK  status: ('A' for Active; 'I' for Inactive)
REMARK    1  A    between atoms: C_5  and  O_6 
REMARK    2  A    between atoms: O_6  and  C_7 
REMARK    3  A    between atoms: C_7  and  C_8 
REMARK    4  A    between atoms: C_8  and  C_9 
REMARK    5  A    between atoms: C_9  and  C_10 
REMARK    6  A    between atoms: C_10  and  N_11 
REMARK       I    between atoms: N_11  and  C_12 
REMARK    7  A    between atoms: C_12  and  C_13 
REMARK    8  A    between atoms: C_17  and  C_18 
ROOT
HETATM    1  C   UNL     1      42.943 -13.374   3.587  1.00  0.00     0.120 A 
HETATM    2  N   UNL     1      42.691 -13.784   4.866  1.00  0.00    -0.272 N 
HETATM    3  H   UNL     1      42.453 -13.194   5.657  1.00  0.00     0.189 HD
HETATM    4  N   UNL     1      42.787 -15.109   5.050  1.00  0.00    -0.174 NA
HETATM    5  C   UNL     1      43.097 -15.599   3.839  1.00  0.00     0.089 A 
HETATM    6  C   UNL     1      43.212 -14.539   2.895  1.00  0.00     0.071 A 
ENDROOT
BRANCH   1   7
HETATM    7  C   UNL     1      42.895 -11.987   3.217  1.00  0.00     0.270 C 
HETATM    8  N   UNL     1      41.683 -11.545   2.754  1.00  0.00    -0.345 N 
HETATM    9  H   UNL     1      40.890 -12.167   2.718  1.00  0.00     0.163 HD
HETATM   10  O   UNL     1      43.872 -11.250   3.311  1.00  0.00    -0.266 OA
BRANCH   8  11
HETATM   11  C   UNL     1      41.494 -10.169   2.381  1.00  0.00     0.217 C 
BRANCH  11  12
HETATM   12  C   UNL     1      41.436 -10.064   0.866  1.00  0.00    -0.085 C 
BRANCH  12  13
HETATM   13  C   UNL     1      41.386  -9.975  -0.434  1.00  0.00    -0.078 C 
BRANCH  13  14
HETATM   14  C   UNL     1      41.329  -9.872  -1.949  1.00  0.00     0.269 C 
BRANCH  14  15
HETATM   15  O   UNL     1      40.032 -10.273  -2.381  1.00  0.00    -0.338 OA
BRANCH  15  16
HETATM   16  C   UNL     1      39.771 -11.612  -2.378  1.00  0.00     0.087 A 
HETATM   17  C   UNL     1      40.706 -12.418  -3.019  1.00  0.00     0.152 A 
HETATM   18  N   UNL     1      40.621 -13.767  -3.119  1.00  0.00    -0.270 NA
HETATM   19  C   UNL     1      39.545 -14.344  -2.549  1.00  0.00     0.116 A 
HETATM   20  C   UNL     1      38.556 -13.634  -1.885  1.00  0.00     0.022 A 
HETATM   21  C   UNL     1      38.674 -12.246  -1.800  1.00  0.00     0.040 A 
ENDBRANCH  15  16
ENDBRANCH  14  15
ENDBRANCH  13  14
ENDBRANCH  12  13
ENDBRANCH  11  12
ENDBRANCH   8  11
ENDBRANCH   1   7
BRANCH   5  22
HETATM   22  C   UNL     1      43.281 -17.036   3.612  1.00  0.00    -0.003 A 
HETATM   23  C   UNL     1      43.753 -17.871   4.639  1.00  0.00     0.053 A 
HETATM   24  C   UNL     1      43.904 -19.217   4.369  1.00  0.00     0.106 A 
HETATM   25  C   UNL     1      43.606 -19.752   3.139  1.00  0.00     0.105 A 
HETATM   26  O   UNL     1      44.350 -20.153   5.249  1.00  0.00    -0.323 OA
HETATM   27  O   UNL     1      43.826 -21.093   3.089  1.00  0.00    -0.323 OA
HETATM   28  C   UNL     1      43.143 -18.971   2.105  1.00  0.00     0.040 A 
HETATM   29  C   UNL     1      44.301 -21.340   4.428  1.00  0.00     0.352 A 
HETATM   30  C   UNL     1      42.983 -17.601   2.349  1.00  0.00     0.017 A 
ENDBRANCH   5  22
TORSDOF 8
ENDMDL
MODEL 5
REMARK VINA RESULT:      -7.8      2.434     12.197
REMARK  8 active torsions:
REMARK  status: ('A' for Active; 'I' for Inactive)
REMARK    1  A    between atoms: C_5  and  O_6 
REMARK    2  A    between atoms: O_6  and  C_7 
REMARK    3  A    between atoms: C_7  and  C_8 
REMARK    4  A    between atoms: C_8  and  C_9 
REMARK    5  A    between atoms: C_9  and  C_10 
REMARK    6  A    between atoms: C_10  and  N_11 
REMARK       I    between atoms: N_11  and  C_12 
REMARK    7  A    between atoms: C_12  and  C_13 
REMARK    8  A    between atoms: C_17  and  C_18 
ROOT
HETATM    1  C   UNL     1      43.566 -13.194   6.802  1.00  0.00     0.120 A 
HETATM    2  N   UNL     1      42.974 -14.159   7.566  1.00  0.00    -0.272 N 
HETATM    3  H   UNL     1      42.677 -14.071   8.534  1.00  0.00     0.189 HD
HETATM    4  N   UNL     1      42.792 -15.329   6.937  1.00  0.00    -0.174 NA
HETATM    5  C   UNL     1      43.266 -15.125   5.697  1.00  0.00     0.089 A 
HETATM    6  C   UNL     1      43.768 -13.798   5.576  1.00  0.00     0.071 A 
ENDROOT
BRANCH   1   7
HETATM    7  C   UNL     1      43.844 -11.885   7.323  1.00  0.00     0.270 C 
HETATM    8  N   UNL     1      42.836 -10.968   7.176  1.00  0.00    -0.345 N 
HETATM    9  H   UNL     1      41.958 -11.233   6.755  1.00  0.00     0.163 HD
HETATM   10  O   UNL     1      44.911 -11.609   7.863  1.00  0.00    -0.266 OA
BRANCH   8  11
HETATM   11  C   UNL     1      42.977  -9.630   7.684  1.00  0.00     0.217 C 
BRANCH  11  12
HETATM   12  C   UNL     1      42.221  -9.511   8.997  1.00  0.00    -0.085 C 
BRANCH  12  13
HETATM   13  C   UNL     1      41.572  -9.407  10.123  1.00  0.00    -0.078 C 
BRANCH  13  14
HETATM   14  C   UNL     1      40.818  -9.287  11.437  1.00  0.00     0.269 C 
BRANCH  14  15
HETATM   15  O   UNL     1      41.673  -9.719  12.491  1.00  0.00    -0.338 OA
BRANCH  15  16
HETATM   16  C   UNL     1      42.018  -8.785  13.423  1.00  0.00     0.087 A 
HETATM   17  C   UNL     1      41.255  -8.772  14.586  1.00  0.00     0.152 A 
HETATM   18  N   UNL     1      41.445  -7.920  15.623  1.00  0.00    -0.270 NA
HETATM   19  C   UNL     1      42.452  -7.034  15.494  1.00  0.00     0.116 A 
HETATM   20  C   UNL     1      43.273  -6.963  14.379  1.00  0.00     0.022 A 
HETATM   21  C   UNL     1      43.050  -7.854  13.328  1.00  0.00     0.040 A 
ENDBRANCH  15  16
ENDBRANCH  14  15
ENDBRANCH  13  14
ENDBRANCH  12  13
ENDBRANCH  11  12
ENDBRANCH   8  11
ENDBRANCH   1   7
BRANCH   5  22
HETATM   22  C   UNL     1      43.238 -16.179   4.678  1.00  0.00    -0.003 A 
HETATM   23  C   UNL     1      43.760 -17.454   4.948  1.00  0.00     0.053 A 
HETATM   24  C   UNL     1      43.705 -18.408   3.951  1.00  0.00     0.106 A 
HETATM   25  C   UNL     1      43.156 -18.144   2.718  1.00  0.00     0.105 A 
HETATM   26  O   UNL     1      44.167 -19.683   4.051  1.00  0.00    -0.323 OA
HETATM   27  O   UNL     1      43.203 -19.219   1.888  1.00  0.00    -0.323 OA
HETATM   28  C   UNL     1      42.635 -16.908   2.411  1.00  0.00     0.040 A 
HETATM   29  C   UNL     1      43.848 -20.190   2.737  1.00  0.00     0.352 A 
HETATM   30  C   UNL     1      42.681 -15.920   3.402  1.00  0.00     0.017 A 
ENDBRANCH   5  22
TORSDOF 8
ENDMDL
MODEL 6
REMARK VINA RESULT:      -7.8      3.586     11.261
REMARK  8 active torsions:
REMARK  status: ('A' for Active; 'I' for Inactive)
REMARK    1  A    between atoms: C_5  and  O_6 
REMARK    2  A    between atoms: O_6  and  C_7 
REMARK    3  A    between atoms: C_7  and  C_8 
REMARK    4  A    between atoms: C_8  and  C_9 
REMARK    5  A    between atoms: C_9  and  C_10 
REMARK    6  A    between atoms: C_10  and  N_11 
REMARK       I    between atoms: N_11  and  C_12 
REMARK    7  A    between atoms: C_12  and  C_13 
REMARK    8  A    between atoms: C_17  and  C_18 
ROOT
HETATM    1  C   UNL     1      42.486 -12.869   5.912  1.00  0.00     0.120 A 
HETATM    2  N   UNL     1      42.994 -13.491   7.017  1.00  0.00    -0.272 N 
HETATM    3  H   UNL     1      43.118 -13.084   7.940  1.00  0.00     0.189 HD
HETATM    4  N   UNL     1      43.360 -14.764   6.815  1.00  0.00    -0.174 NA
HETATM    5  C   UNL     1      43.065 -15.003   5.528  1.00  0.00     0.089 A 
HETATM    6  C   UNL     1      42.521 -13.834   4.924  1.00  0.00     0.071 A 
ENDROOT
BRANCH   1   7
HETATM    7  C   UNL     1      42.055 -11.499   5.949  1.00  0.00     0.270 C 
HETATM    8  N   UNL     1      40.850 -11.279   6.563  1.00  0.00    -0.345 N 
HETATM    9  H   UNL     1      40.340 -12.044   6.980  1.00  0.00     0.163 HD
HETATM   10  O   UNL     1      42.722 -10.590   5.463  1.00  0.00    -0.266 OA
BRANCH   8  11
HETATM   11  C   UNL     1      40.322  -9.949   6.694  1.00  0.00     0.217 C 
BRANCH  11  12
HETATM   12  C   UNL     1      40.637  -9.419   8.084  1.00  0.00    -0.085 C 
BRANCH  12  13
HETATM   13  C   UNL     1      40.906  -8.966   9.277  1.00  0.00    -0.078 C 
BRANCH  13  14
HETATM   14  C   UNL     1      41.220  -8.438  10.666  1.00  0.00     0.269 C 
BRANCH  14  15
HETATM   15  O   UNL     1      42.370  -7.602  10.584  1.00  0.00    -0.338 OA
BRANCH  15  16
HETATM   16  C   UNL     1      43.517  -8.180  10.124  1.00  0.00     0.087 A 
HETATM   17  C   UNL     1      44.062  -7.624   8.971  1.00  0.00     0.152 A 
HETATM   18  N   UNL     1      45.194  -8.060   8.366  1.00  0.00    -0.270 NA
HETATM   19  C   UNL     1      45.817  -9.106   8.942  1.00  0.00     0.116 A 
HETATM   20  C   UNL     1      45.360  -9.732  10.091  1.00  0.00     0.022 A 
HETATM   21  C   UNL     1      44.191  -9.259  10.689  1.00  0.00     0.040 A 
ENDBRANCH  15  16
ENDBRANCH  14  15
ENDBRANCH  13  14
ENDBRANCH  12  13
ENDBRANCH  11  12
ENDBRANCH   8  11
ENDBRANCH   1   7
BRANCH   5  22
HETATM   22  C   UNL     1      43.309 -16.311   4.910  1.00  0.00    -0.003 A 
HETATM   23  C   UNL     1      43.545 -17.446   5.701  1.00  0.00     0.053 A 
HETATM   24  C   UNL     1      43.766 -18.652   5.065  1.00  0.00     0.106 A 
HETATM   25  C   UNL     1      43.759 -18.766   3.696  1.00  0.00     0.105 A 
HETATM   26  O   UNL     1      44.012 -19.838   5.684  1.00  0.00    -0.323 OA
HETATM   27  O   UNL     1      43.997 -20.038   3.279  1.00  0.00    -0.323 OA
HETATM   28  C   UNL     1      43.534 -17.679   2.882  1.00  0.00     0.040 A 
HETATM   29  C   UNL     1      44.160 -20.712   4.544  1.00  0.00     0.352 A 
HETATM   30  C   UNL     1      43.310 -16.442   3.500  1.00  0.00     0.017 A 
ENDBRANCH   5  22
TORSDOF 8
ENDMDL
MODEL 7
REMARK VINA RESULT:      -7.7      1.187      1.443
REMARK  8 active torsions:
REMARK  status: ('A' for Active; 'I' for Inactive)
REMARK    1  A    between atoms: C_5  and  O_6 
REMARK    2  A    between atoms: O_6  and  C_7 
REMARK    3  A    between atoms: C_7  and  C_8 
REMARK    4  A    between atoms: C_8  and  C_9 
REMARK    5  A    between atoms: C_9  and  C_10 
REMARK    6  A    between atoms: C_10  and  N_11 
REMARK       I    between atoms: N_11  and  C_12 
REMARK    7  A    between atoms: C_12  and  C_13 
REMARK    8  A    between atoms: C_17  and  C_18 
ROOT
HETATM    1  C   UNL     1      43.841 -10.233  10.242  1.00  0.00     0.120 A 
HETATM    2  N   UNL     1      43.414 -11.168  11.141  1.00  0.00    -0.272 N 
HETATM    3  H   UNL     1      43.420 -12.176  11.018  1.00  0.00     0.189 HD
HETATM    4  N   UNL     1      42.938 -10.657  12.285  1.00  0.00    -0.174 NA
HETATM    5  C   UNL     1      43.073  -9.329  12.146  1.00  0.00     0.089 A 
HETATM    6  C   UNL     1      43.630  -9.022  10.872  1.00  0.00     0.071 A 
ENDROOT
BRANCH   1   7
HETATM    7  C   UNL     1      44.370 -10.606   8.959  1.00  0.00     0.270 C 
HETATM    8  N   UNL     1      43.579 -11.446   8.219  1.00  0.00    -0.345 N 
HETATM    9  H   UNL     1      42.677 -11.738   8.565  1.00  0.00     0.163 HD
HETATM   10  O   UNL     1      45.456 -10.200   8.556  1.00  0.00    -0.266 OA
BRANCH   8  11
HETATM   11  C   UNL     1      43.980 -11.868   6.905  1.00  0.00     0.217 C 
BRANCH  11  12
HETATM   12  C   UNL     1      43.871 -13.382   6.811  1.00  0.00    -0.085 C 
BRANCH  12  13
HETATM   13  C   UNL     1      43.777 -14.680   6.730  1.00  0.00    -0.078 C 
BRANCH  13  14
HETATM   14  C   UNL     1      43.669 -16.192   6.637  1.00  0.00     0.269 C 
BRANCH  14  15
HETATM   15  O   UNL     1      42.357 -16.525   6.193  1.00  0.00    -0.338 OA
BRANCH  15  16
HETATM   16  C   UNL     1      42.151 -16.541   4.844  1.00  0.00     0.087 A 
HETATM   17  C   UNL     1      40.927 -16.045   4.407  1.00  0.00     0.152 A 
HETATM   18  N   UNL     1      40.542 -15.978   3.109  1.00  0.00    -0.270 NA
HETATM   19  C   UNL     1      41.425 -16.429   2.198  1.00  0.00     0.116 A 
HETATM   20  C   UNL     1      42.671 -16.941   2.526  1.00  0.00     0.022 A 
HETATM   21  C   UNL     1      43.037 -16.996   3.871  1.00  0.00     0.040 A 
ENDBRANCH  15  16
ENDBRANCH  14  15
ENDBRANCH  13  14
ENDBRANCH  12  13
ENDBRANCH  11  12
ENDBRANCH   8  11
ENDBRANCH   1   7
BRANCH   5  22
HETATM   22  C   UNL     1      42.670  -8.398  13.206  1.00  0.00    -0.003 A 
HETATM   23  C   UNL     1      42.010  -8.860  14.356  1.00  0.00     0.053 A 
HETATM   24  C   UNL     1      41.657  -7.938  15.322  1.00  0.00     0.106 A 
HETATM   25  C   UNL     1      41.934  -6.599  15.188  1.00  0.00     0.105 A 
HETATM   26  O   UNL     1      41.014  -8.222  16.487  1.00  0.00    -0.323 OA
HETATM   27  O   UNL     1      41.501  -5.870  16.251  1.00  0.00    -0.323 OA
HETATM   28  C   UNL     1      42.577  -6.103  14.077  1.00  0.00     0.040 A 
HETATM   29  C   UNL     1      40.916  -6.904  17.069  1.00  0.00     0.352 A 
HETATM   30  C   UNL     1      42.944  -7.014  13.079  1.00  0.00     0.017 A 
ENDBRANCH   5  22
TORSDOF 8
ENDMDL
MODEL 8
REMARK VINA RESULT:      -7.7      4.694     11.581
REMARK  8 active torsions:
REMARK  status: ('A' for Active; 'I' for Inactive)
REMARK    1  A    between atoms: C_5  and  O_6 
REMARK    2  A    between atoms: O_6  and  C_7 
REMARK    3  A    between atoms: C_7  and  C_8 
REMARK    4  A    between atoms: C_8  and  C_9 
REMARK    5  A    between atoms: C_9  and  C_10 
REMARK    6  A    between atoms: C_10  and  N_11 
REMARK       I    between atoms: N_11  and  C_12 
REMARK    7  A    between atoms: C_12  and  C_13 
REMARK    8  A    between atoms: C_17  and  C_18 
ROOT
HETATM    1  C   UNL     1      42.381 -12.879   2.493  1.00  0.00     0.120 A 
HETATM    2  N   UNL     1      42.137 -13.602   1.361  1.00  0.00    -0.272 N 
HETATM    3  H   UNL     1      41.794 -13.245   0.474  1.00  0.00     0.189 HD
HETATM    4  N   UNL     1      42.383 -14.915   1.480  1.00  0.00    -0.174 NA
HETATM    5  C   UNL     1      42.826 -15.064   2.738  1.00  0.00     0.089 A 
HETATM    6  C   UNL     1      42.832 -13.808   3.410  1.00  0.00     0.071 A 
ENDROOT
BRANCH   1   7
HETATM    7  C   UNL     1      42.161 -11.460   2.543  1.00  0.00     0.270 C 
HETATM    8  N   UNL     1      41.816 -10.962   3.774  1.00  0.00    -0.345 N 
HETATM    9  H   UNL     1      41.762 -11.571   4.576  1.00  0.00     0.163 HD
HETATM   10  O   UNL     1      42.273 -10.745   1.552  1.00  0.00    -0.266 OA
BRANCH   8  11
HETATM   11  C   UNL     1      41.600  -9.554   3.964  1.00  0.00     0.217 C 
BRANCH  11  12
HETATM   12  C   UNL     1      41.643  -9.237   5.450  1.00  0.00    -0.085 C 
BRANCH  12  13
HETATM   13  C   UNL     1      41.682  -8.965   6.725  1.00  0.00    -0.078 C 
BRANCH  13  14
HETATM   14  C   UNL     1      41.726  -8.650   8.211  1.00  0.00     0.269 C 
BRANCH  14  15
HETATM   15  O   UNL     1      42.455  -9.681   8.870  1.00  0.00    -0.338 OA
BRANCH  15  16
HETATM   16  C   UNL     1      43.761  -9.837   8.508  1.00  0.00     0.087 A 
HETATM   17  C   UNL     1      44.120 -11.098   8.042  1.00  0.00     0.152 A 
HETATM   18  N   UNL     1      45.366 -11.443   7.637  1.00  0.00    -0.270 NA
HETATM   19  C   UNL     1      46.306 -10.479   7.699  1.00  0.00     0.116 A 
HETATM   20  C   UNL     1      46.054  -9.191   8.146  1.00  0.00     0.022 A 
HETATM   21  C   UNL     1      44.760  -8.868   8.556  1.00  0.00     0.040 A 
ENDBRANCH  15  16
ENDBRANCH  14  15
ENDBRANCH  13  14
ENDBRANCH  12  13
ENDBRANCH  11  12
ENDBRANCH   8  11
ENDBRANCH   1   7
BRANCH   5  22
HETATM   22  C   UNL     1      43.220 -16.375   3.267  1.00  0.00    -0.003 A 
HETATM   23  C   UNL     1      43.110 -17.530   2.477  1.00  0.00     0.053 A 
HETATM   24  C   UNL     1      43.498 -18.737   3.026  1.00  0.00     0.106 A 
HETATM   25  C   UNL     1      43.986 -18.832   4.307  1.00  0.00     0.105 A 
HETATM   26  O   UNL     1      43.451 -19.942   2.397  1.00  0.00    -0.323 OA
HETATM   27  O   UNL     1      44.308 -20.108   4.646  1.00  0.00    -0.323 OA
HETATM   28  C   UNL     1      44.109 -17.725   5.116  1.00  0.00     0.040 A 
HETATM   29  C   UNL     1      43.963 -20.807   3.433  1.00  0.00     0.352 A 
HETATM   30  C   UNL     1      43.719 -16.489   4.587  1.00  0.00     0.017 A 
ENDBRANCH   5  22
TORSDOF 8
ENDMDL
MODEL 9
REMARK VINA RESULT:      -7.7      4.621     11.582
REMARK  8 active torsions:
REMARK  status: ('A' for Active; 'I' for Inactive)
REMARK    1  A    between atoms: C_5  and  O_6 
REMARK    2  A    between atoms: O_6  and  C_7 
REMARK    3  A    between atoms: C_7  and  C_8 
REMARK    4  A    between atoms: C_8  and  C_9 
REMARK    5  A    between atoms: C_9  and  C_10 
REMARK    6  A    between atoms: C_10  and  N_11 
REMARK       I    between atoms: N_11  and  C_12 
REMARK    7  A    between atoms: C_12  and  C_13 
REMARK    8  A    between atoms: C_17  and  C_18 
ROOT
HETATM    1  C   UNL     1      42.719 -13.237   3.868  1.00  0.00     0.120 A 
HETATM    2  N   UNL     1      42.867 -13.681   5.152  1.00  0.00    -0.272 N 
HETATM    3  H   UNL     1      42.839 -13.116   5.996  1.00  0.00     0.189 HD
HETATM    4  N   UNL     1      43.076 -15.000   5.259  1.00  0.00    -0.174 NA
HETATM    5  C   UNL     1      43.047 -15.454   3.996  1.00  0.00     0.089 A 
HETATM    6  C   UNL     1      42.832 -14.375   3.092  1.00  0.00     0.071 A 
ENDROOT
BRANCH   1   7
HETATM    7  C   UNL     1      42.499 -11.849   3.571  1.00  0.00     0.270 C 
HETATM    8  N   UNL     1      41.549 -11.228   4.340  1.00  0.00    -0.345 N 
HETATM    9  H   UNL     1      41.079 -11.729   5.078  1.00  0.00     0.163 HD
HETATM   10  O   UNL     1      43.119 -11.263   2.688  1.00  0.00    -0.266 OA
BRANCH   8  11
HETATM   11  C   UNL     1      41.258  -9.831   4.163  1.00  0.00     0.217 C 
BRANCH  11  12
HETATM   12  C   UNL     1      41.560  -9.089   5.455  1.00  0.00    -0.085 C 
BRANCH  12  13
HETATM   13  C   UNL     1      41.819  -8.452   6.563  1.00  0.00    -0.078 C 
BRANCH  13  14
HETATM   14  C   UNL     1      42.121  -7.710   7.854  1.00  0.00     0.269 C 
BRANCH  14  15
HETATM   15  O   UNL     1      42.612  -8.646   8.809  1.00  0.00    -0.338 OA
BRANCH  15  16
HETATM   16  C   UNL     1      43.846  -9.177   8.568  1.00  0.00     0.087 A 
HETATM   17  C   UNL     1      43.897 -10.560   8.421  1.00  0.00     0.152 A 
HETATM   18  N   UNL     1      45.027 -11.268   8.177  1.00  0.00    -0.270 NA
HETATM   19  C   UNL     1      46.168 -10.558   8.074  1.00  0.00     0.116 A 
HETATM   20  C   UNL     1      46.227  -9.179   8.202  1.00  0.00     0.022 A 
HETATM   21  C   UNL     1      45.046  -8.481   8.454  1.00  0.00     0.040 A 
ENDBRANCH  15  16
ENDBRANCH  14  15
ENDBRANCH  13  14
ENDBRANCH  12  13
ENDBRANCH  11  12
ENDBRANCH   8  11
ENDBRANCH   1   7
BRANCH   5  22
HETATM   22  C   UNL     1      43.226 -16.875   3.683  1.00  0.00    -0.003 A 
HETATM   23  C   UNL     1      43.742 -17.763   4.641  1.00  0.00     0.053 A 
HETATM   24  C   UNL     1      43.887 -19.091   4.290  1.00  0.00     0.106 A 
HETATM   25  C   UNL     1      43.542 -19.559   3.045  1.00  0.00     0.105 A 
HETATM   26  O   UNL     1      44.372 -20.072   5.098  1.00  0.00    -0.323 OA
HETATM   27  O   UNL     1      43.765 -20.893   2.912  1.00  0.00    -0.323 OA
HETATM   28  C   UNL     1      43.036 -18.723   2.076  1.00  0.00     0.040 A 
HETATM   29  C   UNL     1      44.294 -21.212   4.215  1.00  0.00     0.352 A 
HETATM   30  C   UNL     1      42.881 -17.370   2.402  1.00  0.00     0.017 A 
ENDBRANCH   5  22
TORSDOF 8
ENDMDL
MODEL 10
REMARK VINA RESULT:      -7.6      2.863     11.424
REMARK  8 active torsions:
REMARK  status: ('A' for Active; 'I' for Inactive)
REMARK    1  A    between atoms: C_5  and  O_6 
REMARK    2  A    between atoms: O_6  and  C_7 
REMARK    3  A    between atoms: C_7  and  C_8 
REMARK    4  A    between atoms: C_8  and  C_9 
REMARK    5  A    between atoms: C_9  and  C_10 
REMARK    6  A    between atoms: C_10  and  N_11 
REMARK       I    between atoms: N_11  and  C_12 
REMARK    7  A    between atoms: C_12  and  C_13 
REMARK    8  A    between atoms: C_17  and  C_18 
ROOT
HETATM    1  C   UNL     1      43.783 -12.234   7.134  1.00  0.00     0.120 A 
HETATM    2  N   UNL     1      42.480 -12.137   6.737  1.00  0.00    -0.272 N 
HETATM    3  H   UNL     1      41.809 -11.428   7.019  1.00  0.00     0.189 HD
HETATM    4  N   UNL     1      42.086 -13.103   5.894  1.00  0.00    -0.174 NA
HETATM    5  C   UNL     1      43.179 -13.860   5.711  1.00  0.00     0.089 A 
HETATM    6  C   UNL     1      44.264 -13.351   6.480  1.00  0.00     0.071 A 
ENDROOT
BRANCH   1   7
HETATM    7  C   UNL     1      44.365 -11.287   8.044  1.00  0.00     0.270 C 
HETATM    8  N   UNL     1      45.161 -10.331   7.468  1.00  0.00    -0.345 N 
HETATM    9  H   UNL     1      45.283 -10.301   6.467  1.00  0.00     0.163 HD
HETATM   10  O   UNL     1      44.163 -11.333   9.254  1.00  0.00    -0.266 OA
BRANCH   8  11
HETATM   11  C   UNL     1      45.777  -9.306   8.266  1.00  0.00     0.217 C 
BRANCH  11  12
HETATM   12  C   UNL     1      44.720  -8.299   8.691  1.00  0.00    -0.085 C 
BRANCH  12  13
HETATM   13  C   UNL     1      43.813  -7.436   9.055  1.00  0.00    -0.078 C 
BRANCH  13  14
HETATM   14  C   UNL     1      42.757  -6.430   9.480  1.00  0.00     0.269 C 
BRANCH  14  15
HETATM   15  O   UNL     1      42.828  -6.270  10.894  1.00  0.00    -0.338 OA
BRANCH  15  16
HETATM   16  C   UNL     1      42.401  -7.320  11.652  1.00  0.00     0.087 A 
HETATM   17  C   UNL     1      41.041  -7.607  11.588  1.00  0.00     0.152 A 
HETATM   18  N   UNL     1      40.433  -8.610  12.267  1.00  0.00    -0.270 NA
HETATM   19  C   UNL     1      41.223  -9.369  13.052  1.00  0.00     0.116 A 
HETATM   20  C   UNL     1      42.588  -9.169  13.186  1.00  0.00     0.022 A 
HETATM   21  C   UNL     1      43.184  -8.128  12.474  1.00  0.00     0.040 A 
ENDBRANCH  15  16
ENDBRANCH  14  15
ENDBRANCH  13  14
ENDBRANCH  12  13
ENDBRANCH  11  12
ENDBRANCH   8  11
ENDBRANCH   1   7
BRANCH   5  22
HETATM   22  C   UNL     1      43.166 -15.034   4.831  1.00  0.00    -0.003 A 
HETATM   23  C   UNL     1      43.766 -16.239   5.232  1.00  0.00     0.053 A 
HETATM   24  C   UNL     1      43.721 -17.312   4.363  1.00  0.00     0.106 A 
HETATM   25  C   UNL     1      43.110 -17.230   3.135  1.00  0.00     0.105 A 
HETATM   26  O   UNL     1      44.254 -18.541   4.598  1.00  0.00    -0.323 OA
HETATM   27  O   UNL     1      43.180 -18.398   2.442  1.00  0.00    -0.323 OA
HETATM   28  C   UNL     1      42.512 -16.069   2.702  1.00  0.00     0.040 A 
HETATM   29  C   UNL     1      43.910 -19.223   3.373  1.00  0.00     0.352 A 
HETATM   30  C   UNL     1      42.545 -14.963   3.561  1.00  0.00     0.017 A 
ENDBRANCH   5  22
TORSDOF 8
ENDMDL
