MODEL 1
REMARK VINA RESULT:      -8.6      0.000      0.000
REMARK  9 active torsions:
REMARK  status: ('A' for Active; 'I' for Inactive)
REMARK    1  A    between atoms: C_2  and  C_3 
REMARK    2  A    between atoms: C_3  and  C_4 
REMARK    3  A    between atoms: C_4  and  O_5 
REMARK    4  A    between atoms: O_5  and  C_6 
REMARK    5  A    between atoms: C_8  and  C_9 
REMARK       I    between atoms: C_9  and  N_10 
REMARK    6  A    between atoms: N_10  and  C_11 
REMARK    7  A    between atoms: N_12  and  C_13 
REMARK    8  A    between atoms: C_15  and  C_16 
REMARK    9  A    between atoms: C_25  and  O_26 
ROOT
HETATM    1  C   UNL     1      41.213 -10.558   5.486  1.00  0.00     0.179 C 
HETATM    2  N   UNL     1      42.125  -9.747   6.073  1.00  0.00    -0.333 N 
HETATM    3  S   UNL     1      39.930  -9.880   4.654  1.00  0.00    -0.040 SA
HETATM    4  H   UNL     1      42.160  -8.812   5.682  1.00  0.00     0.168 HD
ENDROOT
BRANCH   2   5
HETATM    5  C   UNL     1      42.905  -9.946   7.231  1.00  0.00     0.035 A 
HETATM    6  C   UNL     1      42.496  -9.543   8.510  1.00  0.00     0.046 A 
HETATM    7  C   UNL     1      43.311  -9.759   9.637  1.00  0.00     0.035 A 
HETATM    8  C   UNL     1      44.544 -10.406   9.440  1.00  0.00     0.078 A 
HETATM    9  C   UNL     1      44.980 -10.763   8.167  1.00  0.00     0.040 A 
HETATM   10  C   UNL     1      44.168 -10.518   7.063  1.00  0.00     0.032 A 
BRANCH   7  11
HETATM   11  C   UNL     1      42.914  -9.327  10.990  1.00  0.00     0.112 A 
HETATM   12  S   UNL     1      41.451  -9.855  11.723  1.00  0.00    -0.067 SA
HETATM   13  C   UNL     1      41.745  -8.832  13.075  1.00  0.00     0.035 A 
HETATM   14  C   UNL     1      42.956  -8.168  12.885  1.00  0.00     0.075 A 
HETATM   15  C   UNL     1      40.958  -8.628  14.221  1.00  0.00     0.021 A 
HETATM   16  N   UNL     1      43.599  -8.438  11.688  1.00  0.00    -0.239 NA
HETATM   17  C   UNL     1      43.414  -7.289  13.886  1.00  0.00     0.033 A 
HETATM   18  C   UNL     1      42.643  -7.083  15.036  1.00  0.00     0.002 A 
HETATM   19  C   UNL     1      41.427  -7.741  15.196  1.00  0.00     0.002 A 
ENDBRANCH   7  11
BRANCH   8  20
HETATM   20  O   UNL     1      45.393 -10.711  10.474  1.00  0.00    -0.360 OA
HETATM   21  H   UNL     1      46.146 -11.217  10.100  1.00  0.00     0.217 HD
ENDBRANCH   8  20
ENDBRANCH   2   5
BRANCH   1  22
HETATM   22  N   UNL     1      41.321 -11.918   5.509  1.00  0.00    -0.299 N 
HETATM   23  C   UNL     1      42.265 -12.722   4.875  1.00  0.00     0.257 C 
HETATM   24  O   UNL     1      43.102 -12.333   4.069  1.00  0.00    -0.267 OA
HETATM   25  H   UNL     1      40.446 -12.374   5.731  1.00  0.00     0.171 HD
BRANCH  23  26
HETATM   26  C   UNL     1      42.152 -14.184   5.158  1.00  0.00     0.035 A 
HETATM   27  C   UNL     1      43.316 -14.966   5.095  1.00  0.00     0.053 A 
HETATM   28  C   UNL     1      43.253 -16.336   5.343  1.00  0.00     0.069 A 
HETATM   29  C   UNL     1      42.023 -16.923   5.650  1.00  0.00     0.037 A 
HETATM   30  C   UNL     1      40.867 -16.148   5.742  1.00  0.00     0.004 A 
HETATM   31  C   UNL     1      40.930 -14.776   5.505  1.00  0.00     0.017 A 
BRANCH  28  32
HETATM   32  O   UNL     1      44.306 -17.207   5.293  1.00  0.00    -0.351 OA
BRANCH  32  33
HETATM   33  C   UNL     1      44.068 -18.470   4.668  1.00  0.00     0.175 C 
BRANCH  33  34
HETATM   34  C   UNL     1      44.266 -18.279   3.165  1.00  0.00     0.026 C 
BRANCH  34  35
HETATM   35  C   UNL     1      43.071 -18.784   2.362  1.00  0.00    -0.002 C 
HETATM   36  C   UNL     1      43.224 -20.255   2.008  1.00  0.00     0.005 C 
ENDBRANCH  34  35
ENDBRANCH  33  34
ENDBRANCH  32  33
ENDBRANCH  28  32
ENDBRANCH  23  26
ENDBRANCH   1  22
TORSDOF 9
ENDMDL
MODEL 2
REMARK VINA RESULT:      -8.5      2.350     10.374
REMARK  9 active torsions:
REMARK  status: ('A' for Active; 'I' for Inactive)
REMARK    1  A    between atoms: C_2  and  C_3 
REMARK    2  A    between atoms: C_3  and  C_4 
REMARK    3  A    between atoms: C_4  and  O_5 
REMARK    4  A    between atoms: O_5  and  C_6 
REMARK    5  A    between atoms: C_8  and  C_9 
REMARK       I    between atoms: C_9  and  N_10 
REMARK    6  A    between atoms: N_10  and  C_11 
REMARK    7  A    between atoms: N_12  and  C_13 
REMARK    8  A    between atoms: C_15  and  C_16 
REMARK    9  A    between atoms: C_25  and  O_26 
ROOT
HETATM    1  C   UNL     1      40.188 -11.502   6.075  1.00  0.00     0.179 C 
HETATM    2  N   UNL     1      40.024 -12.513   5.190  1.00  0.00    -0.333 N 
HETATM    3  S   UNL     1      38.901 -10.486   6.404  1.00  0.00    -0.040 SA
HETATM    4  H   UNL     1      39.058 -12.792   5.055  1.00  0.00     0.168 HD
ENDROOT
BRANCH   2   5
HETATM    5  C   UNL     1      40.953 -13.118   4.319  1.00  0.00     0.035 A 
HETATM    6  C   UNL     1      41.319 -14.469   4.405  1.00  0.00     0.046 A 
HETATM    7  C   UNL     1      42.255 -15.028   3.515  1.00  0.00     0.035 A 
HETATM    8  C   UNL     1      42.802 -14.191   2.526  1.00  0.00     0.078 A 
HETATM    9  C   UNL     1      42.483 -12.837   2.466  1.00  0.00     0.040 A 
HETATM   10  C   UNL     1      41.572 -12.299   3.372  1.00  0.00     0.032 A 
BRANCH   7  11
HETATM   11  C   UNL     1      42.673 -16.440   3.598  1.00  0.00     0.112 A 
HETATM   12  S   UNL     1      43.378 -17.100   5.021  1.00  0.00    -0.067 SA
HETATM   13  C   UNL     1      43.637 -18.597   4.213  1.00  0.00     0.035 A 
HETATM   14  C   UNL     1      43.147 -18.499   2.911  1.00  0.00     0.075 A 
HETATM   15  C   UNL     1      44.235 -19.773   4.695  1.00  0.00     0.021 A 
HETATM   16  N   UNL     1      42.624 -17.263   2.566  1.00  0.00    -0.239 NA
HETATM   17  C   UNL     1      43.231 -19.624   2.067  1.00  0.00     0.033 A 
HETATM   18  C   UNL     1      43.817 -20.804   2.538  1.00  0.00     0.002 A 
HETATM   19  C   UNL     1      44.318 -20.873   3.834  1.00  0.00     0.002 A 
ENDBRANCH   7  11
BRANCH   8  20
HETATM   20  O   UNL     1      43.683 -14.644   1.578  1.00  0.00    -0.360 OA
HETATM   21  H   UNL     1      43.166 -15.122   0.895  1.00  0.00     0.217 HD
ENDBRANCH   8  20
ENDBRANCH   2   5
BRANCH   1  22
HETATM   22  N   UNL     1      41.358 -11.300   6.747  1.00  0.00    -0.299 N 
HETATM   23  C   UNL     1      42.353 -10.361   6.490  1.00  0.00     0.257 C 
HETATM   24  O   UNL     1      42.395  -9.622   5.512  1.00  0.00    -0.267 OA
HETATM   25  H   UNL     1      41.662 -12.122   7.254  1.00  0.00     0.171 HD
BRANCH  23  26
HETATM   26  C   UNL     1      43.489 -10.351   7.458  1.00  0.00     0.035 A 
HETATM   27  C   UNL     1      43.223 -10.002   8.792  1.00  0.00     0.053 A 
HETATM   28  C   UNL     1      44.256  -9.973   9.727  1.00  0.00     0.069 A 
HETATM   29  C   UNL     1      45.556 -10.287   9.325  1.00  0.00     0.037 A 
HETATM   30  C   UNL     1      45.824 -10.663   8.008  1.00  0.00     0.004 A 
HETATM   31  C   UNL     1      44.790 -10.703   7.074  1.00  0.00     0.017 A 
BRANCH  28  32
HETATM   32  O   UNL     1      44.132  -9.630  11.045  1.00  0.00    -0.351 OA
BRANCH  32  33
HETATM   33  C   UNL     1      42.828  -9.254  11.492  1.00  0.00     0.175 C 
BRANCH  33  34
HETATM   34  C   UNL     1      42.910  -7.806  11.971  1.00  0.00     0.026 C 
BRANCH  34  35
HETATM   35  C   UNL     1      43.093  -7.712  13.482  1.00  0.00    -0.002 C 
HETATM   36  C   UNL     1      42.243  -8.743  14.208  1.00  0.00     0.005 C 
ENDBRANCH  34  35
ENDBRANCH  33  34
ENDBRANCH  32  33
ENDBRANCH  28  32
ENDBRANCH  23  26
ENDBRANCH   1  22
TORSDOF 9
ENDMDL
MODEL 3
REMARK VINA RESULT:      -8.4      3.460      5.354
REMARK  9 active torsions:
REMARK  status: ('A' for Active; 'I' for Inactive)
REMARK    1  A    between atoms: C_2  and  C_3 
REMARK    2  A    between atoms: C_3  and  C_4 
REMARK    3  A    between atoms: C_4  and  O_5 
REMARK    4  A    between atoms: O_5  and  C_6 
REMARK    5  A    between atoms: C_8  and  C_9 
REMARK       I    between atoms: C_9  and  N_10 
REMARK    6  A    between atoms: N_10  and  C_11 
REMARK    7  A    between atoms: N_12  and  C_13 
REMARK    8  A    between atoms: C_15  and  C_16 
REMARK    9  A    between atoms: C_25  and  O_26 
ROOT
HETATM    1  C   UNL     1      41.132 -13.724   1.283  1.00  0.00     0.179 C 
HETATM    2  N   UNL     1      40.902 -12.569   1.950  1.00  0.00    -0.333 N 
HETATM    3  S   UNL     1      40.650 -13.858  -0.313  1.00  0.00    -0.040 SA
HETATM    4  H   UNL     1      40.772 -11.763   1.349  1.00  0.00     0.168 HD
ENDROOT
BRANCH   2   5
HETATM    5  C   UNL     1      40.656 -12.344   3.320  1.00  0.00     0.035 A 
HETATM    6  C   UNL     1      41.558 -11.681   4.163  1.00  0.00     0.046 A 
HETATM    7  C   UNL     1      41.270 -11.484   5.527  1.00  0.00     0.035 A 
HETATM    8  C   UNL     1      40.040 -11.961   6.014  1.00  0.00     0.078 A 
HETATM    9  C   UNL     1      39.161 -12.666   5.196  1.00  0.00     0.040 A 
HETATM   10  C   UNL     1      39.477 -12.870   3.855  1.00  0.00     0.032 A 
BRANCH   7  11
HETATM   11  C   UNL     1      42.211 -10.808   6.440  1.00  0.00     0.112 A 
HETATM   12  S   UNL     1      41.915  -9.226   7.047  1.00  0.00    -0.067 SA
HETATM   13  C   UNL     1      43.451  -9.223   7.821  1.00  0.00     0.035 A 
HETATM   14  C   UNL     1      44.081 -10.443   7.582  1.00  0.00     0.075 A 
HETATM   15  C   UNL     1      44.058  -8.211   8.584  1.00  0.00     0.021 A 
HETATM   16  N   UNL     1      43.379 -11.325   6.777  1.00  0.00    -0.239 NA
HETATM   17  C   UNL     1      45.352 -10.674   8.146  1.00  0.00     0.033 A 
HETATM   18  C   UNL     1      45.963  -9.677   8.914  1.00  0.00     0.002 A 
HETATM   19  C   UNL     1      45.324  -8.459   9.124  1.00  0.00     0.002 A 
ENDBRANCH   7  11
BRANCH   8  20
HETATM   20  O   UNL     1      39.637 -11.779   7.312  1.00  0.00    -0.360 OA
HETATM   21  H   UNL     1      39.663 -12.653   7.757  1.00  0.00     0.217 HD
ENDBRANCH   8  20
ENDBRANCH   2   5
BRANCH   1  22
HETATM   22  N   UNL     1      41.784 -14.780   1.851  1.00  0.00    -0.299 N 
HETATM   23  C   UNL     1      41.264 -16.013   2.234  1.00  0.00     0.257 C 
HETATM   24  O   UNL     1      40.075 -16.312   2.236  1.00  0.00    -0.267 OA
HETATM   25  H   UNL     1      42.631 -14.502   2.329  1.00  0.00     0.171 HD
BRANCH  23  26
HETATM   26  C   UNL     1      42.260 -16.989   2.768  1.00  0.00     0.035 A 
HETATM   27  C   UNL     1      42.750 -16.795   4.070  1.00  0.00     0.053 A 
HETATM   28  C   UNL     1      43.688 -17.678   4.603  1.00  0.00     0.069 A 
HETATM   29  C   UNL     1      44.138 -18.751   3.831  1.00  0.00     0.037 A 
HETATM   30  C   UNL     1      43.635 -18.967   2.547  1.00  0.00     0.004 A 
HETATM   31  C   UNL     1      42.689 -18.091   2.016  1.00  0.00     0.017 A 
BRANCH  28  32
HETATM   32  O   UNL     1      44.255 -17.587   5.843  1.00  0.00    -0.351 OA
BRANCH  32  33
HETATM   33  C   UNL     1      44.415 -16.274   6.384  1.00  0.00     0.175 C 
BRANCH  33  34
HETATM   34  C   UNL     1      43.358 -16.098   7.473  1.00  0.00     0.026 C 
BRANCH  34  35
HETATM   35  C   UNL     1      42.374 -14.980   7.142  1.00  0.00    -0.002 C 
HETATM   36  C   UNL     1      41.035 -15.539   6.687  1.00  0.00     0.005 C 
ENDBRANCH  34  35
ENDBRANCH  33  34
ENDBRANCH  32  33
ENDBRANCH  28  32
ENDBRANCH  23  26
ENDBRANCH   1  22
TORSDOF 9
ENDMDL
MODEL 4
REMARK VINA RESULT:      -8.4      2.746     10.556
REMARK  9 active torsions:
REMARK  status: ('A' for Active; 'I' for Inactive)
REMARK    1  A    between atoms: C_2  and  C_3 
REMARK    2  A    between atoms: C_3  and  C_4 
REMARK    3  A    between atoms: C_4  and  O_5 
REMARK    4  A    between atoms: O_5  and  C_6 
REMARK    5  A    between atoms: C_8  and  C_9 
REMARK       I    between atoms: C_9  and  N_10 
REMARK    6  A    between atoms: N_10  and  C_11 
REMARK    7  A    between atoms: N_12  and  C_13 
REMARK    8  A    between atoms: C_15  and  C_16 
REMARK    9  A    between atoms: C_25  and  O_26 
ROOT
HETATM    1  C   UNL     1      44.436 -10.773   7.442  1.00  0.00     0.179 C 
HETATM    2  N   UNL     1      44.233 -11.284   6.205  1.00  0.00    -0.333 N 
HETATM    3  S   UNL     1      45.988 -10.369   7.916  1.00  0.00    -0.040 SA
HETATM    4  H   UNL     1      44.967 -11.065   5.541  1.00  0.00     0.168 HD
ENDROOT
BRANCH   2   5
HETATM    5  C   UNL     1      43.258 -12.194   5.746  1.00  0.00     0.035 A 
HETATM    6  C   UNL     1      43.546 -13.526   5.416  1.00  0.00     0.046 A 
HETATM    7  C   UNL     1      42.540 -14.397   4.958  1.00  0.00     0.035 A 
HETATM    8  C   UNL     1      41.231 -13.892   4.856  1.00  0.00     0.078 A 
HETATM    9  C   UNL     1      40.946 -12.558   5.133  1.00  0.00     0.040 A 
HETATM   10  C   UNL     1      41.962 -11.707   5.561  1.00  0.00     0.032 A 
BRANCH   7  11
HETATM   11  C   UNL     1      42.820 -15.795   4.585  1.00  0.00     0.112 A 
HETATM   12  S   UNL     1      43.679 -16.862   5.625  1.00  0.00    -0.067 SA
HETATM   13  C   UNL     1      43.649 -18.086   4.416  1.00  0.00     0.035 A 
HETATM   14  C   UNL     1      42.963 -17.603   3.302  1.00  0.00     0.075 A 
HETATM   15  C   UNL     1      44.195 -19.380   4.449  1.00  0.00     0.021 A 
HETATM   16  N   UNL     1      42.518 -16.295   3.400  1.00  0.00    -0.239 NA
HETATM   17  C   UNL     1      42.792 -18.452   2.189  1.00  0.00     0.033 A 
HETATM   18  C   UNL     1      43.325 -19.745   2.213  1.00  0.00     0.002 A 
HETATM   19  C   UNL     1      44.023 -20.199   3.328  1.00  0.00     0.002 A 
ENDBRANCH   7  11
BRANCH   8  20
HETATM   20  O   UNL     1      40.167 -14.666   4.470  1.00  0.00    -0.360 OA
HETATM   21  H   UNL     1      39.398 -14.071   4.341  1.00  0.00     0.217 HD
ENDBRANCH   8  20
ENDBRANCH   2   5
BRANCH   1  22
HETATM   22  N   UNL     1      43.412 -10.534   8.312  1.00  0.00    -0.299 N 
HETATM   23  C   UNL     1      42.821  -9.317   8.640  1.00  0.00     0.257 C 
HETATM   24  O   UNL     1      43.221  -8.215   8.281  1.00  0.00    -0.267 OA
HETATM   25  H   UNL     1      43.317 -11.262   9.009  1.00  0.00     0.171 HD
BRANCH  23  26
HETATM   26  C   UNL     1      41.667  -9.401   9.582  1.00  0.00     0.035 A 
HETATM   27  C   UNL     1      41.934  -9.600  10.946  1.00  0.00     0.053 A 
HETATM   28  C   UNL     1      40.885  -9.692  11.859  1.00  0.00     0.069 A 
HETATM   29  C   UNL     1      39.568  -9.590  11.405  1.00  0.00     0.037 A 
HETATM   30  C   UNL     1      39.295  -9.364  10.056  1.00  0.00     0.004 A 
HETATM   31  C   UNL     1      40.343  -9.260   9.143  1.00  0.00     0.017 A 
BRANCH  28  32
HETATM   32  O   UNL     1      41.012  -9.905  13.204  1.00  0.00    -0.351 OA
BRANCH  32  33
HETATM   33  C   UNL     1      40.880  -8.762  14.052  1.00  0.00     0.175 C 
BRANCH  33  34
HETATM   34  C   UNL     1      42.255  -8.484  14.658  1.00  0.00     0.026 C 
BRANCH  34  35
HETATM   35  C   UNL     1      43.015  -7.412  13.885  1.00  0.00    -0.002 C 
HETATM   36  C   UNL     1      42.064  -6.471  13.161  1.00  0.00     0.005 C 
ENDBRANCH  34  35
ENDBRANCH  33  34
ENDBRANCH  32  33
ENDBRANCH  28  32
ENDBRANCH  23  26
ENDBRANCH   1  22
TORSDOF 9
ENDMDL
MODEL 5
REMARK VINA RESULT:      -8.2      5.383      7.316
REMARK  9 active torsions:
REMARK  status: ('A' for Active; 'I' for Inactive)
REMARK    1  A    between atoms: C_2  and  C_3 
REMARK    2  A    between atoms: C_3  and  C_4 
REMARK    3  A    between atoms: C_4  and  O_5 
REMARK    4  A    between atoms: O_5  and  C_6 
REMARK    5  A    between atoms: C_8  and  C_9 
REMARK       I    between atoms: C_9  and  N_10 
REMARK    6  A    between atoms: N_10  and  C_11 
REMARK    7  A    between atoms: N_12  and  C_13 
REMARK    8  A    between atoms: C_15  and  C_16 
REMARK    9  A    between atoms: C_25  and  O_26 
ROOT
HETATM    1  C   UNL     1      40.594  -8.747   1.670  1.00  0.00     0.179 C 
HETATM    2  N   UNL     1      40.965  -8.733   2.972  1.00  0.00    -0.333 N 
HETATM    3  S   UNL     1      40.461  -7.300   0.842  1.00  0.00    -0.040 SA
HETATM    4  H   UNL     1      41.464  -7.896   3.251  1.00  0.00     0.168 HD
ENDROOT
BRANCH   2   5
HETATM    5  C   UNL     1      40.630  -9.613   4.021  1.00  0.00     0.035 A 
HETATM    6  C   UNL     1      41.329 -10.800   4.281  1.00  0.00     0.046 A 
HETATM    7  C   UNL     1      40.955 -11.650   5.339  1.00  0.00     0.035 A 
HETATM    8  C   UNL     1      39.864 -11.262   6.137  1.00  0.00     0.078 A 
HETATM    9  C   UNL     1      39.133 -10.111   5.856  1.00  0.00     0.040 A 
HETATM   10  C   UNL     1      39.506  -9.298   4.789  1.00  0.00     0.032 A 
BRANCH   7  11
HETATM   11  C   UNL     1      41.660 -12.914   5.619  1.00  0.00     0.112 A 
HETATM   12  S   UNL     1      43.343 -12.961   5.971  1.00  0.00    -0.067 SA
HETATM   13  C   UNL     1      43.300 -14.680   6.011  1.00  0.00     0.035 A 
HETATM   14  C   UNL     1      41.993 -15.105   5.773  1.00  0.00     0.075 A 
HETATM   15  C   UNL     1      44.347 -15.589   6.233  1.00  0.00     0.021 A 
HETATM   16  N   UNL     1      41.076 -14.096   5.529  1.00  0.00    -0.239 NA
HETATM   17  C   UNL     1      41.715 -16.487   5.785  1.00  0.00     0.033 A 
HETATM   18  C   UNL     1      42.749 -17.402   6.013  1.00  0.00     0.002 A 
HETATM   19  C   UNL     1      44.049 -16.956   6.228  1.00  0.00     0.002 A 
ENDBRANCH   7  11
BRANCH   8  20
HETATM   20  O   UNL     1      39.446 -11.989   7.223  1.00  0.00    -0.360 OA
HETATM   21  H   UNL     1      38.466 -11.963   7.239  1.00  0.00     0.217 HD
ENDBRANCH   8  20
ENDBRANCH   2   5
BRANCH   1  22
HETATM   22  N   UNL     1      40.360  -9.905   0.987  1.00  0.00    -0.299 N 
HETATM   23  C   UNL     1      41.171 -10.533   0.045  1.00  0.00     0.257 C 
HETATM   24  O   UNL     1      42.200 -10.066  -0.428  1.00  0.00    -0.267 OA
HETATM   25  H   UNL     1      39.376 -10.129   0.926  1.00  0.00     0.171 HD
BRANCH  23  26
HETATM   26  C   UNL     1      40.658 -11.836  -0.472  1.00  0.00     0.035 A 
HETATM   27  C   UNL     1      40.649 -12.940   0.396  1.00  0.00     0.053 A 
HETATM   28  C   UNL     1      40.185 -14.177  -0.049  1.00  0.00     0.069 A 
HETATM   29  C   UNL     1      39.737 -14.309  -1.365  1.00  0.00     0.037 A 
HETATM   30  C   UNL     1      39.716 -13.211  -2.225  1.00  0.00     0.004 A 
HETATM   31  C   UNL     1      40.169 -11.970  -1.779  1.00  0.00     0.017 A 
BRANCH  28  32
HETATM   32  O   UNL     1      40.145 -15.327   0.688  1.00  0.00    -0.351 OA
BRANCH  32  33
HETATM   33  C   UNL     1      40.734 -15.279   1.989  1.00  0.00     0.175 C 
BRANCH  33  34
HETATM   34  C   UNL     1      41.579 -16.542   2.154  1.00  0.00     0.026 C 
BRANCH  34  35
HETATM   35  C   UNL     1      43.062 -16.222   2.306  1.00  0.00    -0.002 C 
HETATM   36  C   UNL     1      43.316 -14.724   2.239  1.00  0.00     0.005 C 
ENDBRANCH  34  35
ENDBRANCH  33  34
ENDBRANCH  32  33
ENDBRANCH  28  32
ENDBRANCH  23  26
ENDBRANCH   1  22
TORSDOF 9
ENDMDL
MODEL 6
REMARK VINA RESULT:      -8.0      2.820      9.933
REMARK  9 active torsions:
REMARK  status: ('A' for Active; 'I' for Inactive)
REMARK    1  A    between atoms: C_2  and  C_3 
REMARK    2  A    between atoms: C_3  and  C_4 
REMARK    3  A    between atoms: C_4  and  O_5 
REMARK    4  A    between atoms: O_5  and  C_6 
REMARK    5  A    between atoms: C_8  and  C_9 
REMARK       I    between atoms: C_9  and  N_10 
REMARK    6  A    between atoms: N_10  and  C_11 
REMARK    7  A    between atoms: N_12  and  C_13 
REMARK    8  A    between atoms: C_15  and  C_16 
REMARK    9  A    between atoms: C_25  and  O_26 
ROOT
HETATM    1  C   UNL     1      39.251 -10.442   4.492  1.00  0.00     0.179 C 
HETATM    2  N   UNL     1      38.755 -11.372   3.642  1.00  0.00    -0.333 N 
HETATM    3  S   UNL     1      38.357  -9.066   4.811  1.00  0.00    -0.040 SA
HETATM    4  H   UNL     1      37.748 -11.337   3.533  1.00  0.00     0.168 HD
ENDROOT
BRANCH   2   5
HETATM    5  C   UNL     1      39.426 -12.259   2.775  1.00  0.00     0.035 A 
HETATM    6  C   UNL     1      40.163 -13.363   3.226  1.00  0.00     0.046 A 
HETATM    7  C   UNL     1      40.819 -14.219   2.322  1.00  0.00     0.035 A 
HETATM    8  C   UNL     1      40.698 -13.941   0.949  1.00  0.00     0.078 A 
HETATM    9  C   UNL     1      40.010 -12.819   0.495  1.00  0.00     0.040 A 
HETATM   10  C   UNL     1      39.389 -11.971   1.409  1.00  0.00     0.032 A 
BRANCH   7  11
HETATM   11  C   UNL     1      41.619 -15.374   2.771  1.00  0.00     0.112 A 
HETATM   12  S   UNL     1      42.594 -15.312   4.187  1.00  0.00    -0.067 SA
HETATM   13  C   UNL     1      43.193 -16.891   3.859  1.00  0.00     0.035 A 
HETATM   14  C   UNL     1      42.590 -17.370   2.696  1.00  0.00     0.075 A 
HETATM   15  C   UNL     1      44.132 -17.650   4.576  1.00  0.00     0.021 A 
HETATM   16  N   UNL     1      41.717 -16.492   2.075  1.00  0.00    -0.239 NA
HETATM   17  C   UNL     1      42.916 -18.666   2.247  1.00  0.00     0.033 A 
HETATM   18  C   UNL     1      43.844 -19.435   2.957  1.00  0.00     0.002 A 
HETATM   19  C   UNL     1      44.448 -18.929   4.104  1.00  0.00     0.002 A 
ENDBRANCH   7  11
BRANCH   8  20
HETATM   20  O   UNL     1      41.254 -14.737  -0.020  1.00  0.00    -0.360 OA
HETATM   21  H   UNL     1      40.523 -15.080  -0.578  1.00  0.00     0.217 HD
ENDBRANCH   8  20
ENDBRANCH   2   5
BRANCH   1  22
HETATM   22  N   UNL     1      40.443 -10.601   5.137  1.00  0.00    -0.299 N 
HETATM   23  C   UNL     1      41.730 -10.433   4.631  1.00  0.00     0.257 C 
HETATM   24  O   UNL     1      42.009 -10.229   3.456  1.00  0.00    -0.267 OA
HETATM   25  H   UNL     1      40.372 -11.212   5.940  1.00  0.00     0.171 HD
BRANCH  23  26
HETATM   26  C   UNL     1      42.833 -10.618   5.619  1.00  0.00     0.035 A 
HETATM   27  C   UNL     1      42.732  -9.969   6.860  1.00  0.00     0.053 A 
HETATM   28  C   UNL     1      43.745 -10.108   7.808  1.00  0.00     0.069 A 
HETATM   29  C   UNL     1      44.860 -10.894   7.511  1.00  0.00     0.037 A 
HETATM   30  C   UNL     1      44.955 -11.565   6.292  1.00  0.00     0.004 A 
HETATM   31  C   UNL     1      43.939 -11.436   5.347  1.00  0.00     0.017 A 
BRANCH  28  32
HETATM   32  O   UNL     1      43.774  -9.513   9.038  1.00  0.00    -0.351 OA
BRANCH  32  33
HETATM   33  C   UNL     1      44.808  -9.933   9.932  1.00  0.00     0.175 C 
BRANCH  33  34
HETATM   34  C   UNL     1      44.280  -9.757  11.355  1.00  0.00     0.026 C 
BRANCH  34  35
HETATM   35  C   UNL     1      43.236  -8.649  11.445  1.00  0.00    -0.002 C 
HETATM   36  C   UNL     1      43.198  -8.037  12.837  1.00  0.00     0.005 C 
ENDBRANCH  34  35
ENDBRANCH  33  34
ENDBRANCH  32  33
ENDBRANCH  28  32
ENDBRANCH  23  26
ENDBRANCH   1  22
TORSDOF 9
ENDMDL
MODEL 7
REMARK VINA RESULT:      -8.0      4.646      8.710
REMARK  9 active torsions:
REMARK  status: ('A' for Active; 'I' for Inactive)
REMARK    1  A    between atoms: C_2  and  C_3 
REMARK    2  A    between atoms: C_3  and  C_4 
REMARK    3  A    between atoms: C_4  and  O_5 
REMARK    4  A    between atoms: O_5  and  C_6 
REMARK    5  A    between atoms: C_8  and  C_9 
REMARK       I    between atoms: C_9  and  N_10 
REMARK    6  A    between atoms: N_10  and  C_11 
REMARK    7  A    between atoms: N_12  and  C_13 
REMARK    8  A    between atoms: C_15  and  C_16 
REMARK    9  A    between atoms: C_25  and  O_26 
ROOT
HETATM    1  C   UNL     1      42.930 -11.969   6.456  1.00  0.00     0.179 C 
HETATM    2  N   UNL     1      41.757 -11.292   6.459  1.00  0.00    -0.333 N 
HETATM    3  S   UNL     1      44.170 -11.461   7.456  1.00  0.00    -0.040 SA
HETATM    4  H   UNL     1      41.594 -10.751   7.301  1.00  0.00     0.168 HD
ENDROOT
BRANCH   2   5
HETATM    5  C   UNL     1      40.820 -11.095   5.425  1.00  0.00     0.035 A 
HETATM    6  C   UNL     1      41.031 -11.520   4.106  1.00  0.00     0.046 A 
HETATM    7  C   UNL     1      40.067 -11.298   3.105  1.00  0.00     0.035 A 
HETATM    8  C   UNL     1      38.876 -10.647   3.475  1.00  0.00     0.078 A 
HETATM    9  C   UNL     1      38.679 -10.176   4.770  1.00  0.00     0.040 A 
HETATM   10  C   UNL     1      39.658 -10.386   5.739  1.00  0.00     0.032 A 
BRANCH   7  11
HETATM   11  C   UNL     1      40.273 -11.715   1.706  1.00  0.00     0.112 A 
HETATM   12  S   UNL     1      41.110 -10.727   0.574  1.00  0.00    -0.067 SA
HETATM   13  C   UNL     1      40.764 -11.851  -0.682  1.00  0.00     0.035 A 
HETATM   14  C   UNL     1      40.047 -12.921  -0.146  1.00  0.00     0.075 A 
HETATM   15  C   UNL     1      41.099 -11.790  -2.045  1.00  0.00     0.021 A 
HETATM   16  N   UNL     1      39.754 -12.821   1.204  1.00  0.00    -0.239 NA
HETATM   17  C   UNL     1      39.674 -13.982  -0.995  1.00  0.00     0.033 A 
HETATM   18  C   UNL     1      40.009 -13.936  -2.353  1.00  0.00     0.002 A 
HETATM   19  C   UNL     1      40.707 -12.849  -2.870  1.00  0.00     0.002 A 
ENDBRANCH   7  11
BRANCH   8  20
HETATM   20  O   UNL     1      37.849 -10.424   2.592  1.00  0.00    -0.360 OA
HETATM   21  H   UNL     1      37.879  -9.478   2.334  1.00  0.00     0.217 HD
ENDBRANCH   8  20
ENDBRANCH   2   5
BRANCH   1  22
HETATM   22  N   UNL     1      43.130 -13.083   5.694  1.00  0.00    -0.299 N 
HETATM   23  C   UNL     1      42.863 -14.411   6.016  1.00  0.00     0.257 C 
HETATM   24  O   UNL     1      42.511 -14.817   7.117  1.00  0.00    -0.267 OA
HETATM   25  H   UNL     1      43.835 -12.945   4.982  1.00  0.00     0.171 HD
BRANCH  23  26
HETATM   26  C   UNL     1      43.133 -15.398   4.929  1.00  0.00     0.035 A 
HETATM   27  C   UNL     1      43.760 -16.608   5.269  1.00  0.00     0.053 A 
HETATM   28  C   UNL     1      44.037 -17.554   4.282  1.00  0.00     0.069 A 
HETATM   29  C   UNL     1      43.691 -17.285   2.956  1.00  0.00     0.037 A 
HETATM   30  C   UNL     1      43.042 -16.098   2.615  1.00  0.00     0.004 A 
HETATM   31  C   UNL     1      42.754 -15.155   3.601  1.00  0.00     0.017 A 
BRANCH  28  32
HETATM   32  O   UNL     1      44.659 -18.754   4.480  1.00  0.00    -0.351 OA
BRANCH  32  33
HETATM   33  C   UNL     1      43.895 -19.777   5.123  1.00  0.00     0.175 C 
BRANCH  33  34
HETATM   34  C   UNL     1      43.905 -20.999   4.205  1.00  0.00     0.026 C 
BRANCH  34  35
HETATM   35  C   UNL     1      44.175 -20.620   2.752  1.00  0.00    -0.002 C 
HETATM   36  C   UNL     1      42.879 -20.453   1.973  1.00  0.00     0.005 C 
ENDBRANCH  34  35
ENDBRANCH  33  34
ENDBRANCH  32  33
ENDBRANCH  28  32
ENDBRANCH  23  26
ENDBRANCH   1  22
TORSDOF 9
ENDMDL
MODEL 8
REMARK VINA RESULT:      -7.9     19.222     22.654
REMARK  9 active torsions:
REMARK  status: ('A' for Active; 'I' for Inactive)
REMARK    1  A    between atoms: C_2  and  C_3 
REMARK    2  A    between atoms: C_3  and  C_4 
REMARK    3  A    between atoms: C_4  and  O_5 
REMARK    4  A    between atoms: O_5  and  C_6 
REMARK    5  A    between atoms: C_8  and  C_9 
REMARK       I    between atoms: C_9  and  N_10 
REMARK    6  A    between atoms: N_10  and  C_11 
REMARK    7  A    between atoms: N_12  and  C_13 
REMARK    8  A    between atoms: C_15  and  C_16 
REMARK    9  A    between atoms: C_25  and  O_26 
ROOT
HETATM    1  C   UNL     1      44.424 -30.455   1.612  1.00  0.00     0.179 C 
HETATM    2  N   UNL     1      43.835 -30.446   0.393  1.00  0.00    -0.333 N 
HETATM    3  S   UNL     1      43.470 -30.559   2.981  1.00  0.00    -0.040 SA
HETATM    4  H   UNL     1      42.904 -30.846   0.380  1.00  0.00     0.168 HD
ENDROOT
BRANCH   2   5
HETATM    5  C   UNL     1      44.243 -29.830  -0.808  1.00  0.00     0.035 A 
HETATM    6  C   UNL     1      44.350 -30.518  -2.026  1.00  0.00     0.046 A 
HETATM    7  C   UNL     1      44.765 -29.861  -3.199  1.00  0.00     0.035 A 
HETATM    8  C   UNL     1      45.054 -28.487  -3.115  1.00  0.00     0.078 A 
HETATM    9  C   UNL     1      45.000 -27.808  -1.900  1.00  0.00     0.040 A 
HETATM   10  C   UNL     1      44.610 -28.484  -0.746  1.00  0.00     0.032 A 
BRANCH   7  11
HETATM   11  C   UNL     1      44.906 -30.565  -4.487  1.00  0.00     0.112 A 
HETATM   12  S   UNL     1      46.237 -31.605  -4.815  1.00  0.00    -0.067 SA
HETATM   13  C   UNL     1      45.680 -31.827  -6.428  1.00  0.00     0.035 A 
HETATM   14  C   UNL     1      44.499 -31.106  -6.602  1.00  0.00     0.075 A 
HETATM   15  C   UNL     1      46.249 -32.583  -7.467  1.00  0.00     0.021 A 
HETATM   16  N   UNL     1      44.083 -30.375  -5.502  1.00  0.00    -0.239 NA
HETATM   17  C   UNL     1      43.847 -31.163  -7.850  1.00  0.00     0.033 A 
HETATM   18  C   UNL     1      44.399 -31.918  -8.890  1.00  0.00     0.002 A 
HETATM   19  C   UNL     1      45.589 -32.614  -8.700  1.00  0.00     0.002 A 
ENDBRANCH   7  11
BRANCH   8  20
HETATM   20  O   UNL     1      45.418 -27.739  -4.205  1.00  0.00    -0.360 OA
HETATM   21  H   UNL     1      44.704 -27.087  -4.371  1.00  0.00     0.217 HD
ENDBRANCH   8  20
ENDBRANCH   2   5
BRANCH   1  22
HETATM   22  N   UNL     1      45.779 -30.423   1.770  1.00  0.00    -0.299 N 
HETATM   23  C   UNL     1      46.578 -29.360   2.182  1.00  0.00     0.257 C 
HETATM   24  O   UNL     1      46.193 -28.209   2.354  1.00  0.00    -0.267 OA
HETATM   25  H   UNL     1      46.251 -31.130   1.220  1.00  0.00     0.171 HD
BRANCH  23  26
HETATM   26  C   UNL     1      48.032 -29.669   2.321  1.00  0.00     0.035 A 
HETATM   27  C   UNL     1      48.805 -29.774   1.153  1.00  0.00     0.053 A 
HETATM   28  C   UNL     1      50.165 -30.069   1.238  1.00  0.00     0.069 A 
HETATM   29  C   UNL     1      50.748 -30.265   2.492  1.00  0.00     0.037 A 
HETATM   30  C   UNL     1      49.993 -30.134   3.658  1.00  0.00     0.004 A 
HETATM   31  C   UNL     1      48.635 -29.828   3.576  1.00  0.00     0.017 A 
BRANCH  28  32
HETATM   32  O   UNL     1      51.017 -30.219   0.181  1.00  0.00    -0.351 OA
BRANCH  32  33
HETATM   33  C   UNL     1      50.782 -31.333  -0.684  1.00  0.00     0.175 C 
BRANCH  33  34
HETATM   34  C   UNL     1      50.351 -30.774  -2.039  1.00  0.00     0.026 C 
BRANCH  34  35
HETATM   35  C   UNL     1      48.859 -30.968  -2.289  1.00  0.00    -0.002 C 
HETATM   36  C   UNL     1      48.332 -32.200  -1.569  1.00  0.00     0.005 C 
ENDBRANCH  34  35
ENDBRANCH  33  34
ENDBRANCH  32  33
ENDBRANCH  28  32
ENDBRANCH  23  26
ENDBRANCH   1  22
TORSDOF 9
ENDMDL
MODEL 9
REMARK VINA RESULT:      -7.8      1.897      2.312
REMARK  9 active torsions:
REMARK  status: ('A' for Active; 'I' for Inactive)
REMARK    1  A    between atoms: C_2  and  C_3 
REMARK    2  A    between atoms: C_3  and  C_4 
REMARK    3  A    between atoms: C_4  and  O_5 
REMARK    4  A    between atoms: O_5  and  C_6 
REMARK    5  A    between atoms: C_8  and  C_9 
REMARK       I    between atoms: C_9  and  N_10 
REMARK    6  A    between atoms: N_10  and  C_11 
REMARK    7  A    between atoms: N_12  and  C_13 
REMARK    8  A    between atoms: C_15  and  C_16 
REMARK    9  A    between atoms: C_25  and  O_26 
ROOT
HETATM    1  C   UNL     1      41.085 -10.225   4.990  1.00  0.00     0.179 C 
HETATM    2  N   UNL     1      42.052  -9.529   5.633  1.00  0.00    -0.333 N 
HETATM    3  S   UNL     1      39.949  -9.398   4.081  1.00  0.00    -0.040 SA
HETATM    4  H   UNL     1      42.227  -8.608   5.246  1.00  0.00     0.168 HD
ENDROOT
BRANCH   2   5
HETATM    5  C   UNL     1      42.729  -9.814   6.837  1.00  0.00     0.035 A 
HETATM    6  C   UNL     1      42.397  -9.221   8.063  1.00  0.00     0.046 A 
HETATM    7  C   UNL     1      43.104  -9.535   9.239  1.00  0.00     0.035 A 
HETATM    8  C   UNL     1      44.147 -10.475   9.147  1.00  0.00     0.078 A 
HETATM    9  C   UNL     1      44.516 -11.030   7.924  1.00  0.00     0.040 A 
HETATM   10  C   UNL     1      43.817 -10.687   6.769  1.00  0.00     0.032 A 
BRANCH   7  11
HETATM   11  C   UNL     1      42.790  -8.910  10.537  1.00  0.00     0.112 A 
HETATM   12  S   UNL     1      42.862  -7.207  10.769  1.00  0.00    -0.067 SA
HETATM   13  C   UNL     1      42.514  -7.408  12.442  1.00  0.00     0.035 A 
HETATM   14  C   UNL     1      42.343  -8.767  12.708  1.00  0.00     0.075 A 
HETATM   15  C   UNL     1      42.402  -6.435  13.449  1.00  0.00     0.021 A 
HETATM   16  N   UNL     1      42.526  -9.611  11.625  1.00  0.00    -0.239 NA
HETATM   17  C   UNL     1      42.023  -9.167  14.021  1.00  0.00     0.033 A 
HETATM   18  C   UNL     1      41.901  -8.206  15.030  1.00  0.00     0.002 A 
HETATM   19  C   UNL     1      42.095  -6.858  14.746  1.00  0.00     0.002 A 
ENDBRANCH   7  11
BRANCH   8  20
HETATM   20  O   UNL     1      44.867 -10.890  10.237  1.00  0.00    -0.360 OA
HETATM   21  H   UNL     1      45.647 -11.385   9.907  1.00  0.00     0.217 HD
ENDBRANCH   8  20
ENDBRANCH   2   5
BRANCH   1  22
HETATM   22  N   UNL     1      41.021 -11.587   5.019  1.00  0.00    -0.299 N 
HETATM   23  C   UNL     1      40.214 -12.399   5.812  1.00  0.00     0.257 C 
HETATM   24  O   UNL     1      39.498 -12.010   6.728  1.00  0.00    -0.267 OA
HETATM   25  H   UNL     1      41.867 -12.023   4.677  1.00  0.00     0.171 HD
BRANCH  23  26
HETATM   26  C   UNL     1      40.333 -13.864   5.555  1.00  0.00     0.035 A 
HETATM   27  C   UNL     1      40.550 -14.293   4.235  1.00  0.00     0.053 A 
HETATM   28  C   UNL     1      40.659 -15.653   3.950  1.00  0.00     0.069 A 
HETATM   29  C   UNL     1      40.545 -16.584   4.985  1.00  0.00     0.037 A 
HETATM   30  C   UNL     1      40.357 -16.165   6.303  1.00  0.00     0.004 A 
HETATM   31  C   UNL     1      40.259 -14.804   6.592  1.00  0.00     0.017 A 
BRANCH  28  32
HETATM   32  O   UNL     1      40.849 -16.197   2.710  1.00  0.00    -0.351 OA
BRANCH  32  33
HETATM   33  C   UNL     1      41.930 -17.121   2.571  1.00  0.00     0.175 C 
BRANCH  33  34
HETATM   34  C   UNL     1      43.228 -16.337   2.764  1.00  0.00     0.026 C 
BRANCH  34  35
HETATM   35  C   UNL     1      43.481 -15.359   1.621  1.00  0.00    -0.002 C 
HETATM   36  C   UNL     1      43.469 -13.920   2.111  1.00  0.00     0.005 C 
ENDBRANCH  34  35
ENDBRANCH  33  34
ENDBRANCH  32  33
ENDBRANCH  28  32
ENDBRANCH  23  26
ENDBRANCH   1  22
TORSDOF 9
ENDMDL
MODEL 10
REMARK VINA RESULT:      -7.6      4.835      9.192
REMARK  9 active torsions:
REMARK  status: ('A' for Active; 'I' for Inactive)
REMARK    1  A    between atoms: C_2  and  C_3 
REMARK    2  A    between atoms: C_3  and  C_4 
REMARK    3  A    between atoms: C_4  and  O_5 
REMARK    4  A    between atoms: O_5  and  C_6 
REMARK    5  A    between atoms: C_8  and  C_9 
REMARK       I    between atoms: C_9  and  N_10 
REMARK    6  A    between atoms: N_10  and  C_11 
REMARK    7  A    between atoms: N_12  and  C_13 
REMARK    8  A    between atoms: C_15  and  C_16 
REMARK    9  A    between atoms: C_25  and  O_26 
ROOT
HETATM    1  C   UNL     1      39.224 -10.555   6.377  1.00  0.00     0.179 C 
HETATM    2  N   UNL     1      38.764  -9.745   5.394  1.00  0.00    -0.333 N 
HETATM    3  S   UNL     1      39.191 -10.020   7.961  1.00  0.00    -0.040 SA
HETATM    4  H   UNL     1      38.125  -9.026   5.715  1.00  0.00     0.168 HD
ENDROOT
BRANCH   2   5
HETATM    5  C   UNL     1      39.156  -9.643   4.043  1.00  0.00     0.035 A 
HETATM    6  C   UNL     1      38.937 -10.658   3.102  1.00  0.00     0.046 A 
HETATM    7  C   UNL     1      39.350 -10.512   1.764  1.00  0.00     0.035 A 
HETATM    8  C   UNL     1      39.977  -9.307   1.398  1.00  0.00     0.078 A 
HETATM    9  C   UNL     1      40.244  -8.315   2.338  1.00  0.00     0.040 A 
HETATM   10  C   UNL     1      39.848  -8.491   3.662  1.00  0.00     0.032 A 
BRANCH   7  11
HETATM   11  C   UNL     1      39.152 -11.573   0.759  1.00  0.00     0.112 A 
HETATM   12  S   UNL     1      40.085 -13.018   0.762  1.00  0.00    -0.067 SA
HETATM   13  C   UNL     1      39.327 -13.525  -0.697  1.00  0.00     0.035 A 
HETATM   14  C   UNL     1      38.393 -12.563  -1.079  1.00  0.00     0.075 A 
HETATM   15  C   UNL     1      39.545 -14.689  -1.452  1.00  0.00     0.021 A 
HETATM   16  N   UNL     1      38.319 -11.449  -0.259  1.00  0.00    -0.239 NA
HETATM   17  C   UNL     1      37.629 -12.782  -2.243  1.00  0.00     0.033 A 
HETATM   18  C   UNL     1      37.832 -13.942  -2.999  1.00  0.00     0.002 A 
HETATM   19  C   UNL     1      38.783 -14.879  -2.609  1.00  0.00     0.002 A 
ENDBRANCH   7  11
BRANCH   8  20
HETATM   20  O   UNL     1      40.374  -9.040   0.113  1.00  0.00    -0.360 OA
HETATM   21  H   UNL     1      41.233  -8.569   0.159  1.00  0.00     0.217 HD
ENDBRANCH   8  20
ENDBRANCH   2   5
BRANCH   1  22
HETATM   22  N   UNL     1      39.679 -11.818   6.131  1.00  0.00    -0.299 N 
HETATM   23  C   UNL     1      40.989 -12.240   5.921  1.00  0.00     0.257 C 
HETATM   24  O   UNL     1      41.960 -11.503   5.796  1.00  0.00    -0.267 OA
HETATM   25  H   UNL     1      38.964 -12.419   5.742  1.00  0.00     0.171 HD
BRANCH  23  26
HETATM   26  C   UNL     1      41.165 -13.712   5.745  1.00  0.00     0.035 A 
HETATM   27  C   UNL     1      42.275 -14.167   5.015  1.00  0.00     0.053 A 
HETATM   28  C   UNL     1      42.473 -15.533   4.821  1.00  0.00     0.069 A 
HETATM   29  C   UNL     1      41.556 -16.442   5.353  1.00  0.00     0.037 A 
HETATM   30  C   UNL     1      40.466 -16.000   6.104  1.00  0.00     0.004 A 
HETATM   31  C   UNL     1      40.273 -14.634   6.308  1.00  0.00     0.017 A 
BRANCH  28  32
HETATM   32  O   UNL     1      43.497 -16.100   4.115  1.00  0.00    -0.351 OA
BRANCH  32  33
HETATM   33  C   UNL     1      43.158 -16.715   2.870  1.00  0.00     0.175 C 
BRANCH  33  34
HETATM   34  C   UNL     1      43.837 -18.083   2.838  1.00  0.00     0.026 C 
BRANCH  34  35
HETATM   35  C   UNL     1      42.966 -19.139   2.166  1.00  0.00    -0.002 C 
HETATM   36  C   UNL     1      43.717 -20.451   1.998  1.00  0.00     0.005 C 
ENDBRANCH  34  35
ENDBRANCH  33  34
ENDBRANCH  32  33
ENDBRANCH  28  32
ENDBRANCH  23  26
ENDBRANCH   1  22
TORSDOF 9
ENDMDL
