MODEL 1
REMARK VINA RESULT:      -7.9      0.000      0.000
REMARK  12 active torsions:
REMARK  status: ('A' for Active; 'I' for Inactive)
REMARK    1  A    between atoms: C_2  and  N_3 
REMARK    2  A    between atoms: N_3  and  C_5 
REMARK    3  A    between atoms: N_3  and  C_37 
REMARK    4  A    between atoms: C_5  and  C_6 
REMARK    5  A    between atoms: N_7  and  C_8 
REMARK    6  A    between atoms: C_12  and  N_13 
REMARK    7  A    between atoms: C_16  and  C_17 
REMARK       I    between atoms: C_17  and  N_18 
REMARK    8  A    between atoms: N_18  and  N_19 
REMARK    9  A    between atoms: C_20  and  C_21 
REMARK   10  A    between atoms: C_23  and  C_24 
REMARK   11  A    between atoms: C_28  and  O_29 
REMARK   12  A    between atoms: C_30  and  C_31 
ROOT
HETATM    1  C   UNL     1      40.524  -9.935   7.067  1.00  0.00     0.293 C 
HETATM    2  N   UNL     1      40.316 -11.292   6.922  1.00  0.00    -0.242 N 
HETATM    3  O   UNL     1      41.087  -9.204   6.254  1.00  0.00    -0.264 OA
HETATM    4  H   UNL     1      39.835 -11.827   7.641  1.00  0.00     0.192 HD
ENDROOT
BRANCH   1   5
HETATM    5  C   UNL     1      40.026  -9.376   8.315  1.00  0.00     0.170 A 
HETATM    6  C   UNL     1      40.789  -9.024   9.420  1.00  0.00     0.096 A 
HETATM    7  N   UNL     1      39.853  -8.646  10.378  1.00  0.00    -0.215 N 
HETATM    8  N   UNL     1      38.618  -8.658   9.808  1.00  0.00     0.012 NA
HETATM    9  N   UNL     1      38.712  -9.125   8.574  1.00  0.00    -0.152 NA
BRANCH   6  10
HETATM   10  C   UNL     1      42.263  -8.942   9.567  1.00  0.00     0.296 C 
BRANCH  10  11
HETATM   11  N   UNL     1      42.996 -10.253   9.789  1.00  0.00    -0.066 N 
HETATM   12  H   UNL     1      42.270 -10.979   9.885  1.00  0.00     0.280 HD
BRANCH  11  13
HETATM   13  C   UNL     1      43.786 -10.221  11.092  1.00  0.00     0.231 C 
HETATM   14  C   UNL     1      43.760  -8.842  11.724  1.00  0.00     0.034 C 
ENDBRANCH  11  13
BRANCH  11  15
HETATM   15  C   UNL     1      43.891 -10.625   8.615  1.00  0.00     0.231 C 
HETATM   16  C   UNL     1      45.353 -10.357   8.937  1.00  0.00     0.034 C 
ENDBRANCH  11  15
ENDBRANCH  10  11
ENDBRANCH   6  10
BRANCH   7  17
HETATM   17  C   UNL     1      40.062  -8.346  11.745  1.00  0.00     0.225 A 
HETATM   18  N   UNL     1      40.128  -7.071  12.142  1.00  0.00    -0.081 NA
HETATM   19  O   UNL     1      40.361  -7.168  13.518  1.00  0.00    -0.103 OA
HETATM   20  N   UNL     1      40.461  -8.492  13.918  1.00  0.00    -0.083 NA
HETATM   21  C   UNL     1      40.278  -9.223  12.819  1.00  0.00     0.201 A 
BRANCH  21  22
HETATM   22  N   UNL     1      40.299 -10.564  12.784  1.00  0.00    -0.379 N 
HETATM   23  H   UNL     1      39.434 -11.088  12.672  1.00  0.00     0.158 HD
HETATM   24  H   UNL     1      41.105 -11.128  13.047  1.00  0.00     0.158 HD
ENDBRANCH  21  22
ENDBRANCH   7  17
ENDBRANCH   1   5
BRANCH   2  25
HETATM   25  N   UNL     1      40.756 -11.901   5.789  1.00  0.00    -0.184 NA
HETATM   26  C   UNL     1      39.858 -12.253   4.926  1.00  0.00     0.150 C 
BRANCH  26  27
HETATM   27  C   UNL     1      40.245 -12.916   3.661  1.00  0.00    -0.016 A 
HETATM   28  C   UNL     1      41.152 -13.980   3.673  1.00  0.00     0.023 A 
HETATM   29  C   UNL     1      41.553 -14.635   2.494  1.00  0.00    -0.016 A 
HETATM   30  C   UNL     1      40.996 -14.137   1.286  1.00  0.00     0.079 A 
HETATM   31  C   UNL     1      40.071 -13.050   1.238  1.00  0.00    -0.016 A 
HETATM   32  C   UNL     1      39.706 -12.460   2.461  1.00  0.00     0.023 A 
BRANCH  29  33
HETATM   33  C   UNL     1      42.549 -15.822   2.591  1.00  0.00    -0.021 C 
HETATM   34  C   UNL     1      41.896 -17.213   2.337  1.00  0.00     0.019 C 
HETATM   35  C   UNL     1      43.656 -15.702   1.519  1.00  0.00     0.019 C 
HETATM   36  C   UNL     1      43.151 -15.914   4.012  1.00  0.00     0.019 C 
ENDBRANCH  29  33
BRANCH  30  37
HETATM   37  O   UNL     1      41.315 -14.680   0.072  1.00  0.00    -0.360 OA
HETATM   38  H   UNL     1      41.922 -15.422   0.162  1.00  0.00     0.217 HD
ENDBRANCH  30  37
BRANCH  31  39
HETATM   39  C   UNL     1      39.493 -12.510  -0.099  1.00  0.00    -0.021 C 
HETATM   40  C   UNL     1      40.557 -11.696  -0.870  1.00  0.00     0.019 C 
HETATM   41  C   UNL     1      39.027 -13.627  -1.071  1.00  0.00     0.019 C 
HETATM   42  C   UNL     1      38.245 -11.637   0.168  1.00  0.00     0.019 C 
ENDBRANCH  31  39
ENDBRANCH  26  27
ENDBRANCH   2  25
TORSDOF 12
ENDMDL
MODEL 2
REMARK VINA RESULT:      -7.9      0.256      3.043
REMARK  12 active torsions:
REMARK  status: ('A' for Active; 'I' for Inactive)
REMARK    1  A    between atoms: C_2  and  N_3 
REMARK    2  A    between atoms: N_3  and  C_5 
REMARK    3  A    between atoms: N_3  and  C_37 
REMARK    4  A    between atoms: C_5  and  C_6 
REMARK    5  A    between atoms: N_7  and  C_8 
REMARK    6  A    between atoms: C_12  and  N_13 
REMARK    7  A    between atoms: C_16  and  C_17 
REMARK       I    between atoms: C_17  and  N_18 
REMARK    8  A    between atoms: N_18  and  N_19 
REMARK    9  A    between atoms: C_20  and  C_21 
REMARK   10  A    between atoms: C_23  and  C_24 
REMARK   11  A    between atoms: C_28  and  O_29 
REMARK   12  A    between atoms: C_30  and  C_31 
ROOT
HETATM    1  C   UNL     1      40.563  -9.954   7.117  1.00  0.00     0.293 C 
HETATM    2  N   UNL     1      40.247 -11.286   6.930  1.00  0.00    -0.242 N 
HETATM    3  O   UNL     1      41.234  -9.262   6.354  1.00  0.00    -0.264 OA
HETATM    4  H   UNL     1      39.680 -11.789   7.607  1.00  0.00     0.192 HD
ENDROOT
BRANCH   1   5
HETATM    5  C   UNL     1      40.041  -9.376   8.346  1.00  0.00     0.170 A 
HETATM    6  C   UNL     1      40.779  -9.021   9.467  1.00  0.00     0.096 A 
HETATM    7  N   UNL     1      39.825  -8.621  10.397  1.00  0.00    -0.215 N 
HETATM    8  N   UNL     1      38.605  -8.623   9.795  1.00  0.00     0.012 NA
HETATM    9  N   UNL     1      38.723  -9.105   8.569  1.00  0.00    -0.152 NA
BRANCH   6  10
HETATM   10  C   UNL     1      42.250  -8.956   9.650  1.00  0.00     0.296 C 
BRANCH  10  11
HETATM   11  N   UNL     1      42.954 -10.266   9.956  1.00  0.00    -0.066 N 
HETATM   12  H   UNL     1      42.216 -10.986  10.012  1.00  0.00     0.280 HD
BRANCH  11  13
HETATM   13  C   UNL     1      43.641 -10.211  11.316  1.00  0.00     0.231 C 
HETATM   14  C   UNL     1      43.719  -8.790  11.841  1.00  0.00     0.034 C 
ENDBRANCH  11  13
BRANCH  11  15
HETATM   15  C   UNL     1      43.934 -10.670   8.863  1.00  0.00     0.231 C 
HETATM   16  C   UNL     1      44.572  -9.446   8.224  1.00  0.00     0.034 C 
ENDBRANCH  11  15
ENDBRANCH  10  11
ENDBRANCH   6  10
BRANCH   7  17
HETATM   17  C   UNL     1      40.003  -8.308  11.764  1.00  0.00     0.225 A 
HETATM   18  N   UNL     1      40.018  -7.030  12.157  1.00  0.00    -0.081 NA
HETATM   19  O   UNL     1      40.234  -7.114  13.537  1.00  0.00    -0.103 OA
HETATM   20  N   UNL     1      40.375  -8.432  13.944  1.00  0.00    -0.083 NA
HETATM   21  C   UNL     1      40.234  -9.173  12.846  1.00  0.00     0.201 A 
BRANCH  21  22
HETATM   22  N   UNL     1      40.303 -10.513  12.816  1.00  0.00    -0.379 N 
HETATM   23  H   UNL     1      39.624 -11.049  12.280  1.00  0.00     0.158 HD
HETATM   24  H   UNL     1      40.880 -11.067  13.446  1.00  0.00     0.158 HD
ENDBRANCH  21  22
ENDBRANCH   7  17
ENDBRANCH   1   5
BRANCH   2  25
HETATM   25  N   UNL     1      40.700 -11.911   5.812  1.00  0.00    -0.184 NA
HETATM   26  C   UNL     1      39.834 -12.144   4.878  1.00  0.00     0.150 C 
BRANCH  26  27
HETATM   27  C   UNL     1      40.239 -12.814   3.623  1.00  0.00    -0.016 A 
HETATM   28  C   UNL     1      39.719 -12.385   2.398  1.00  0.00     0.023 A 
HETATM   29  C   UNL     1      40.071 -12.997   1.180  1.00  0.00    -0.016 A 
HETATM   30  C   UNL     1      40.973 -14.090   1.272  1.00  0.00     0.079 A 
HETATM   31  C   UNL     1      41.518 -14.555   2.507  1.00  0.00    -0.016 A 
HETATM   32  C   UNL     1      41.131 -13.880   3.677  1.00  0.00     0.023 A 
BRANCH  29  33
HETATM   33  C   UNL     1      39.467 -12.451  -0.142  1.00  0.00    -0.021 C 
HETATM   34  C   UNL     1      38.981 -13.563  -1.118  1.00  0.00     0.019 C 
HETATM   35  C   UNL     1      38.213 -11.593   0.137  1.00  0.00     0.019 C 
HETATM   36  C   UNL     1      40.527 -11.654  -0.937  1.00  0.00     0.019 C 
ENDBRANCH  29  33
BRANCH  30  37
HETATM   37  O   UNL     1      41.383 -14.776   0.162  1.00  0.00    -0.360 OA
HETATM   38  H   UNL     1      42.298 -14.575  -0.063  1.00  0.00     0.217 HD
ENDBRANCH  30  37
BRANCH  31  39
HETATM   39  C   UNL     1      42.486 -15.768   2.582  1.00  0.00    -0.021 C 
HETATM   40  C   UNL     1      41.729 -17.093   2.337  1.00  0.00     0.019 C 
HETATM   41  C   UNL     1      43.620 -15.726   1.522  1.00  0.00     0.019 C 
HETATM   42  C   UNL     1      43.195 -15.807   3.955  1.00  0.00     0.019 C 
ENDBRANCH  31  39
ENDBRANCH  26  27
ENDBRANCH   2  25
TORSDOF 12
ENDMDL
MODEL 3
REMARK VINA RESULT:      -7.2      4.281     10.446
REMARK  12 active torsions:
REMARK  status: ('A' for Active; 'I' for Inactive)
REMARK    1  A    between atoms: C_2  and  N_3 
REMARK    2  A    between atoms: N_3  and  C_5 
REMARK    3  A    between atoms: N_3  and  C_37 
REMARK    4  A    between atoms: C_5  and  C_6 
REMARK    5  A    between atoms: N_7  and  C_8 
REMARK    6  A    between atoms: C_12  and  N_13 
REMARK    7  A    between atoms: C_16  and  C_17 
REMARK       I    between atoms: C_17  and  N_18 
REMARK    8  A    between atoms: N_18  and  N_19 
REMARK    9  A    between atoms: C_20  and  C_21 
REMARK   10  A    between atoms: C_23  and  C_24 
REMARK   11  A    between atoms: C_28  and  O_29 
REMARK   12  A    between atoms: C_30  and  C_31 
ROOT
HETATM    1  C   UNL     1      42.854 -14.984   5.886  1.00  0.00     0.293 C 
HETATM    2  N   UNL     1      43.714 -13.928   6.115  1.00  0.00    -0.242 N 
HETATM    3  O   UNL     1      41.647 -14.991   6.122  1.00  0.00    -0.264 OA
HETATM    4  H   UNL     1      44.702 -14.000   5.888  1.00  0.00     0.192 HD
ENDROOT
BRANCH   1   5
HETATM    5  C   UNL     1      43.488 -16.171   5.330  1.00  0.00     0.170 A 
HETATM    6  C   UNL     1      42.992 -16.964   4.305  1.00  0.00     0.096 A 
HETATM    7  N   UNL     1      43.897 -18.017   4.215  1.00  0.00    -0.215 N 
HETATM    8  N   UNL     1      44.933 -17.772   5.061  1.00  0.00     0.012 NA
HETATM    9  N   UNL     1      44.679 -16.677   5.758  1.00  0.00    -0.152 NA
BRANCH   6  10
HETATM   10  C   UNL     1      41.835 -16.735   3.405  1.00  0.00     0.296 C 
BRANCH  10  11
HETATM   11  N   UNL     1      41.589 -15.302   2.967  1.00  0.00    -0.066 N 
HETATM   12  H   UNL     1      41.649 -14.724   3.819  1.00  0.00     0.280 HD
BRANCH  11  13
HETATM   13  C   UNL     1      40.183 -15.139   2.403  1.00  0.00     0.231 C 
HETATM   14  C   UNL     1      40.180 -15.216   0.887  1.00  0.00     0.034 C 
ENDBRANCH  11  13
BRANCH  11  15
HETATM   15  C   UNL     1      42.637 -14.807   1.979  1.00  0.00     0.231 C 
HETATM   16  C   UNL     1      43.257 -13.501   2.450  1.00  0.00     0.034 C 
ENDBRANCH  11  15
ENDBRANCH  10  11
ENDBRANCH   6  10
BRANCH   7  17
HETATM   17  C   UNL     1      43.800 -19.200   3.446  1.00  0.00     0.225 A 
HETATM   18  N   UNL     1      43.382 -19.136   2.178  1.00  0.00    -0.081 NA
HETATM   19  O   UNL     1      43.393 -20.472   1.762  1.00  0.00    -0.103 OA
HETATM   20  N   UNL     1      43.786 -21.315   2.790  1.00  0.00    -0.083 NA
HETATM   21  C   UNL     1      44.036 -20.529   3.836  1.00  0.00     0.201 A 
BRANCH  21  22
HETATM   22  N   UNL     1      44.446 -20.964   5.036  1.00  0.00    -0.379 N 
HETATM   23  H   UNL     1      43.935 -21.700   5.517  1.00  0.00     0.158 HD
HETATM   24  H   UNL     1      45.140 -20.486   5.609  1.00  0.00     0.158 HD
ENDBRANCH  21  22
ENDBRANCH   7  17
ENDBRANCH   1   5
BRANCH   2  25
HETATM   25  N   UNL     1      43.210 -12.781   6.641  1.00  0.00    -0.184 NA
HETATM   26  C   UNL     1      43.105 -11.766   5.843  1.00  0.00     0.150 C 
BRANCH  26  27
HETATM   27  C   UNL     1      42.560 -10.479   6.327  1.00  0.00    -0.016 A 
HETATM   28  C   UNL     1      41.641  -9.767   5.549  1.00  0.00     0.023 A 
HETATM   29  C   UNL     1      41.102  -8.536   5.967  1.00  0.00    -0.016 A 
HETATM   30  C   UNL     1      41.563  -8.049   7.220  1.00  0.00     0.079 A 
HETATM   31  C   UNL     1      42.503  -8.748   8.035  1.00  0.00    -0.016 A 
HETATM   32  C   UNL     1      42.980  -9.981   7.556  1.00  0.00     0.023 A 
BRANCH  29  33
HETATM   33  C   UNL     1      40.072  -7.815   5.057  1.00  0.00    -0.021 C 
HETATM   34  C   UNL     1      38.753  -7.424   5.787  1.00  0.00     0.019 C 
HETATM   35  C   UNL     1      40.643  -6.480   4.528  1.00  0.00     0.019 C 
HETATM   36  C   UNL     1      39.631  -8.736   3.896  1.00  0.00     0.019 C 
ENDBRANCH  29  33
BRANCH  30  37
HETATM   37  O   UNL     1      41.124  -6.858   7.731  1.00  0.00    -0.360 OA
HETATM   38  H   UNL     1      41.770  -6.468   8.329  1.00  0.00     0.217 HD
ENDBRANCH  30  37
BRANCH  31  39
HETATM   39  C   UNL     1      43.007  -8.183   9.392  1.00  0.00    -0.021 C 
HETATM   40  C   UNL     1      44.311  -8.887   9.831  1.00  0.00     0.019 C 
HETATM   41  C   UNL     1      43.337  -6.666   9.349  1.00  0.00     0.019 C 
HETATM   42  C   UNL     1      41.921  -8.347  10.481  1.00  0.00     0.019 C 
ENDBRANCH  31  39
ENDBRANCH  26  27
ENDBRANCH   2  25
TORSDOF 12
ENDMDL
MODEL 4
REMARK VINA RESULT:      -7.2      3.604     11.450
REMARK  12 active torsions:
REMARK  status: ('A' for Active; 'I' for Inactive)
REMARK    1  A    between atoms: C_2  and  N_3 
REMARK    2  A    between atoms: N_3  and  C_5 
REMARK    3  A    between atoms: N_3  and  C_37 
REMARK    4  A    between atoms: C_5  and  C_6 
REMARK    5  A    between atoms: N_7  and  C_8 
REMARK    6  A    between atoms: C_12  and  N_13 
REMARK    7  A    between atoms: C_16  and  C_17 
REMARK       I    between atoms: C_17  and  N_18 
REMARK    8  A    between atoms: N_18  and  N_19 
REMARK    9  A    between atoms: C_20  and  C_21 
REMARK   10  A    between atoms: C_23  and  C_24 
REMARK   11  A    between atoms: C_28  and  O_29 
REMARK   12  A    between atoms: C_30  and  C_31 
ROOT
HETATM    1  C   UNL     1      44.477  -8.993   8.673  1.00  0.00     0.293 C 
HETATM    2  N   UNL     1      43.727  -9.277   9.798  1.00  0.00    -0.242 N 
HETATM    3  O   UNL     1      45.048  -7.930   8.441  1.00  0.00    -0.264 OA
HETATM    4  H   UNL     1      43.288 -10.186   9.919  1.00  0.00     0.192 HD
ENDROOT
BRANCH   1   5
HETATM    5  C   UNL     1      44.551 -10.080   7.707  1.00  0.00     0.170 A 
HETATM    6  C   UNL     1      43.543 -10.482   6.842  1.00  0.00     0.096 A 
HETATM    7  N   UNL     1      44.059 -11.608   6.210  1.00  0.00    -0.215 N 
HETATM    8  N   UNL     1      45.353 -11.769   6.598  1.00  0.00     0.012 NA
HETATM    9  N   UNL     1      45.647 -10.869   7.523  1.00  0.00    -0.152 NA
BRANCH   6  10
HETATM   10  C   UNL     1      42.241  -9.836   6.539  1.00  0.00     0.296 C 
BRANCH  10  11
HETATM   11  N   UNL     1      41.054 -10.279   7.375  1.00  0.00    -0.066 N 
HETATM   12  H   UNL     1      41.428 -10.913   8.099  1.00  0.00     0.280 HD
BRANCH  11  13
HETATM   13  C   UNL     1      40.065 -11.079   6.536  1.00  0.00     0.231 C 
HETATM   14  C   UNL     1      40.141 -10.693   5.070  1.00  0.00     0.034 C 
ENDBRANCH  11  13
BRANCH  11  15
HETATM   15  C   UNL     1      40.365  -9.113   8.071  1.00  0.00     0.231 C 
HETATM   16  C   UNL     1      39.462  -9.604   9.192  1.00  0.00     0.034 C 
ENDBRANCH  11  15
ENDBRANCH  10  11
ENDBRANCH   6  10
BRANCH   7  17
HETATM   17  C   UNL     1      43.401 -12.514   5.347  1.00  0.00     0.225 A 
HETATM   18  N   UNL     1      43.460 -12.333   4.024  1.00  0.00    -0.081 NA
HETATM   19  O   UNL     1      42.691 -13.386   3.515  1.00  0.00    -0.103 OA
HETATM   20  N   UNL     1      42.161 -14.160   4.536  1.00  0.00    -0.083 NA
HETATM   21  C   UNL     1      42.598 -13.620   5.672  1.00  0.00     0.201 A 
BRANCH  21  22
HETATM   22  N   UNL     1      42.306 -14.081   6.897  1.00  0.00    -0.379 N 
HETATM   23  H   UNL     1      41.612 -14.816   7.017  1.00  0.00     0.158 HD
HETATM   24  H   UNL     1      42.594 -13.624   7.761  1.00  0.00     0.158 HD
ENDBRANCH  21  22
ENDBRANCH   7  17
ENDBRANCH   1   5
BRANCH   2  25
HETATM   25  N   UNL     1      43.595  -8.317  10.751  1.00  0.00    -0.184 NA
HETATM   26  C   UNL     1      42.425  -7.778  10.884  1.00  0.00     0.150 C 
BRANCH  26  27
HETATM   27  C   UNL     1      42.187  -6.730  11.900  1.00  0.00    -0.016 A 
HETATM   28  C   UNL     1      42.435  -5.388  11.598  1.00  0.00     0.023 A 
HETATM   29  C   UNL     1      42.229  -4.359  12.536  1.00  0.00    -0.016 A 
HETATM   30  C   UNL     1      41.772  -4.768  13.817  1.00  0.00     0.079 A 
HETATM   31  C   UNL     1      41.513  -6.130  14.159  1.00  0.00    -0.016 A 
HETATM   32  C   UNL     1      41.727  -7.097  13.161  1.00  0.00     0.023 A 
BRANCH  29  33
HETATM   33  C   UNL     1      42.508  -2.890  12.119  1.00  0.00    -0.021 C 
HETATM   34  C   UNL     1      43.260  -2.753  10.761  1.00  0.00     0.019 C 
HETATM   35  C   UNL     1      41.188  -2.112  11.921  1.00  0.00     0.019 C 
HETATM   36  C   UNL     1      43.420  -2.193  13.155  1.00  0.00     0.019 C 
ENDBRANCH  29  33
BRANCH  30  37
HETATM   37  O   UNL     1      41.545  -3.865  14.819  1.00  0.00    -0.360 OA
HETATM   38  H   UNL     1      40.625  -3.583  14.842  1.00  0.00     0.217 HD
ENDBRANCH  30  37
BRANCH  31  39
HETATM   39  C   UNL     1      41.034  -6.553  15.575  1.00  0.00    -0.021 C 
HETATM   40  C   UNL     1      41.167  -8.081  15.768  1.00  0.00     0.019 C 
HETATM   41  C   UNL     1      41.852  -5.908  16.727  1.00  0.00     0.019 C 
HETATM   42  C   UNL     1      39.570  -6.114  15.802  1.00  0.00     0.019 C 
ENDBRANCH  31  39
ENDBRANCH  26  27
ENDBRANCH   2  25
TORSDOF 12
ENDMDL
MODEL 5
REMARK VINA RESULT:      -7.2      4.198     10.312
REMARK  12 active torsions:
REMARK  status: ('A' for Active; 'I' for Inactive)
REMARK    1  A    between atoms: C_2  and  N_3 
REMARK    2  A    between atoms: N_3  and  C_5 
REMARK    3  A    between atoms: N_3  and  C_37 
REMARK    4  A    between atoms: C_5  and  C_6 
REMARK    5  A    between atoms: N_7  and  C_8 
REMARK    6  A    between atoms: C_12  and  N_13 
REMARK    7  A    between atoms: C_16  and  C_17 
REMARK       I    between atoms: C_17  and  N_18 
REMARK    8  A    between atoms: N_18  and  N_19 
REMARK    9  A    between atoms: C_20  and  C_21 
REMARK   10  A    between atoms: C_23  and  C_24 
REMARK   11  A    between atoms: C_28  and  O_29 
REMARK   12  A    between atoms: C_30  and  C_31 
ROOT
HETATM    1  C   UNL     1      42.458 -14.919   5.673  1.00  0.00     0.293 C 
HETATM    2  N   UNL     1      43.198 -13.753   5.646  1.00  0.00    -0.242 N 
HETATM    3  O   UNL     1      41.284 -15.017   6.023  1.00  0.00    -0.264 OA
HETATM    4  H   UNL     1      44.166 -13.754   5.338  1.00  0.00     0.192 HD
ENDROOT
BRANCH   1   5
HETATM    5  C   UNL     1      43.188 -16.108   5.255  1.00  0.00     0.170 A 
HETATM    6  C   UNL     1      42.853 -16.952   4.206  1.00  0.00     0.096 A 
HETATM    7  N   UNL     1      43.786 -17.981   4.280  1.00  0.00    -0.215 N 
HETATM    8  N   UNL     1      44.693 -17.677   5.247  1.00  0.00     0.012 NA
HETATM    9  N   UNL     1      44.322 -16.564   5.859  1.00  0.00    -0.152 NA
BRANCH   6  10
HETATM   10  C   UNL     1      41.822 -16.789   3.151  1.00  0.00     0.296 C 
BRANCH  10  11
HETATM   11  N   UNL     1      41.340 -15.373   2.887  1.00  0.00    -0.066 N 
HETATM   12  H   UNL     1      41.352 -14.888   3.797  1.00  0.00     0.280 HD
BRANCH  11  13
HETATM   13  C   UNL     1      39.900 -15.373   2.389  1.00  0.00     0.231 C 
HETATM   14  C   UNL     1      39.824 -15.692   0.907  1.00  0.00     0.034 C 
ENDBRANCH  11  13
BRANCH  11  15
HETATM   15  C   UNL     1      42.251 -14.616   1.930  1.00  0.00     0.231 C 
HETATM   16  C   UNL     1      42.229 -13.124   2.221  1.00  0.00     0.034 C 
ENDBRANCH  11  15
ENDBRANCH  10  11
ENDBRANCH   6  10
BRANCH   7  17
HETATM   17  C   UNL     1      43.820 -19.194   3.554  1.00  0.00     0.225 A 
HETATM   18  N   UNL     1      43.562 -19.191   2.242  1.00  0.00    -0.081 NA
HETATM   19  O   UNL     1      43.664 -20.540   1.885  1.00  0.00    -0.103 OA
HETATM   20  N   UNL     1      43.949 -21.331   2.987  1.00  0.00    -0.083 NA
HETATM   21  C   UNL     1      44.044 -20.499   4.023  1.00  0.00     0.201 A 
BRANCH  21  22
HETATM   22  N   UNL     1      44.313 -20.876   5.281  1.00  0.00    -0.379 N 
HETATM   23  H   UNL     1      43.767 -21.612   5.725  1.00  0.00     0.158 HD
HETATM   24  H   UNL     1      44.916 -20.354   5.915  1.00  0.00     0.158 HD
ENDBRANCH  21  22
ENDBRANCH   7  17
ENDBRANCH   1   5
BRANCH   2  25
HETATM   25  N   UNL     1      42.599 -12.594   6.028  1.00  0.00    -0.184 NA
HETATM   26  C   UNL     1      43.345 -11.715   6.617  1.00  0.00     0.150 C 
BRANCH  26  27
HETATM   27  C   UNL     1      42.780 -10.422   7.062  1.00  0.00    -0.016 A 
HETATM   28  C   UNL     1      42.928 -10.009   8.389  1.00  0.00     0.023 A 
HETATM   29  C   UNL     1      42.402  -8.790   8.858  1.00  0.00    -0.016 A 
HETATM   30  C   UNL     1      41.694  -8.012   7.904  1.00  0.00     0.079 A 
HETATM   31  C   UNL     1      41.521  -8.406   6.542  1.00  0.00    -0.016 A 
HETATM   32  C   UNL     1      42.092  -9.629   6.148  1.00  0.00     0.023 A 
BRANCH  29  33
HETATM   33  C   UNL     1      42.625  -8.392  10.341  1.00  0.00    -0.021 C 
HETATM   34  C   UNL     1      42.838  -6.864  10.557  1.00  0.00     0.019 C 
HETATM   35  C   UNL     1      41.389  -8.745  11.199  1.00  0.00     0.019 C 
HETATM   36  C   UNL     1      43.903  -9.059  10.899  1.00  0.00     0.019 C 
ENDBRANCH  29  33
BRANCH  30  37
HETATM   37  O   UNL     1      41.125  -6.813   8.236  1.00  0.00    -0.360 OA
HETATM   38  H   UNL     1      40.278  -6.932   8.679  1.00  0.00     0.217 HD
ENDBRANCH  30  37
BRANCH  31  39
HETATM   39  C   UNL     1      40.723  -7.546   5.524  1.00  0.00    -0.021 C 
HETATM   40  C   UNL     1      39.212  -7.572   5.846  1.00  0.00     0.019 C 
HETATM   41  C   UNL     1      41.130  -6.048   5.521  1.00  0.00     0.019 C 
HETATM   42  C   UNL     1      40.968  -8.052   4.083  1.00  0.00     0.019 C 
ENDBRANCH  31  39
ENDBRANCH  26  27
ENDBRANCH   2  25
TORSDOF 12
ENDMDL
MODEL 6
REMARK VINA RESULT:      -7.1      2.717     10.376
REMARK  12 active torsions:
REMARK  status: ('A' for Active; 'I' for Inactive)
REMARK    1  A    between atoms: C_2  and  N_3 
REMARK    2  A    between atoms: N_3  and  C_5 
REMARK    3  A    between atoms: N_3  and  C_37 
REMARK    4  A    between atoms: C_5  and  C_6 
REMARK    5  A    between atoms: N_7  and  C_8 
REMARK    6  A    between atoms: C_12  and  N_13 
REMARK    7  A    between atoms: C_16  and  C_17 
REMARK       I    between atoms: C_17  and  N_18 
REMARK    8  A    between atoms: N_18  and  N_19 
REMARK    9  A    between atoms: C_20  and  C_21 
REMARK   10  A    between atoms: C_23  and  C_24 
REMARK   11  A    between atoms: C_28  and  O_29 
REMARK   12  A    between atoms: C_30  and  C_31 
ROOT
HETATM    1  C   UNL     1      39.388 -10.932   6.817  1.00  0.00     0.293 C 
HETATM    2  N   UNL     1      40.437 -10.213   7.358  1.00  0.00    -0.242 N 
HETATM    3  O   UNL     1      38.310 -11.150   7.365  1.00  0.00    -0.264 OA
HETATM    4  H   UNL     1      41.298 -10.072   6.837  1.00  0.00     0.192 HD
ENDROOT
BRANCH   1   5
HETATM    5  C   UNL     1      39.644 -11.464   5.486  1.00  0.00     0.170 A 
HETATM    6  C   UNL     1      40.178 -12.710   5.188  1.00  0.00     0.096 A 
HETATM    7  N   UNL     1      40.321 -12.701   3.804  1.00  0.00    -0.215 N 
HETATM    8  N   UNL     1      39.775 -11.554   3.318  1.00  0.00     0.012 NA
HETATM    9  N   UNL     1      39.392 -10.791   4.328  1.00  0.00    -0.152 NA
BRANCH   6  10
HETATM   10  C   UNL     1      40.449 -13.864   6.081  1.00  0.00     0.296 C 
BRANCH  10  11
HETATM   11  N   UNL     1      41.861 -13.983   6.626  1.00  0.00    -0.066 N 
HETATM   12  H   UNL     1      41.783 -13.916   7.652  1.00  0.00     0.280 HD
BRANCH  11  13
HETATM   13  C   UNL     1      42.725 -12.817   6.157  1.00  0.00     0.231 C 
HETATM   14  C   UNL     1      43.873 -12.558   7.114  1.00  0.00     0.034 C 
ENDBRANCH  11  13
BRANCH  11  15
HETATM   15  C   UNL     1      42.507 -15.318   6.281  1.00  0.00     0.231 C 
HETATM   16  C   UNL     1      41.500 -16.264   5.647  1.00  0.00     0.034 C 
ENDBRANCH  11  15
ENDBRANCH  10  11
ENDBRANCH   6  10
BRANCH   7  17
HETATM   17  C   UNL     1      40.965 -13.652   2.978  1.00  0.00     0.225 A 
HETATM   18  N   UNL     1      42.228 -13.450   2.591  1.00  0.00    -0.081 NA
HETATM   19  O   UNL     1      42.506 -14.561   1.788  1.00  0.00    -0.103 OA
HETATM   20  N   UNL     1      41.402 -15.393   1.681  1.00  0.00    -0.083 NA
HETATM   21  C   UNL     1      40.445 -14.829   2.416  1.00  0.00     0.201 A 
BRANCH  21  22
HETATM   22  N   UNL     1      39.210 -15.331   2.574  1.00  0.00    -0.379 N 
HETATM   23  H   UNL     1      38.438 -14.981   2.011  1.00  0.00     0.158 HD
HETATM   24  H   UNL     1      38.932 -15.922   3.355  1.00  0.00     0.158 HD
ENDBRANCH  21  22
ENDBRANCH   7  17
ENDBRANCH   1   5
BRANCH   2  25
HETATM   25  N   UNL     1      40.290  -9.685   8.602  1.00  0.00    -0.184 NA
HETATM   26  C   UNL     1      40.631  -8.446   8.757  1.00  0.00     0.150 C 
BRANCH  26  27
HETATM   27  C   UNL     1      40.499  -7.785  10.074  1.00  0.00    -0.016 A 
HETATM   28  C   UNL     1      41.243  -8.241  11.167  1.00  0.00     0.023 A 
HETATM   29  C   UNL     1      41.144  -7.647  12.439  1.00  0.00    -0.016 A 
HETATM   30  C   UNL     1      40.227  -6.568  12.552  1.00  0.00     0.079 A 
HETATM   31  C   UNL     1      39.450  -6.082  11.457  1.00  0.00    -0.016 A 
HETATM   32  C   UNL     1      39.619  -6.717  10.215  1.00  0.00     0.023 A 
BRANCH  29  33
HETATM   33  C   UNL     1      42.018  -8.196  13.599  1.00  0.00    -0.021 C 
HETATM   34  C   UNL     1      42.762  -9.520  13.254  1.00  0.00     0.019 C 
HETATM   35  C   UNL     1      43.137  -7.197  13.967  1.00  0.00     0.019 C 
HETATM   36  C   UNL     1      41.142  -8.535  14.827  1.00  0.00     0.019 C 
ENDBRANCH  29  33
BRANCH  30  37
HETATM   37  O   UNL     1      40.031  -5.915  13.738  1.00  0.00    -0.360 OA
HETATM   38  H   UNL     1      39.337  -6.329  14.261  1.00  0.00     0.217 HD
ENDBRANCH  30  37
BRANCH  31  39
HETATM   39  C   UNL     1      38.437  -4.914  11.613  1.00  0.00    -0.021 C 
HETATM   40  C   UNL     1      37.259  -5.324  12.525  1.00  0.00     0.019 C 
HETATM   41  C   UNL     1      39.050  -3.641  12.258  1.00  0.00     0.019 C 
HETATM   42  C   UNL     1      37.909  -4.471  10.229  1.00  0.00     0.019 C 
ENDBRANCH  31  39
ENDBRANCH  26  27
ENDBRANCH   2  25
TORSDOF 12
ENDMDL
MODEL 7
REMARK VINA RESULT:      -7.1      3.539     10.532
REMARK  12 active torsions:
REMARK  status: ('A' for Active; 'I' for Inactive)
REMARK    1  A    between atoms: C_2  and  N_3 
REMARK    2  A    between atoms: N_3  and  C_5 
REMARK    3  A    between atoms: N_3  and  C_37 
REMARK    4  A    between atoms: C_5  and  C_6 
REMARK    5  A    between atoms: N_7  and  C_8 
REMARK    6  A    between atoms: C_12  and  N_13 
REMARK    7  A    between atoms: C_16  and  C_17 
REMARK       I    between atoms: C_17  and  N_18 
REMARK    8  A    between atoms: N_18  and  N_19 
REMARK    9  A    between atoms: C_20  and  C_21 
REMARK   10  A    between atoms: C_23  and  C_24 
REMARK   11  A    between atoms: C_28  and  O_29 
REMARK   12  A    between atoms: C_30  and  C_31 
ROOT
HETATM    1  C   UNL     1      39.395 -11.965   3.417  1.00  0.00     0.293 C 
HETATM    2  N   UNL     1      39.783 -10.710   3.844  1.00  0.00    -0.242 N 
HETATM    3  O   UNL     1      39.322 -12.971   4.119  1.00  0.00    -0.264 OA
HETATM    4  H   UNL     1      39.813  -9.924   3.200  1.00  0.00     0.192 HD
ENDROOT
BRANCH   1   5
HETATM    5  C   UNL     1      39.069 -12.048   2.000  1.00  0.00     0.170 A 
HETATM    6  C   UNL     1      39.588 -12.957   1.089  1.00  0.00     0.096 A 
HETATM    7  N   UNL     1      39.054 -12.562  -0.134  1.00  0.00    -0.215 N 
HETATM    8  N   UNL     1      38.168 -11.553   0.084  1.00  0.00     0.012 NA
HETATM    9  N   UNL     1      38.194 -11.218   1.364  1.00  0.00    -0.152 NA
BRANCH   6  10
HETATM   10  C   UNL     1      40.430 -14.156   1.321  1.00  0.00     0.296 C 
BRANCH  10  11
HETATM   11  N   UNL     1      41.440 -14.066   2.451  1.00  0.00    -0.066 N 
HETATM   12  H   UNL     1      40.953 -13.616   3.241  1.00  0.00     0.280 HD
BRANCH  11  13
HETATM   13  C   UNL     1      42.610 -13.169   2.065  1.00  0.00     0.231 C 
HETATM   14  C   UNL     1      43.175 -12.443   3.271  1.00  0.00     0.034 C 
ENDBRANCH  11  13
BRANCH  11  15
HETATM   15  C   UNL     1      41.927 -15.436   2.907  1.00  0.00     0.231 C 
HETATM   16  C   UNL     1      40.834 -16.180   3.657  1.00  0.00     0.034 C 
ENDBRANCH  11  15
ENDBRANCH  10  11
ENDBRANCH   6  10
BRANCH   7  17
HETATM   17  C   UNL     1      39.370 -13.036  -1.428  1.00  0.00     0.225 A 
HETATM   18  N   UNL     1      40.621 -12.930  -1.888  1.00  0.00    -0.081 NA
HETATM   19  O   UNL     1      40.543 -13.470  -3.176  1.00  0.00    -0.103 OA
HETATM   20  N   UNL     1      39.249 -13.862  -3.479  1.00  0.00    -0.083 NA
HETATM   21  C   UNL     1      38.519 -13.591  -2.398  1.00  0.00     0.201 A 
BRANCH  21  22
HETATM   22  N   UNL     1      37.203 -13.827  -2.287  1.00  0.00    -0.379 N 
HETATM   23  H   UNL     1      36.845 -14.777  -2.356  1.00  0.00     0.158 HD
HETATM   24  H   UNL     1      36.490 -13.100  -2.321  1.00  0.00     0.158 HD
ENDBRANCH  21  22
ENDBRANCH   7  17
ENDBRANCH   1   5
BRANCH   2  25
HETATM   25  N   UNL     1      40.114 -10.542   5.151  1.00  0.00    -0.184 NA
HETATM   26  C   UNL     1      41.237  -9.947   5.400  1.00  0.00     0.150 C 
BRANCH  26  27
HETATM   27  C   UNL     1      41.675  -9.714   6.794  1.00  0.00    -0.016 A 
HETATM   28  C   UNL     1      40.756  -9.291   7.759  1.00  0.00     0.023 A 
HETATM   29  C   UNL     1      41.130  -9.051   9.094  1.00  0.00    -0.016 A 
HETATM   30  C   UNL     1      42.504  -9.246   9.400  1.00  0.00     0.079 A 
HETATM   31  C   UNL     1      43.468  -9.673   8.437  1.00  0.00    -0.016 A 
HETATM   32  C   UNL     1      43.012  -9.909   7.128  1.00  0.00     0.023 A 
BRANCH  29  33
HETATM   33  C   UNL     1      40.048  -8.602  10.113  1.00  0.00    -0.021 C 
HETATM   34  C   UNL     1      40.479  -7.395  10.998  1.00  0.00     0.019 C 
HETATM   35  C   UNL     1      38.770  -8.126   9.386  1.00  0.00     0.019 C 
HETATM   36  C   UNL     1      39.735  -9.740  11.112  1.00  0.00     0.019 C 
ENDBRANCH  29  33
BRANCH  30  37
HETATM   37  O   UNL     1      42.996  -9.035  10.658  1.00  0.00    -0.360 OA
HETATM   38  H   UNL     1      43.091  -8.096  10.850  1.00  0.00     0.217 HD
ENDBRANCH  30  37
BRANCH  31  39
HETATM   39  C   UNL     1      44.970  -9.858   8.792  1.00  0.00    -0.021 C 
HETATM   40  C   UNL     1      45.753  -8.544   8.574  1.00  0.00     0.019 C 
HETATM   41  C   UNL     1      45.214 -10.257  10.272  1.00  0.00     0.019 C 
HETATM   42  C   UNL     1      45.588 -10.992   7.942  1.00  0.00     0.019 C 
ENDBRANCH  31  39
ENDBRANCH  26  27
ENDBRANCH   2  25
TORSDOF 12
ENDMDL
MODEL 8
REMARK VINA RESULT:      -7.1      1.589      3.879
REMARK  12 active torsions:
REMARK  status: ('A' for Active; 'I' for Inactive)
REMARK    1  A    between atoms: C_2  and  N_3 
REMARK    2  A    between atoms: N_3  and  C_5 
REMARK    3  A    between atoms: N_3  and  C_37 
REMARK    4  A    between atoms: C_5  and  C_6 
REMARK    5  A    between atoms: N_7  and  C_8 
REMARK    6  A    between atoms: C_12  and  N_13 
REMARK    7  A    between atoms: C_16  and  C_17 
REMARK       I    between atoms: C_17  and  N_18 
REMARK    8  A    between atoms: N_18  and  N_19 
REMARK    9  A    between atoms: C_20  and  C_21 
REMARK   10  A    between atoms: C_23  and  C_24 
REMARK   11  A    between atoms: C_28  and  O_29 
REMARK   12  A    between atoms: C_30  and  C_31 
ROOT
HETATM    1  C   UNL     1      40.251 -10.038   7.044  1.00  0.00     0.293 C 
HETATM    2  N   UNL     1      39.717 -11.311   7.094  1.00  0.00    -0.242 N 
HETATM    3  O   UNL     1      41.048  -9.627   6.204  1.00  0.00    -0.264 OA
HETATM    4  H   UNL     1      39.057 -11.574   7.821  1.00  0.00     0.192 HD
ENDROOT
BRANCH   1   5
HETATM    5  C   UNL     1      39.806  -9.154   8.111  1.00  0.00     0.170 A 
HETATM    6  C   UNL     1      40.460  -8.923   9.314  1.00  0.00     0.096 A 
HETATM    7  N   UNL     1      39.594  -8.098  10.024  1.00  0.00    -0.215 N 
HETATM    8  N   UNL     1      38.551  -7.765   9.217  1.00  0.00     0.012 NA
HETATM    9  N   UNL     1      38.657  -8.422   8.073  1.00  0.00    -0.152 NA
BRANCH   6  10
HETATM   10  C   UNL     1      41.815  -9.341   9.751  1.00  0.00     0.296 C 
BRANCH  10  11
HETATM   11  N   UNL     1      42.830  -8.232   9.966  1.00  0.00    -0.066 N 
HETATM   12  H   UNL     1      42.299  -7.347   9.960  1.00  0.00     0.280 HD
BRANCH  11  13
HETATM   13  C   UNL     1      43.825  -8.174   8.813  1.00  0.00     0.231 C 
HETATM   14  C   UNL     1      45.083  -8.962   9.125  1.00  0.00     0.034 C 
ENDBRANCH  11  13
BRANCH  11  15
HETATM   15  C   UNL     1      43.547  -8.350  11.304  1.00  0.00     0.231 C 
HETATM   16  C   UNL     1      42.953  -9.470  12.143  1.00  0.00     0.034 C 
ENDBRANCH  11  15
ENDBRANCH  10  11
ENDBRANCH   6  10
BRANCH   7  17
HETATM   17  C   UNL     1      39.681  -7.681  11.373  1.00  0.00     0.225 A 
HETATM   18  N   UNL     1      40.080  -6.437  11.659  1.00  0.00    -0.081 NA
HETATM   19  O   UNL     1      40.064  -6.402  13.058  1.00  0.00    -0.103 OA
HETATM   20  N   UNL     1      39.687  -7.627  13.586  1.00  0.00    -0.083 NA
HETATM   21  C   UNL     1      39.452  -8.422  12.543  1.00  0.00     0.201 A 
BRANCH  21  22
HETATM   22  N   UNL     1      39.059  -9.701  12.633  1.00  0.00    -0.379 N 
HETATM   23  H   UNL     1      38.071  -9.940  12.581  1.00  0.00     0.158 HD
HETATM   24  H   UNL     1      39.664 -10.462  12.937  1.00  0.00     0.158 HD
ENDBRANCH  21  22
ENDBRANCH   7  17
ENDBRANCH   1   5
BRANCH   2  25
HETATM   25  N   UNL     1      40.083 -12.208   6.141  1.00  0.00    -0.184 NA
HETATM   26  C   UNL     1      40.965 -13.095   6.477  1.00  0.00     0.150 C 
BRANCH  26  27
HETATM   27  C   UNL     1      41.418 -14.115   5.507  1.00  0.00    -0.016 A 
HETATM   28  C   UNL     1      40.924 -14.110   4.199  1.00  0.00     0.023 A 
HETATM   29  C   UNL     1      41.322 -15.065   3.244  1.00  0.00    -0.016 A 
HETATM   30  C   UNL     1      42.244 -16.047   3.696  1.00  0.00     0.079 A 
HETATM   31  C   UNL     1      42.764 -16.083   5.025  1.00  0.00    -0.016 A 
HETATM   32  C   UNL     1      42.331 -15.084   5.914  1.00  0.00     0.023 A 
BRANCH  29  33
HETATM   33  C   UNL     1      40.745 -14.982   1.806  1.00  0.00    -0.021 C 
HETATM   34  C   UNL     1      39.874 -13.716   1.550  1.00  0.00     0.019 C 
HETATM   35  C   UNL     1      41.879 -14.902   0.760  1.00  0.00     0.019 C 
HETATM   36  C   UNL     1      39.806 -16.178   1.526  1.00  0.00     0.019 C 
ENDBRANCH  29  33
BRANCH  30  37
HETATM   37  O   UNL     1      42.699 -17.037   2.868  1.00  0.00    -0.360 OA
HETATM   38  H   UNL     1      42.717 -16.752   1.949  1.00  0.00     0.217 HD
ENDBRANCH  30  37
BRANCH  31  39
HETATM   39  C   UNL     1      43.754 -17.182   5.500  1.00  0.00    -0.021 C 
HETATM   40  C   UNL     1      43.065 -18.159   6.479  1.00  0.00     0.019 C 
HETATM   41  C   UNL     1      44.308 -18.060   4.345  1.00  0.00     0.019 C 
HETATM   42  C   UNL     1      44.990 -16.540   6.171  1.00  0.00     0.019 C 
ENDBRANCH  31  39
ENDBRANCH  26  27
ENDBRANCH   2  25
TORSDOF 12
ENDMDL
MODEL 9
REMARK VINA RESULT:      -7.0      1.936      4.059
REMARK  12 active torsions:
REMARK  status: ('A' for Active; 'I' for Inactive)
REMARK    1  A    between atoms: C_2  and  N_3 
REMARK    2  A    between atoms: N_3  and  C_5 
REMARK    3  A    between atoms: N_3  and  C_37 
REMARK    4  A    between atoms: C_5  and  C_6 
REMARK    5  A    between atoms: N_7  and  C_8 
REMARK    6  A    between atoms: C_12  and  N_13 
REMARK    7  A    between atoms: C_16  and  C_17 
REMARK       I    between atoms: C_17  and  N_18 
REMARK    8  A    between atoms: N_18  and  N_19 
REMARK    9  A    between atoms: C_20  and  C_21 
REMARK   10  A    between atoms: C_23  and  C_24 
REMARK   11  A    between atoms: C_28  and  O_29 
REMARK   12  A    between atoms: C_30  and  C_31 
ROOT
HETATM    1  C   UNL     1      39.692 -10.080   7.890  1.00  0.00     0.293 C 
HETATM    2  N   UNL     1      40.821 -10.424   7.173  1.00  0.00    -0.242 N 
HETATM    3  O   UNL     1      38.647 -10.726   7.936  1.00  0.00    -0.264 OA
HETATM    4  H   UNL     1      41.651  -9.836   7.190  1.00  0.00     0.192 HD
ENDROOT
BRANCH   1   5
HETATM    5  C   UNL     1      39.799  -8.827   8.623  1.00  0.00     0.170 A 
HETATM    6  C   UNL     1      40.046  -8.688   9.982  1.00  0.00     0.096 A 
HETATM    7  N   UNL     1      39.950  -7.319  10.212  1.00  0.00    -0.215 N 
HETATM    8  N   UNL     1      39.784  -6.689   9.018  1.00  0.00     0.012 NA
HETATM    9  N   UNL     1      39.663  -7.593   8.060  1.00  0.00    -0.152 NA
BRANCH   6  10
HETATM   10  C   UNL     1      40.436  -9.711  10.984  1.00  0.00     0.296 C 
BRANCH  10  11
HETATM   11  N   UNL     1      41.909 -10.073  11.044  1.00  0.00    -0.066 N 
HETATM   12  H   UNL     1      42.004 -10.983  10.566  1.00  0.00     0.280 HD
BRANCH  11  13
HETATM   13  C   UNL     1      42.364 -10.266  12.486  1.00  0.00     0.231 C 
HETATM   14  C   UNL     1      41.708  -9.261  13.414  1.00  0.00     0.034 C 
ENDBRANCH  11  13
BRANCH  11  15
HETATM   15  C   UNL     1      42.788  -9.060  10.322  1.00  0.00     0.231 C 
HETATM   16  C   UNL     1      44.256  -9.280  10.651  1.00  0.00     0.034 C 
ENDBRANCH  11  15
ENDBRANCH  10  11
ENDBRANCH   6  10
BRANCH   7  17
HETATM   17  C   UNL     1      39.954  -6.630  11.447  1.00  0.00     0.225 A 
HETATM   18  N   UNL     1      38.845  -6.596  12.192  1.00  0.00    -0.081 NA
HETATM   19  O   UNL     1      39.217  -5.824  13.298  1.00  0.00    -0.103 OA
HETATM   20  N   UNL     1      40.527  -5.384  13.185  1.00  0.00    -0.083 NA
HETATM   21  C   UNL     1      40.984  -5.880  12.037  1.00  0.00     0.201 A 
BRANCH  21  22
HETATM   22  N   UNL     1      42.223  -5.683  11.560  1.00  0.00    -0.379 N 
HETATM   23  H   UNL     1      42.908  -5.169  12.109  1.00  0.00     0.158 HD
HETATM   24  H   UNL     1      42.494  -5.850  10.593  1.00  0.00     0.158 HD
ENDBRANCH  21  22
ENDBRANCH   7  17
ENDBRANCH   1   5
BRANCH   2  25
HETATM   25  N   UNL     1      40.808 -11.575   6.451  1.00  0.00    -0.184 NA
HETATM   26  C   UNL     1      41.956 -12.066   6.107  1.00  0.00     0.150 C 
BRANCH  26  27
HETATM   27  C   UNL     1      42.038 -13.319   5.326  1.00  0.00    -0.016 A 
HETATM   28  C   UNL     1      41.329 -13.449   4.128  1.00  0.00     0.023 A 
HETATM   29  C   UNL     1      41.372 -14.625   3.356  1.00  0.00    -0.016 A 
HETATM   30  C   UNL     1      42.167 -15.681   3.877  1.00  0.00     0.079 A 
HETATM   31  C   UNL     1      42.899 -15.583   5.099  1.00  0.00    -0.016 A 
HETATM   32  C   UNL     1      42.818 -14.368   5.802  1.00  0.00     0.023 A 
BRANCH  29  33
HETATM   33  C   UNL     1      40.573 -14.686   2.027  1.00  0.00    -0.021 C 
HETATM   34  C   UNL     1      41.468 -14.826   0.760  1.00  0.00     0.019 C 
HETATM   35  C   UNL     1      39.647 -15.923   1.997  1.00  0.00     0.019 C 
HETATM   36  C   UNL     1      39.773 -13.381   1.812  1.00  0.00     0.019 C 
ENDBRANCH  29  33
BRANCH  30  37
HETATM   37  O   UNL     1      42.282 -16.880   3.228  1.00  0.00    -0.360 OA
HETATM   38  H   UNL     1      43.203 -17.125   3.095  1.00  0.00     0.217 HD
ENDBRANCH  30  37
BRANCH  31  39
HETATM   39  C   UNL     1      43.743 -16.761   5.658  1.00  0.00    -0.021 C 
HETATM   40  C   UNL     1      44.859 -16.244   6.594  1.00  0.00     0.019 C 
HETATM   41  C   UNL     1      42.918 -17.772   6.500  1.00  0.00     0.019 C 
HETATM   42  C   UNL     1      44.358 -17.580   4.500  1.00  0.00     0.019 C 
ENDBRANCH  31  39
ENDBRANCH  26  27
ENDBRANCH   2  25
TORSDOF 12
ENDMDL
MODEL 10
REMARK VINA RESULT:      -6.9      3.308     10.536
REMARK  12 active torsions:
REMARK  status: ('A' for Active; 'I' for Inactive)
REMARK    1  A    between atoms: C_2  and  N_3 
REMARK    2  A    between atoms: N_3  and  C_5 
REMARK    3  A    between atoms: N_3  and  C_37 
REMARK    4  A    between atoms: C_5  and  C_6 
REMARK    5  A    between atoms: N_7  and  C_8 
REMARK    6  A    between atoms: C_12  and  N_13 
REMARK    7  A    between atoms: C_16  and  C_17 
REMARK       I    between atoms: C_17  and  N_18 
REMARK    8  A    between atoms: N_18  and  N_19 
REMARK    9  A    between atoms: C_20  and  C_21 
REMARK   10  A    between atoms: C_23  and  C_24 
REMARK   11  A    between atoms: C_28  and  O_29 
REMARK   12  A    between atoms: C_30  and  C_31 
ROOT
HETATM    1  C   UNL     1      42.563 -10.489   6.500  1.00  0.00     0.293 C 
HETATM    2  N   UNL     1      41.579  -9.626   6.941  1.00  0.00    -0.242 N 
HETATM    3  O   UNL     1      43.605 -10.754   7.095  1.00  0.00    -0.264 OA
HETATM    4  H   UNL     1      40.740  -9.464   6.390  1.00  0.00     0.192 HD
ENDROOT
BRANCH   1   5
HETATM    5  C   UNL     1      42.296 -11.099   5.205  1.00  0.00     0.170 A 
HETATM    6  C   UNL     1      41.507 -12.216   4.969  1.00  0.00     0.096 A 
HETATM    7  N   UNL     1      41.653 -12.459   3.607  1.00  0.00    -0.215 N 
HETATM    8  N   UNL     1      42.388 -11.453   3.062  1.00  0.00     0.012 NA
HETATM    9  N   UNL     1      42.804 -10.646   4.024  1.00  0.00    -0.152 NA
BRANCH   6  10
HETATM   10  C   UNL     1      40.608 -12.953   5.891  1.00  0.00     0.296 C 
BRANCH  10  11
HETATM   11  N   UNL     1      41.193 -14.174   6.576  1.00  0.00    -0.066 N 
HETATM   12  H   UNL     1      41.255 -13.943   7.580  1.00  0.00     0.280 HD
BRANCH  11  13
HETATM   13  C   UNL     1      42.609 -14.449   6.083  1.00  0.00     0.231 C 
HETATM   14  C   UNL     1      43.614 -14.386   7.218  1.00  0.00     0.034 C 
ENDBRANCH  11  13
BRANCH  11  15
HETATM   15  C   UNL     1      40.310 -15.406   6.424  1.00  0.00     0.231 C 
HETATM   16  C   UNL     1      40.787 -16.279   5.273  1.00  0.00     0.034 C 
ENDBRANCH  11  15
ENDBRANCH  10  11
ENDBRANCH   6  10
BRANCH   7  17
HETATM   17  C   UNL     1      41.197 -13.568   2.856  1.00  0.00     0.225 A 
HETATM   18  N   UNL     1      42.080 -14.435   2.349  1.00  0.00    -0.081 NA
HETATM   19  O   UNL     1      41.278 -15.358   1.668  1.00  0.00    -0.103 OA
HETATM   20  N   UNL     1      39.937 -15.015   1.750  1.00  0.00    -0.083 NA
HETATM   21  C   UNL     1      39.886 -13.905   2.484  1.00  0.00     0.201 A 
BRANCH  21  22
HETATM   22  N   UNL     1      38.757 -13.251   2.799  1.00  0.00    -0.379 N 
HETATM   23  H   UNL     1      37.859 -13.581   2.453  1.00  0.00     0.158 HD
HETATM   24  H   UNL     1      38.736 -12.322   3.217  1.00  0.00     0.158 HD
ENDBRANCH  21  22
ENDBRANCH   7  17
ENDBRANCH   1   5
BRANCH   2  25
HETATM   25  N   UNL     1      41.748  -9.005   8.138  1.00  0.00    -0.184 NA
HETATM   26  C   UNL     1      41.731  -7.710   8.134  1.00  0.00     0.150 C 
BRANCH  26  27
HETATM   27  C   UNL     1      41.900  -6.949   9.391  1.00  0.00    -0.016 A 
HETATM   28  C   UNL     1      42.014  -7.623  10.611  1.00  0.00     0.023 A 
HETATM   29  C   UNL     1      42.170  -6.939  11.832  1.00  0.00    -0.016 A 
HETATM   30  C   UNL     1      42.185  -5.521  11.753  1.00  0.00     0.079 A 
HETATM   31  C   UNL     1      42.067  -4.803  10.524  1.00  0.00    -0.016 A 
HETATM   32  C   UNL     1      41.933  -5.559   9.346  1.00  0.00     0.023 A 
BRANCH  29  33
HETATM   33  C   UNL     1      42.310  -7.758  13.143  1.00  0.00    -0.021 C 
HETATM   34  C   UNL     1      43.377  -7.194  14.127  1.00  0.00     0.019 C 
HETATM   35  C   UNL     1      40.988  -7.748  13.944  1.00  0.00     0.019 C 
HETATM   36  C   UNL     1      42.769  -9.203  12.838  1.00  0.00     0.019 C 
ENDBRANCH  29  33
BRANCH  30  37
HETATM   37  O   UNL     1      42.319  -4.742  12.869  1.00  0.00    -0.360 OA
HETATM   38  H   UNL     1      42.647  -5.249  13.619  1.00  0.00     0.217 HD
ENDBRANCH  30  37
BRANCH  31  39
HETATM   39  C   UNL     1      42.065  -3.250  10.467  1.00  0.00    -0.021 C 
HETATM   40  C   UNL     1      43.441  -2.682  10.881  1.00  0.00     0.019 C 
HETATM   41  C   UNL     1      41.779  -2.680   9.052  1.00  0.00     0.019 C 
HETATM   42  C   UNL     1      40.957  -2.680  11.382  1.00  0.00     0.019 C 
ENDBRANCH  31  39
ENDBRANCH  26  27
ENDBRANCH   2  25
TORSDOF 12
ENDMDL
