MODEL 1
REMARK VINA RESULT:      -8.1      0.000      0.000
REMARK  6 active torsions:
REMARK  status: ('A' for Active; 'I' for Inactive)
REMARK    1  A    between atoms: O_2  and  C_3 
REMARK    2  A    between atoms: C_3  and  C_4 
REMARK    3  A    between atoms: C_7  and  C_8 
REMARK    4  A    between atoms: C_8  and  O_9 
REMARK    5  A    between atoms: O_9  and  C_10 
REMARK    6  A    between atoms: C_11  and  C_12 
ROOT
HETATM    1  C   UNL     1      42.022 -12.711   6.153  1.00  0.00     0.079 A 
HETATM    2  C   UNL     1      43.204 -13.409   6.466  1.00  0.00    -0.002 A 
HETATM    3  C   UNL     1      44.402 -12.708   6.661  1.00  0.00     0.014 A 
HETATM    4  C   UNL     1      44.431 -11.321   6.533  1.00  0.00     0.001 A 
HETATM    5  C   UNL     1      43.268 -10.629   6.202  1.00  0.00     0.003 A 
HETATM    6  C   UNL     1      42.068 -11.320   6.008  1.00  0.00     0.037 A 
ENDROOT
BRANCH   1   7
HETATM    7  O   UNL     1      40.891 -13.472   5.997  1.00  0.00    -0.346 OA
BRANCH   7   8
HETATM    8  C   UNL     1      39.802 -12.935   5.239  1.00  0.00     0.214 C 
BRANCH   8   9
HETATM    9  C   UNL     1      39.880 -13.252   3.760  1.00  0.00    -0.034 A 
HETATM   10  C   UNL     1      40.090 -12.226   2.829  1.00  0.00     0.010 A 
HETATM   11  C   UNL     1      40.125 -12.509   1.462  1.00  0.00     0.018 A 
HETATM   12  C   UNL     1      39.955 -13.823   1.006  1.00  0.00     0.039 A 
HETATM   13  C   UNL     1      39.785 -14.856   1.934  1.00  0.00     0.018 A 
HETATM   14  C   UNL     1      39.759 -14.572   3.301  1.00  0.00     0.010 A 
BRANCH  12  15
HETATM   15  C   UNL     1      39.950 -14.063  -0.463  1.00  0.00     0.292 C 
HETATM   16  O   UNL     1      39.390 -15.012  -0.989  1.00  0.00    -0.259 OA
BRANCH  15  17
HETATM   17  O   UNL     1      40.679 -13.114  -1.101  1.00  0.00    -0.323 OA
HETATM   18  C   UNL     1      40.430 -13.039  -2.506  1.00  0.00     0.213 C 
ENDBRANCH  15  17
ENDBRANCH  12  15
ENDBRANCH   8   9
ENDBRANCH   7   8
ENDBRANCH   1   7
BRANCH   2  19
HETATM   19  C   UNL     1      43.218 -14.868   6.610  1.00  0.00     0.032 C 
HETATM   20  C   UNL     1      43.238 -15.747   5.597  1.00  0.00     0.045 A 
HETATM   21  C   UNL     1      43.215 -17.226   5.880  1.00  0.00     0.257 A 
HETATM   22  C   UNL     1      43.269 -15.582   4.143  1.00  0.00     0.006 A 
HETATM   23  O   UNL     1      43.195 -17.777   6.964  1.00  0.00    -0.267 OA
HETATM   24  N   UNL     1      43.224 -17.828   4.632  1.00  0.00    -0.322 N 
HETATM   25  C   UNL     1      43.256 -16.879   3.613  1.00  0.00     0.046 A 
HETATM   26  H   UNL     1      43.211 -18.827   4.509  1.00  0.00     0.169 HD
HETATM   27  C   UNL     1      43.278 -17.131   2.256  1.00  0.00     0.030 A 
HETATM   28  C   UNL     1      43.315 -16.030   1.399  1.00  0.00     0.002 A 
HETATM   29  C   UNL     1      43.330 -14.720   1.914  1.00  0.00     0.001 A 
HETATM   30  C   UNL     1      43.307 -14.489   3.295  1.00  0.00     0.015 A 
ENDBRANCH   2  19
TORSDOF 6
ENDMDL
MODEL 2
REMARK VINA RESULT:      -8.1      2.141      6.171
REMARK  6 active torsions:
REMARK  status: ('A' for Active; 'I' for Inactive)
REMARK    1  A    between atoms: O_2  and  C_3 
REMARK    2  A    between atoms: C_3  and  C_4 
REMARK    3  A    between atoms: C_7  and  C_8 
REMARK    4  A    between atoms: C_8  and  O_9 
REMARK    5  A    between atoms: O_9  and  C_10 
REMARK    6  A    between atoms: C_11  and  C_12 
ROOT
HETATM    1  C   UNL     1      40.328 -12.675   1.243  1.00  0.00     0.079 A 
HETATM    2  C   UNL     1      39.959 -13.637   2.203  1.00  0.00    -0.002 A 
HETATM    3  C   UNL     1      39.744 -14.966   1.814  1.00  0.00     0.014 A 
HETATM    4  C   UNL     1      39.880 -15.338   0.478  1.00  0.00     0.001 A 
HETATM    5  C   UNL     1      40.223 -14.383  -0.476  1.00  0.00     0.003 A 
HETATM    6  C   UNL     1      40.442 -13.056  -0.098  1.00  0.00     0.037 A 
ENDROOT
BRANCH   1   7
HETATM    7  O   UNL     1      40.538 -11.401   1.710  1.00  0.00    -0.346 OA
BRANCH   7   8
HETATM    8  C   UNL     1      41.880 -10.914   1.795  1.00  0.00     0.214 C 
BRANCH   8   9
HETATM    9  C   UNL     1      42.466 -10.995   3.189  1.00  0.00    -0.034 A 
HETATM   10  C   UNL     1      43.604 -11.775   3.432  1.00  0.00     0.010 A 
HETATM   11  C   UNL     1      44.126 -11.882   4.723  1.00  0.00     0.018 A 
HETATM   12  C   UNL     1      43.520 -11.205   5.790  1.00  0.00     0.039 A 
HETATM   13  C   UNL     1      42.408 -10.391   5.545  1.00  0.00     0.018 A 
HETATM   14  C   UNL     1      41.893 -10.280   4.252  1.00  0.00     0.010 A 
BRANCH  12  15
HETATM   15  C   UNL     1      44.085 -11.392   7.153  1.00  0.00     0.292 C 
HETATM   16  O   UNL     1      43.945 -12.415   7.807  1.00  0.00    -0.259 OA
BRANCH  15  17
HETATM   17  O   UNL     1      44.724 -10.267   7.562  1.00  0.00    -0.323 OA
HETATM   18  C   UNL     1      46.145 -10.400   7.634  1.00  0.00     0.213 C 
ENDBRANCH  15  17
ENDBRANCH  12  15
ENDBRANCH   8   9
ENDBRANCH   7   8
ENDBRANCH   1   7
BRANCH   2  19
HETATM   19  C   UNL     1      39.805 -13.290   3.618  1.00  0.00     0.032 C 
HETATM   20  C   UNL     1      40.572 -13.749   4.618  1.00  0.00     0.045 A 
HETATM   21  C   UNL     1      40.287 -13.341   6.039  1.00  0.00     0.257 A 
HETATM   22  C   UNL     1      41.726 -14.650   4.647  1.00  0.00     0.006 A 
HETATM   23  O   UNL     1      39.414 -12.595   6.438  1.00  0.00    -0.267 OA
HETATM   24  N   UNL     1      41.240 -14.001   6.797  1.00  0.00    -0.322 N 
HETATM   25  C   UNL     1      42.084 -14.766   5.997  1.00  0.00     0.046 A 
HETATM   26  H   UNL     1      41.293 -13.916   7.800  1.00  0.00     0.169 HD
HETATM   27  C   UNL     1      43.142 -15.542   6.424  1.00  0.00     0.030 A 
HETATM   28  C   UNL     1      43.868 -16.230   5.450  1.00  0.00     0.002 A 
HETATM   29  C   UNL     1      43.524 -16.124   4.090  1.00  0.00     0.001 A 
HETATM   30  C   UNL     1      42.446 -15.329   3.680  1.00  0.00     0.015 A 
ENDBRANCH   2  19
TORSDOF 6
ENDMDL
MODEL 3
REMARK VINA RESULT:      -7.9      2.484      6.439
REMARK  6 active torsions:
REMARK  status: ('A' for Active; 'I' for Inactive)
REMARK    1  A    between atoms: O_2  and  C_3 
REMARK    2  A    between atoms: C_3  and  C_4 
REMARK    3  A    between atoms: C_7  and  C_8 
REMARK    4  A    between atoms: C_8  and  O_9 
REMARK    5  A    between atoms: O_9  and  C_10 
REMARK    6  A    between atoms: C_11  and  C_12 
ROOT
HETATM    1  C   UNL     1      42.139 -13.958   2.642  1.00  0.00     0.079 A 
HETATM    2  C   UNL     1      41.370 -14.866   3.395  1.00  0.00    -0.002 A 
HETATM    3  C   UNL     1      40.259 -15.492   2.814  1.00  0.00     0.014 A 
HETATM    4  C   UNL     1      39.902 -15.208   1.497  1.00  0.00     0.001 A 
HETATM    5  C   UNL     1      40.649 -14.294   0.758  1.00  0.00     0.003 A 
HETATM    6  C   UNL     1      41.760 -13.667   1.328  1.00  0.00     0.037 A 
ENDROOT
BRANCH   1   7
HETATM    7  O   UNL     1      43.221 -13.404   3.280  1.00  0.00    -0.346 OA
BRANCH   7   8
HETATM    8  C   UNL     1      43.272 -11.983   3.437  1.00  0.00     0.214 C 
BRANCH   8   9
HETATM    9  C   UNL     1      43.663 -11.541   4.831  1.00  0.00    -0.034 A 
HETATM   10  C   UNL     1      45.008 -11.553   5.224  1.00  0.00     0.010 A 
HETATM   11  C   UNL     1      45.369 -11.181   6.521  1.00  0.00     0.018 A 
HETATM   12  C   UNL     1      44.390 -10.785   7.442  1.00  0.00     0.039 A 
HETATM   13  C   UNL     1      43.050 -10.732   7.042  1.00  0.00     0.018 A 
HETATM   14  C   UNL     1      42.692 -11.097   5.743  1.00  0.00     0.010 A 
BRANCH  12  15
HETATM   15  C   UNL     1      44.822 -10.448   8.826  1.00  0.00     0.292 C 
HETATM   16  O   UNL     1      45.679  -9.615   9.080  1.00  0.00    -0.259 OA
BRANCH  15  17
HETATM   17  O   UNL     1      44.166 -11.218   9.730  1.00  0.00    -0.323 OA
HETATM   18  C   UNL     1      43.666 -10.493  10.854  1.00  0.00     0.213 C 
ENDBRANCH  15  17
ENDBRANCH  12  15
ENDBRANCH   8   9
ENDBRANCH   7   8
ENDBRANCH   1   7
BRANCH   2  19
HETATM   19  C   UNL     1      41.709 -15.193   4.783  1.00  0.00     0.032 C 
HETATM   20  C   UNL     1      42.378 -16.285   5.181  1.00  0.00     0.045 A 
HETATM   21  C   UNL     1      42.632 -16.522   6.646  1.00  0.00     0.257 A 
HETATM   22  C   UNL     1      42.963 -17.410   4.450  1.00  0.00     0.006 A 
HETATM   23  O   UNL     1      42.312 -15.814   7.582  1.00  0.00    -0.267 OA
HETATM   24  N   UNL     1      43.317 -17.725   6.699  1.00  0.00    -0.322 N 
HETATM   25  C   UNL     1      43.515 -18.251   5.425  1.00  0.00     0.046 A 
HETATM   26  H   UNL     1      43.621 -18.142   7.564  1.00  0.00     0.169 HD
HETATM   27  C   UNL     1      44.162 -19.430   5.114  1.00  0.00     0.030 A 
HETATM   28  C   UNL     1      44.257 -19.773   3.764  1.00  0.00     0.002 A 
HETATM   29  C   UNL     1      43.711 -18.938   2.771  1.00  0.00     0.001 A 
HETATM   30  C   UNL     1      43.057 -17.747   3.111  1.00  0.00     0.015 A 
ENDBRANCH   2  19
TORSDOF 6
ENDMDL
MODEL 4
REMARK VINA RESULT:      -7.9      2.497      4.775
REMARK  6 active torsions:
REMARK  status: ('A' for Active; 'I' for Inactive)
REMARK    1  A    between atoms: O_2  and  C_3 
REMARK    2  A    between atoms: C_3  and  C_4 
REMARK    3  A    between atoms: C_7  and  C_8 
REMARK    4  A    between atoms: C_8  and  O_9 
REMARK    5  A    between atoms: O_9  and  C_10 
REMARK    6  A    between atoms: C_11  and  C_12 
ROOT
HETATM    1  C   UNL     1      42.001 -17.035   2.976  1.00  0.00     0.079 A 
HETATM    2  C   UNL     1      42.286 -16.818   4.338  1.00  0.00    -0.002 A 
HETATM    3  C   UNL     1      43.455 -17.346   4.902  1.00  0.00     0.014 A 
HETATM    4  C   UNL     1      44.331 -18.100   4.124  1.00  0.00     0.001 A 
HETATM    5  C   UNL     1      44.041 -18.335   2.782  1.00  0.00     0.003 A 
HETATM    6  C   UNL     1      42.879 -17.810   2.210  1.00  0.00     0.037 A 
ENDROOT
BRANCH   1   7
HETATM    7  O   UNL     1      40.846 -16.468   2.499  1.00  0.00    -0.346 OA
BRANCH   7   8
HETATM    8  C   UNL     1      40.915 -15.663   1.318  1.00  0.00     0.214 C 
BRANCH   8   9
HETATM    9  C   UNL     1      40.504 -14.223   1.542  1.00  0.00    -0.034 A 
HETATM   10  C   UNL     1      41.143 -13.190   0.843  1.00  0.00     0.010 A 
HETATM   11  C   UNL     1      40.793 -11.858   1.073  1.00  0.00     0.018 A 
HETATM   12  C   UNL     1      39.795 -11.539   2.004  1.00  0.00     0.039 A 
HETATM   13  C   UNL     1      39.127 -12.568   2.675  1.00  0.00     0.018 A 
HETATM   14  C   UNL     1      39.473 -13.900   2.437  1.00  0.00     0.010 A 
BRANCH  12  15
HETATM   15  C   UNL     1      39.496 -10.102   2.249  1.00  0.00     0.292 C 
HETATM   16  O   UNL     1      38.368  -9.669   2.429  1.00  0.00    -0.259 OA
BRANCH  15  17
HETATM   17  O   UNL     1      40.634  -9.365   2.200  1.00  0.00    -0.323 OA
HETATM   18  C   UNL     1      40.428  -7.966   2.401  1.00  0.00     0.213 C 
ENDBRANCH  15  17
ENDBRANCH  12  15
ENDBRANCH   8   9
ENDBRANCH   7   8
ENDBRANCH   1   7
BRANCH   2  19
HETATM   19  C   UNL     1      41.392 -16.031   5.193  1.00  0.00     0.032 C 
HETATM   20  C   UNL     1      41.399 -14.695   5.301  1.00  0.00     0.045 A 
HETATM   21  C   UNL     1      40.449 -14.008   6.245  1.00  0.00     0.257 A 
HETATM   22  C   UNL     1      42.203 -13.653   4.658  1.00  0.00     0.006 A 
HETATM   23  O   UNL     1      39.609 -14.520   6.960  1.00  0.00    -0.267 OA
HETATM   24  N   UNL     1      40.735 -12.658   6.120  1.00  0.00    -0.322 N 
HETATM   25  C   UNL     1      41.756 -12.440   5.198  1.00  0.00     0.046 A 
HETATM   26  H   UNL     1      40.249 -11.947   6.642  1.00  0.00     0.169 HD
HETATM   27  C   UNL     1      42.284 -11.220   4.829  1.00  0.00     0.030 A 
HETATM   28  C   UNL     1      43.305 -11.223   3.877  1.00  0.00     0.002 A 
HETATM   29  C   UNL     1      43.765 -12.432   3.322  1.00  0.00     0.001 A 
HETATM   30  C   UNL     1      43.214 -13.659   3.713  1.00  0.00     0.015 A 
ENDBRANCH   2  19
TORSDOF 6
ENDMDL
MODEL 5
REMARK VINA RESULT:      -7.7      2.364      4.804
REMARK  6 active torsions:
REMARK  status: ('A' for Active; 'I' for Inactive)
REMARK    1  A    between atoms: O_2  and  C_3 
REMARK    2  A    between atoms: C_3  and  C_4 
REMARK    3  A    between atoms: C_7  and  C_8 
REMARK    4  A    between atoms: C_8  and  O_9 
REMARK    5  A    between atoms: O_9  and  C_10 
REMARK    6  A    between atoms: C_11  and  C_12 
ROOT
HETATM    1  C   UNL     1      40.494 -10.754   3.668  1.00  0.00     0.079 A 
HETATM    2  C   UNL     1      40.971 -10.606   4.985  1.00  0.00    -0.002 A 
HETATM    3  C   UNL     1      40.127 -10.101   5.983  1.00  0.00     0.014 A 
HETATM    4  C   UNL     1      38.820  -9.729   5.674  1.00  0.00     0.001 A 
HETATM    5  C   UNL     1      38.353  -9.853   4.368  1.00  0.00     0.003 A 
HETATM    6  C   UNL     1      39.187 -10.359   3.366  1.00  0.00     0.037 A 
ENDROOT
BRANCH   1   7
HETATM    7  O   UNL     1      41.379 -11.274   2.757  1.00  0.00    -0.346 OA
BRANCH   7   8
HETATM    8  C   UNL     1      40.937 -12.325   1.894  1.00  0.00     0.214 C 
BRANCH   8   9
HETATM    9  C   UNL     1      41.429 -13.696   2.307  1.00  0.00    -0.034 A 
HETATM   10  C   UNL     1      42.792 -13.912   2.552  1.00  0.00     0.010 A 
HETATM   11  C   UNL     1      43.256 -15.183   2.898  1.00  0.00     0.018 A 
HETATM   12  C   UNL     1      42.362 -16.257   3.008  1.00  0.00     0.039 A 
HETATM   13  C   UNL     1      40.996 -16.038   2.803  1.00  0.00     0.018 A 
HETATM   14  C   UNL     1      40.533 -14.764   2.466  1.00  0.00     0.010 A 
BRANCH  12  15
HETATM   15  C   UNL     1      42.914 -17.601   3.328  1.00  0.00     0.292 C 
HETATM   16  O   UNL     1      43.476 -17.866   4.380  1.00  0.00    -0.259 OA
BRANCH  15  17
HETATM   17  O   UNL     1      42.740 -18.448   2.283  1.00  0.00    -0.323 OA
HETATM   18  C   UNL     1      43.567 -19.612   2.334  1.00  0.00     0.213 C 
ENDBRANCH  15  17
ENDBRANCH  12  15
ENDBRANCH   8   9
ENDBRANCH   7   8
ENDBRANCH   1   7
BRANCH   2  19
HETATM   19  C   UNL     1      42.338 -10.985   5.353  1.00  0.00     0.032 C 
HETATM   20  C   UNL     1      42.712 -12.186   5.818  1.00  0.00     0.045 A 
HETATM   21  C   UNL     1      44.148 -12.437   6.195  1.00  0.00     0.257 A 
HETATM   22  C   UNL     1      41.971 -13.422   6.079  1.00  0.00     0.006 A 
HETATM   23  O   UNL     1      45.084 -11.664   6.119  1.00  0.00    -0.267 OA
HETATM   24  N   UNL     1      44.175 -13.747   6.645  1.00  0.00    -0.322 N 
HETATM   25  C   UNL     1      42.912 -14.330   6.581  1.00  0.00     0.046 A 
HETATM   26  H   UNL     1      45.017 -14.195   6.969  1.00  0.00     0.169 HD
HETATM   27  C   UNL     1      42.583 -15.620   6.946  1.00  0.00     0.030 A 
HETATM   28  C   UNL     1      41.251 -16.009   6.797  1.00  0.00     0.002 A 
HETATM   29  C   UNL     1      40.293 -15.110   6.292  1.00  0.00     0.001 A 
HETATM   30  C   UNL     1      40.651 -13.806   5.929  1.00  0.00     0.015 A 
ENDBRANCH   2  19
TORSDOF 6
ENDMDL
MODEL 6
REMARK VINA RESULT:      -7.7      8.892     12.045
REMARK  6 active torsions:
REMARK  status: ('A' for Active; 'I' for Inactive)
REMARK    1  A    between atoms: O_2  and  C_3 
REMARK    2  A    between atoms: C_3  and  C_4 
REMARK    3  A    between atoms: C_7  and  C_8 
REMARK    4  A    between atoms: C_8  and  O_9 
REMARK    5  A    between atoms: O_9  and  C_10 
REMARK    6  A    between atoms: C_11  and  C_12 
ROOT
HETATM    1  C   UNL     1      43.066  -8.505   9.296  1.00  0.00     0.079 A 
HETATM    2  C   UNL     1      43.086  -9.531  10.261  1.00  0.00    -0.002 A 
HETATM    3  C   UNL     1      44.296 -10.157  10.591  1.00  0.00     0.014 A 
HETATM    4  C   UNL     1      45.477  -9.780   9.957  1.00  0.00     0.001 A 
HETATM    5  C   UNL     1      45.456  -8.781   8.986  1.00  0.00     0.003 A 
HETATM    6  C   UNL     1      44.255  -8.148   8.653  1.00  0.00     0.037 A 
ENDROOT
BRANCH   1   7
HETATM    7  O   UNL     1      41.844  -7.931   9.046  1.00  0.00    -0.346 OA
BRANCH   7   8
HETATM    8  C   UNL     1      41.675  -6.535   9.308  1.00  0.00     0.214 C 
BRANCH   8   9
HETATM    9  C   UNL     1      40.893  -6.247  10.572  1.00  0.00    -0.034 A 
HETATM   10  C   UNL     1      39.687  -6.915  10.824  1.00  0.00     0.010 A 
HETATM   11  C   UNL     1      38.944  -6.626  11.970  1.00  0.00     0.018 A 
HETATM   12  C   UNL     1      39.398  -5.666  12.885  1.00  0.00     0.039 A 
HETATM   13  C   UNL     1      40.621  -5.025  12.658  1.00  0.00     0.018 A 
HETATM   14  C   UNL     1      41.367  -5.322  11.516  1.00  0.00     0.010 A 
BRANCH  12  15
HETATM   15  C   UNL     1      38.544  -5.358  14.063  1.00  0.00     0.292 C 
HETATM   16  O   UNL     1      37.324  -5.432  14.050  1.00  0.00    -0.259 OA
BRANCH  15  17
HETATM   17  O   UNL     1      39.306  -4.952  15.109  1.00  0.00    -0.323 OA
HETATM   18  C   UNL     1      38.829  -5.394  16.381  1.00  0.00     0.213 C 
ENDBRANCH  15  17
ENDBRANCH  12  15
ENDBRANCH   8   9
ENDBRANCH   7   8
ENDBRANCH   1   7
BRANCH   2  19
HETATM   19  C   UNL     1      41.866  -9.959  10.951  1.00  0.00     0.032 C 
HETATM   20  C   UNL     1      41.478  -9.548  12.167  1.00  0.00     0.045 A 
HETATM   21  C   UNL     1      40.217 -10.093  12.782  1.00  0.00     0.257 A 
HETATM   22  C   UNL     1      42.061  -8.610  13.129  1.00  0.00     0.006 A 
HETATM   23  O   UNL     1      39.438 -10.894  12.299  1.00  0.00    -0.267 OA
HETATM   24  N   UNL     1      40.131  -9.481  14.022  1.00  0.00    -0.322 N 
HETATM   25  C   UNL     1      41.200  -8.615  14.234  1.00  0.00     0.046 A 
HETATM   26  H   UNL     1      39.377  -9.659  14.667  1.00  0.00     0.169 HD
HETATM   27  C   UNL     1      41.423  -7.844  15.357  1.00  0.00     0.030 A 
HETATM   28  C   UNL     1      42.561  -7.034  15.364  1.00  0.00     0.002 A 
HETATM   29  C   UNL     1      43.435  -7.015  14.261  1.00  0.00     0.001 A 
HETATM   30  C   UNL     1      43.188  -7.808  13.133  1.00  0.00     0.015 A 
ENDBRANCH   2  19
TORSDOF 6
ENDMDL
MODEL 7
REMARK VINA RESULT:      -7.5      2.199      5.869
REMARK  6 active torsions:
REMARK  status: ('A' for Active; 'I' for Inactive)
REMARK    1  A    between atoms: O_2  and  C_3 
REMARK    2  A    between atoms: C_3  and  C_4 
REMARK    3  A    between atoms: C_7  and  C_8 
REMARK    4  A    between atoms: C_8  and  O_9 
REMARK    5  A    between atoms: O_9  and  C_10 
REMARK    6  A    between atoms: C_11  and  C_12 
ROOT
HETATM    1  C   UNL     1      40.231 -11.792   0.726  1.00  0.00     0.079 A 
HETATM    2  C   UNL     1      40.703 -10.934   1.738  1.00  0.00    -0.002 A 
HETATM    3  C   UNL     1      39.889  -9.897   2.212  1.00  0.00     0.014 A 
HETATM    4  C   UNL     1      38.617  -9.701   1.677  1.00  0.00     0.001 A 
HETATM    5  C   UNL     1      38.157 -10.536   0.661  1.00  0.00     0.003 A 
HETATM    6  C   UNL     1      38.961 -11.574   0.183  1.00  0.00     0.037 A 
ENDROOT
BRANCH   1   7
HETATM    7  O   UNL     1      41.084 -12.793   0.332  1.00  0.00    -0.346 OA
BRANCH   7   8
HETATM    8  C   UNL     1      40.641 -14.150   0.430  1.00  0.00     0.214 C 
BRANCH   8   9
HETATM    9  C   UNL     1      41.376 -14.952   1.483  1.00  0.00    -0.034 A 
HETATM   10  C   UNL     1      42.765 -14.837   1.617  1.00  0.00     0.010 A 
HETATM   11  C   UNL     1      43.451 -15.602   2.562  1.00  0.00     0.018 A 
HETATM   12  C   UNL     1      42.755 -16.492   3.392  1.00  0.00     0.039 A 
HETATM   13  C   UNL     1      41.363 -16.581   3.290  1.00  0.00     0.018 A 
HETATM   14  C   UNL     1      40.678 -15.808   2.349  1.00  0.00     0.010 A 
BRANCH  12  15
HETATM   15  C   UNL     1      43.539 -17.322   4.347  1.00  0.00     0.292 C 
HETATM   16  O   UNL     1      43.958 -18.438   4.084  1.00  0.00    -0.259 OA
BRANCH  15  17
HETATM   17  O   UNL     1      43.671 -16.680   5.535  1.00  0.00    -0.323 OA
HETATM   18  C   UNL     1      43.235 -17.445   6.660  1.00  0.00     0.213 C 
ENDBRANCH  15  17
ENDBRANCH  12  15
ENDBRANCH   8   9
ENDBRANCH   7   8
ENDBRANCH   1   7
BRANCH   2  19
HETATM   19  C   UNL     1      42.034 -11.103   2.328  1.00  0.00     0.032 C 
HETATM   20  C   UNL     1      42.310 -11.825   3.424  1.00  0.00     0.045 A 
HETATM   21  C   UNL     1      43.719 -11.890   3.951  1.00  0.00     0.257 A 
HETATM   22  C   UNL     1      41.474 -12.631   4.316  1.00  0.00     0.006 A 
HETATM   23  O   UNL     1      44.712 -11.361   3.489  1.00  0.00    -0.267 OA
HETATM   24  N   UNL     1      43.641 -12.689   5.080  1.00  0.00    -0.322 N 
HETATM   25  C   UNL     1      42.338 -13.127   5.302  1.00  0.00     0.046 A 
HETATM   26  H   UNL     1      44.443 -12.910   5.648  1.00  0.00     0.169 HD
HETATM   27  C   UNL     1      41.907 -13.939   6.331  1.00  0.00     0.030 A 
HETATM   28  C   UNL     1      40.550 -14.266   6.366  1.00  0.00     0.002 A 
HETATM   29  C   UNL     1      39.669 -13.779   5.383  1.00  0.00     0.001 A 
HETATM   30  C   UNL     1      40.129 -12.955   4.348  1.00  0.00     0.015 A 
ENDBRANCH   2  19
TORSDOF 6
ENDMDL
MODEL 8
REMARK VINA RESULT:      -7.4     15.482     18.363
REMARK  6 active torsions:
REMARK  status: ('A' for Active; 'I' for Inactive)
REMARK    1  A    between atoms: O_2  and  C_3 
REMARK    2  A    between atoms: C_3  and  C_4 
REMARK    3  A    between atoms: C_7  and  C_8 
REMARK    4  A    between atoms: C_8  and  O_9 
REMARK    5  A    between atoms: O_9  and  C_10 
REMARK    6  A    between atoms: C_11  and  C_12 
ROOT
HETATM    1  C   UNL     1      44.434 -29.783  -1.934  1.00  0.00     0.079 A 
HETATM    2  C   UNL     1      45.299 -28.688  -1.741  1.00  0.00    -0.002 A 
HETATM    3  C   UNL     1      45.621 -27.853  -2.819  1.00  0.00     0.014 A 
HETATM    4  C   UNL     1      45.101 -28.110  -4.086  1.00  0.00     0.001 A 
HETATM    5  C   UNL     1      44.263 -29.205  -4.283  1.00  0.00     0.003 A 
HETATM    6  C   UNL     1      43.934 -30.042  -3.214  1.00  0.00     0.037 A 
ENDROOT
BRANCH   1   7
HETATM    7  O   UNL     1      44.155 -30.539  -0.822  1.00  0.00    -0.346 OA
BRANCH   7   8
HETATM    8  C   UNL     1      44.614 -31.894  -0.781  1.00  0.00     0.214 C 
BRANCH   8   9
HETATM    9  C   UNL     1      45.710 -32.132   0.236  1.00  0.00    -0.034 A 
HETATM   10  C   UNL     1      45.601 -31.601   1.528  1.00  0.00     0.010 A 
HETATM   11  C   UNL     1      46.626 -31.787   2.458  1.00  0.00     0.018 A 
HETATM   12  C   UNL     1      47.775 -32.511   2.110  1.00  0.00     0.039 A 
HETATM   13  C   UNL     1      47.870 -33.077   0.834  1.00  0.00     0.018 A 
HETATM   14  C   UNL     1      46.840 -32.897  -0.091  1.00  0.00     0.010 A 
BRANCH  12  15
HETATM   15  C   UNL     1      48.860 -32.636   3.120  1.00  0.00     0.292 C 
HETATM   16  O   UNL     1      49.250 -33.707   3.561  1.00  0.00    -0.259 OA
BRANCH  15  17
HETATM   17  O   UNL     1      49.303 -31.411   3.496  1.00  0.00    -0.323 OA
HETATM   18  C   UNL     1      50.721 -31.329   3.650  1.00  0.00     0.213 C 
ENDBRANCH  15  17
ENDBRANCH  12  15
ENDBRANCH   8   9
ENDBRANCH   7   8
ENDBRANCH   1   7
BRANCH   2  19
HETATM   19  C   UNL     1      45.868 -28.383  -0.426  1.00  0.00     0.032 C 
HETATM   20  C   UNL     1      47.078 -28.770   0.005  1.00  0.00     0.045 A 
HETATM   21  C   UNL     1      47.533 -28.419   1.396  1.00  0.00     0.257 A 
HETATM   22  C   UNL     1      48.154 -29.539  -0.624  1.00  0.00     0.006 A 
HETATM   23  O   UNL     1      46.931 -27.780   2.238  1.00  0.00    -0.267 OA
HETATM   24  N   UNL     1      48.794 -28.981   1.512  1.00  0.00    -0.322 N 
HETATM   25  C   UNL     1      49.166 -29.635   0.340  1.00  0.00     0.046 A 
HETATM   26  H   UNL     1      49.349 -28.908   2.349  1.00  0.00     0.169 HD
HETATM   27  C   UNL     1      50.355 -30.297   0.110  1.00  0.00     0.030 A 
HETATM   28  C   UNL     1      50.531 -30.884  -1.145  1.00  0.00     0.002 A 
HETATM   29  C   UNL     1      49.526 -30.795  -2.126  1.00  0.00     0.001 A 
HETATM   30  C   UNL     1      48.327 -30.118  -1.869  1.00  0.00     0.015 A 
ENDBRANCH   2  19
TORSDOF 6
ENDMDL
MODEL 9
REMARK VINA RESULT:      -7.3      8.680     12.356
REMARK  6 active torsions:
REMARK  status: ('A' for Active; 'I' for Inactive)
REMARK    1  A    between atoms: O_2  and  C_3 
REMARK    2  A    between atoms: C_3  and  C_4 
REMARK    3  A    between atoms: C_7  and  C_8 
REMARK    4  A    between atoms: C_8  and  O_9 
REMARK    5  A    between atoms: O_9  and  C_10 
REMARK    6  A    between atoms: C_11  and  C_12 
ROOT
HETATM    1  C   UNL     1      43.402  -9.754  10.454  1.00  0.00     0.079 A 
HETATM    2  C   UNL     1      42.815  -8.960   9.449  1.00  0.00    -0.002 A 
HETATM    3  C   UNL     1      43.622  -8.346   8.482  1.00  0.00     0.014 A 
HETATM    4  C   UNL     1      45.006  -8.505   8.517  1.00  0.00     0.001 A 
HETATM    5  C   UNL     1      45.590  -9.272   9.523  1.00  0.00     0.003 A 
HETATM    6  C   UNL     1      44.794  -9.890  10.491  1.00  0.00     0.037 A 
ENDROOT
BRANCH   1   7
HETATM    7  O   UNL     1      42.540 -10.334  11.350  1.00  0.00    -0.346 OA
BRANCH   7   8
HETATM    8  C   UNL     1      42.776 -10.147  12.748  1.00  0.00     0.214 C 
BRANCH   8   9
HETATM    9  C   UNL     1      42.176  -8.869  13.298  1.00  0.00    -0.034 A 
HETATM   10  C   UNL     1      43.008  -7.856  13.792  1.00  0.00     0.010 A 
HETATM   11  C   UNL     1      42.458  -6.691  14.334  1.00  0.00     0.018 A 
HETATM   12  C   UNL     1      41.068  -6.522  14.385  1.00  0.00     0.039 A 
HETATM   13  C   UNL     1      40.235  -7.514  13.856  1.00  0.00     0.018 A 
HETATM   14  C   UNL     1      40.787  -8.674  13.308  1.00  0.00     0.010 A 
BRANCH  12  15
HETATM   15  C   UNL     1      40.533  -5.287  15.018  1.00  0.00     0.292 C 
HETATM   16  O   UNL     1      41.221  -4.500  15.650  1.00  0.00    -0.259 OA
BRANCH  15  17
HETATM   17  O   UNL     1      39.193  -5.196  14.826  1.00  0.00    -0.323 OA
HETATM   18  C   UNL     1      38.450  -4.962  16.023  1.00  0.00     0.213 C 
ENDBRANCH  15  17
ENDBRANCH  12  15
ENDBRANCH   8   9
ENDBRANCH   7   8
ENDBRANCH   1   7
BRANCH   2  19
HETATM   19  C   UNL     1      41.364  -8.766   9.375  1.00  0.00     0.032 C 
HETATM   20  C   UNL     1      40.704  -7.681   9.806  1.00  0.00     0.045 A 
HETATM   21  C   UNL     1      39.203  -7.620   9.704  1.00  0.00     0.257 A 
HETATM   22  C   UNL     1      41.150  -6.429  10.422  1.00  0.00     0.006 A 
HETATM   23  O   UNL     1      38.453  -8.459   9.243  1.00  0.00    -0.267 OA
HETATM   24  N   UNL     1      38.859  -6.393  10.248  1.00  0.00    -0.322 N 
HETATM   25  C   UNL     1      39.985  -5.691  10.669  1.00  0.00     0.046 A 
HETATM   26  H   UNL     1      37.905  -6.075  10.315  1.00  0.00     0.169 HD
HETATM   27  C   UNL     1      40.004  -4.440  11.250  1.00  0.00     0.030 A 
HETATM   28  C   UNL     1      41.250  -3.911  11.595  1.00  0.00     0.002 A 
HETATM   29  C   UNL     1      42.430  -4.638  11.352  1.00  0.00     0.001 A 
HETATM   30  C   UNL     1      42.385  -5.907  10.761  1.00  0.00     0.015 A 
ENDBRANCH   2  19
TORSDOF 6
ENDMDL
MODEL 10
REMARK VINA RESULT:      -7.3      2.384      5.134
REMARK  6 active torsions:
REMARK  status: ('A' for Active; 'I' for Inactive)
REMARK    1  A    between atoms: O_2  and  C_3 
REMARK    2  A    between atoms: C_3  and  C_4 
REMARK    3  A    between atoms: C_7  and  C_8 
REMARK    4  A    between atoms: C_8  and  O_9 
REMARK    5  A    between atoms: O_9  and  C_10 
REMARK    6  A    between atoms: C_11  and  C_12 
ROOT
HETATM    1  C   UNL     1      43.038 -12.927   6.323  1.00  0.00     0.079 A 
HETATM    2  C   UNL     1      42.682 -12.102   5.238  1.00  0.00    -0.002 A 
HETATM    3  C   UNL     1      43.605 -11.178   4.729  1.00  0.00     0.014 A 
HETATM    4  C   UNL     1      44.869 -11.060   5.302  1.00  0.00     0.001 A 
HETATM    5  C   UNL     1      45.216 -11.860   6.389  1.00  0.00     0.003 A 
HETATM    6  C   UNL     1      44.304 -12.786   6.902  1.00  0.00     0.037 A 
ENDROOT
BRANCH   1   7
HETATM    7  O   UNL     1      42.083 -13.817   6.747  1.00  0.00    -0.346 OA
BRANCH   7   8
HETATM    8  C   UNL     1      42.504 -14.996   7.440  1.00  0.00     0.214 C 
BRANCH   8   9
HETATM    9  C   UNL     1      42.962 -16.108   6.520  1.00  0.00    -0.034 A 
HETATM   10  C   UNL     1      42.023 -16.867   5.809  1.00  0.00     0.010 A 
HETATM   11  C   UNL     1      42.438 -17.918   4.988  1.00  0.00     0.018 A 
HETATM   12  C   UNL     1      43.800 -18.223   4.863  1.00  0.00     0.039 A 
HETATM   13  C   UNL     1      44.744 -17.442   5.540  1.00  0.00     0.018 A 
HETATM   14  C   UNL     1      44.327 -16.387   6.354  1.00  0.00     0.010 A 
BRANCH  12  15
HETATM   15  C   UNL     1      44.186 -19.384   4.017  1.00  0.00     0.292 C 
HETATM   16  O   UNL     1      44.640 -20.425   4.467  1.00  0.00    -0.259 OA
BRANCH  15  17
HETATM   17  O   UNL     1      44.001 -19.097   2.704  1.00  0.00    -0.323 OA
HETATM   18  C   UNL     1      43.255 -20.086   1.993  1.00  0.00     0.213 C 
ENDBRANCH  15  17
ENDBRANCH  12  15
ENDBRANCH   8   9
ENDBRANCH   7   8
ENDBRANCH   1   7
BRANCH   2  19
HETATM   19  C   UNL     1      41.363 -12.192   4.606  1.00  0.00     0.032 C 
HETATM   20  C   UNL     1      41.021 -13.061   3.644  1.00  0.00     0.045 A 
HETATM   21  C   UNL     1      39.638 -13.027   3.051  1.00  0.00     0.257 A 
HETATM   22  C   UNL     1      41.759 -14.130   2.967  1.00  0.00     0.006 A 
HETATM   23  O   UNL     1      38.719 -12.288   3.347  1.00  0.00    -0.267 OA
HETATM   24  N   UNL     1      39.636 -14.028   2.093  1.00  0.00    -0.322 N 
HETATM   25  C   UNL     1      40.867 -14.677   2.035  1.00  0.00     0.046 A 
HETATM   26  H   UNL     1      38.830 -14.237   1.525  1.00  0.00     0.169 HD
HETATM   27  C   UNL     1      41.207 -15.720   1.199  1.00  0.00     0.030 A 
HETATM   28  C   UNL     1      42.501 -16.234   1.308  1.00  0.00     0.002 A 
HETATM   29  C   UNL     1      43.410 -15.698   2.240  1.00  0.00     0.001 A 
HETATM   30  C   UNL     1      43.041 -14.638   3.077  1.00  0.00     0.015 A 
ENDBRANCH   2  19
TORSDOF 6
ENDMDL
