MODEL 1
REMARK VINA RESULT:     -10.0      0.000      0.000
REMARK  7 active torsions:
REMARK  status: ('A' for Active; 'I' for Inactive)
REMARK    1  A    between atoms: C_3  and  N_4 
REMARK       I    between atoms: N_4  and  C_5 
REMARK    2  A    between atoms: C_5  and  C_6 
REMARK    3  A    between atoms: C_6  and  N_7 
REMARK    4  A    between atoms: N_10  and  C_11 
REMARK    5  A    between atoms: C_11  and  C_12 
REMARK    6  A    between atoms: C_27  and  C_28 
REMARK       I    between atoms: C_28  and  N_29 
REMARK    7  A    between atoms: N_29  and  C_30 
ROOT
HETATM    1  N   UNL     1      42.790 -11.816   6.272  1.00  0.00    -0.290 N 
HETATM    2  C   UNL     1      41.890 -10.776   6.097  1.00  0.00     0.332 C 
HETATM    3  O   UNL     1      42.312  -9.665   5.768  1.00  0.00    -0.246 OA
HETATM    4  N   UNL     1      40.548 -11.072   6.267  1.00  0.00    -0.261 N 
HETATM    5  C   UNL     1      40.046 -12.365   6.219  1.00  0.00     0.264 C 
HETATM    6  O   UNL     1      38.848 -12.641   6.205  1.00  0.00    -0.267 OA
HETATM    7  C   UNL     1      41.027 -13.463   6.122  1.00  0.00     0.059 A 
HETATM    8  C   UNL     1      42.387 -13.168   6.155  1.00  0.00     0.056 A 
HETATM    9  C   UNL     1      40.582 -14.787   5.999  1.00  0.00     0.020 A 
HETATM   10  C   UNL     1      41.501 -15.829   5.861  1.00  0.00     0.018 A 
HETATM   11  C   UNL     1      42.871 -15.549   5.832  1.00  0.00     0.034 A 
HETATM   12  C   UNL     1      43.305 -14.218   6.008  1.00  0.00     0.048 A 
ENDROOT
BRANCH   1  13
HETATM   13  C   UNL     1      44.155 -11.462   6.676  1.00  0.00     0.237 C 
BRANCH  13  14
HETATM   14  C   UNL     1      44.379 -10.838   8.057  1.00  0.00     0.240 C 
HETATM   15  N   UNL     1      43.266 -10.226   8.593  1.00  0.00    -0.325 N 
HETATM   16  H   UNL     1      42.394 -10.533   8.168  1.00  0.00     0.169 HD
HETATM   17  O   UNL     1      45.436 -11.061   8.642  1.00  0.00    -0.271 OA
BRANCH  15  18
HETATM   18  C   UNL     1      43.129  -9.581   9.845  1.00  0.00     0.040 A 
HETATM   19  C   UNL     1      42.987  -8.199  10.073  1.00  0.00    -0.035 A 
HETATM   20  C   UNL     1      42.864  -7.149   9.005  1.00  0.00     0.050 C 
HETATM   21  C   UNL     1      42.936  -7.734  11.406  1.00  0.00     0.009 A 
HETATM   22  C   UNL     1      42.953  -8.612  12.487  1.00  0.00     0.001 A 
HETATM   23  C   UNL     1      43.020  -9.978  12.258  1.00  0.00     0.002 A 
HETATM   24  C   UNL     1      43.105 -10.454  10.950  1.00  0.00     0.030 A 
ENDBRANCH  15  18
ENDBRANCH  13  14
ENDBRANCH   1  13
BRANCH   4  25
HETATM   25  C   UNL     1      39.577  -9.981   6.181  1.00  0.00     0.175 C 
BRANCH  25  26
HETATM   26  C   UNL     1      39.403  -9.171   7.451  1.00  0.00    -0.037 A 
HETATM   27  C   UNL     1      39.499  -9.772   8.718  1.00  0.00     0.048 A 
HETATM   28  C   UNL     1      39.377  -8.962   9.828  1.00  0.00     0.105 A 
HETATM   29  C   UNL     1      39.147  -7.610   9.724  1.00  0.00     0.105 A 
HETATM   30  O   UNL     1      39.474  -9.369  11.125  1.00  0.00    -0.323 OA
HETATM   31  O   UNL     1      39.071  -6.997  10.935  1.00  0.00    -0.323 OA
HETATM   32  C   UNL     1      39.020  -6.988   8.503  1.00  0.00     0.040 A 
HETATM   33  C   UNL     1      39.310  -8.111  11.817  1.00  0.00     0.352 A 
HETATM   34  C   UNL     1      39.149  -7.780   7.358  1.00  0.00     0.012 A 
ENDBRANCH  25  26
ENDBRANCH   4  25
BRANCH  11  35
HETATM   35  C   UNL     1      43.917 -16.595   5.600  1.00  0.00     0.252 C 
HETATM   36  N   UNL     1      43.672 -17.544   4.626  1.00  0.00    -0.352 N 
HETATM   37  H   UNL     1      42.873 -17.447   4.019  1.00  0.00     0.163 HD
HETATM   38  O   UNL     1      44.956 -16.557   6.249  1.00  0.00    -0.268 OA
BRANCH  36  39
HETATM   39  C   UNL     1      44.695 -18.505   4.213  1.00  0.00     0.084 C 
HETATM   40  C   UNL     1      44.558 -19.818   4.993  1.00  0.00     0.025 C 
HETATM   41  C   UNL     1      43.349 -20.647   4.564  1.00  0.00     0.002 C 
HETATM   42  C   UNL     1      43.334 -20.883   3.058  1.00  0.00     0.000 C 
HETATM   43  C   UNL     1      43.413 -19.572   2.281  1.00  0.00     0.002 C 
HETATM   44  C   UNL     1      44.628 -18.741   2.697  1.00  0.00     0.025 C 
ENDBRANCH  36  39
ENDBRANCH  11  35
TORSDOF 7
ENDMDL
MODEL 2
REMARK VINA RESULT:      -9.5      4.001      7.737
REMARK  7 active torsions:
REMARK  status: ('A' for Active; 'I' for Inactive)
REMARK    1  A    between atoms: C_3  and  N_4 
REMARK       I    between atoms: N_4  and  C_5 
REMARK    2  A    between atoms: C_5  and  C_6 
REMARK    3  A    between atoms: C_6  and  N_7 
REMARK    4  A    between atoms: N_10  and  C_11 
REMARK    5  A    between atoms: C_11  and  C_12 
REMARK    6  A    between atoms: C_27  and  C_28 
REMARK       I    between atoms: C_28  and  N_29 
REMARK    7  A    between atoms: N_29  and  C_30 
ROOT
HETATM    1  N   UNL     1      42.449 -13.831   5.694  1.00  0.00    -0.290 N 
HETATM    2  C   UNL     1      43.492 -13.448   6.523  1.00  0.00     0.332 C 
HETATM    3  O   UNL     1      43.974 -14.272   7.304  1.00  0.00    -0.246 OA
HETATM    4  N   UNL     1      43.959 -12.152   6.386  1.00  0.00    -0.261 N 
HETATM    5  C   UNL     1      43.721 -11.376   5.259  1.00  0.00     0.264 C 
HETATM    6  O   UNL     1      44.254 -10.289   5.044  1.00  0.00    -0.267 OA
HETATM    7  C   UNL     1      42.810 -11.934   4.241  1.00  0.00     0.059 A 
HETATM    8  C   UNL     1      42.185 -13.154   4.479  1.00  0.00     0.056 A 
HETATM    9  C   UNL     1      42.585 -11.231   3.049  1.00  0.00     0.020 A 
HETATM   10  C   UNL     1      41.761 -11.771   2.059  1.00  0.00     0.018 A 
HETATM   11  C   UNL     1      41.170 -13.024   2.252  1.00  0.00     0.034 A 
HETATM   12  C   UNL     1      41.365 -13.694   3.477  1.00  0.00     0.048 A 
ENDROOT
BRANCH   1  13
HETATM   13  C   UNL     1      41.573 -14.907   6.171  1.00  0.00     0.237 C 
BRANCH  13  14
HETATM   14  C   UNL     1      41.638 -16.273   5.481  1.00  0.00     0.240 C 
HETATM   15  N   UNL     1      42.910 -16.789   5.355  1.00  0.00    -0.325 N 
HETATM   16  H   UNL     1      43.580 -16.367   5.995  1.00  0.00     0.169 HD
HETATM   17  O   UNL     1      40.588 -16.868   5.249  1.00  0.00    -0.271 OA
BRANCH  15  18
HETATM   18  C   UNL     1      43.313 -18.022   4.793  1.00  0.00     0.040 A 
HETATM   19  C   UNL     1      43.443 -18.326   3.425  1.00  0.00    -0.035 A 
HETATM   20  C   UNL     1      43.263 -17.351   2.296  1.00  0.00     0.050 C 
HETATM   21  C   UNL     1      43.790 -19.645   3.053  1.00  0.00     0.009 A 
HETATM   22  C   UNL     1      44.069 -20.623   4.005  1.00  0.00     0.001 A 
HETATM   23  C   UNL     1      44.009 -20.302   5.352  1.00  0.00     0.002 A 
HETATM   24  C   UNL     1      43.636 -19.015   5.739  1.00  0.00     0.030 A 
ENDBRANCH  15  18
ENDBRANCH  13  14
ENDBRANCH   1  13
BRANCH   4  25
HETATM   25  C   UNL     1      44.995 -11.681   7.306  1.00  0.00     0.175 C 
BRANCH  25  26
HETATM   26  C   UNL     1      44.514 -10.739   8.392  1.00  0.00    -0.037 A 
HETATM   27  C   UNL     1      43.199 -10.244   8.397  1.00  0.00     0.048 A 
HETATM   28  C   UNL     1      42.819  -9.428   9.443  1.00  0.00     0.105 A 
HETATM   29  C   UNL     1      43.690  -9.079  10.450  1.00  0.00     0.105 A 
HETATM   30  O   UNL     1      41.582  -8.888   9.623  1.00  0.00    -0.323 OA
HETATM   31  O   UNL     1      43.114  -8.280  11.387  1.00  0.00    -0.323 OA
HETATM   32  C   UNL     1      44.993  -9.521  10.467  1.00  0.00     0.040 A 
HETATM   33  C   UNL     1      41.770  -8.188  10.873  1.00  0.00     0.352 A 
HETATM   34  C   UNL     1      45.405 -10.358   9.426  1.00  0.00     0.012 A 
ENDBRANCH  25  26
ENDBRANCH   4  25
BRANCH  11  35
HETATM   35  C   UNL     1      40.346 -13.711   1.208  1.00  0.00     0.252 C 
HETATM   36  N   UNL     1      39.939 -12.967   0.117  1.00  0.00    -0.352 N 
HETATM   37  H   UNL     1      40.298 -12.035  -0.018  1.00  0.00     0.163 HD
HETATM   38  O   UNL     1      40.091 -14.904   1.336  1.00  0.00    -0.268 OA
BRANCH  36  39
HETATM   39  C   UNL     1      39.274 -13.584  -1.031  1.00  0.00     0.084 C 
HETATM   40  C   UNL     1      38.101 -12.721  -1.510  1.00  0.00     0.025 C 
HETATM   41  C   UNL     1      38.547 -11.447  -2.225  1.00  0.00     0.002 C 
HETATM   42  C   UNL     1      39.523 -11.748  -3.356  1.00  0.00     0.000 C 
HETATM   43  C   UNL     1      40.720 -12.559  -2.867  1.00  0.00     0.002 C 
HETATM   44  C   UNL     1      40.282 -13.842  -2.161  1.00  0.00     0.025 C 
ENDBRANCH  36  39
ENDBRANCH  11  35
TORSDOF 7
ENDMDL
MODEL 3
REMARK VINA RESULT:      -9.4      2.455      5.259
REMARK  7 active torsions:
REMARK  status: ('A' for Active; 'I' for Inactive)
REMARK    1  A    between atoms: C_3  and  N_4 
REMARK       I    between atoms: N_4  and  C_5 
REMARK    2  A    between atoms: C_5  and  C_6 
REMARK    3  A    between atoms: C_6  and  N_7 
REMARK    4  A    between atoms: N_10  and  C_11 
REMARK    5  A    between atoms: C_11  and  C_12 
REMARK    6  A    between atoms: C_27  and  C_28 
REMARK       I    between atoms: C_28  and  N_29 
REMARK    7  A    between atoms: N_29  and  C_30 
ROOT
HETATM    1  N   UNL     1      42.319  -9.824   6.614  1.00  0.00    -0.290 N 
HETATM    2  C   UNL     1      42.242  -8.756   7.494  1.00  0.00     0.332 C 
HETATM    3  O   UNL     1      43.280  -8.182   7.836  1.00  0.00    -0.246 OA
HETATM    4  N   UNL     1      40.978  -8.372   7.908  1.00  0.00    -0.261 N 
HETATM    5  C   UNL     1      39.820  -8.721   7.225  1.00  0.00     0.264 C 
HETATM    6  O   UNL     1      38.706  -8.263   7.475  1.00  0.00    -0.267 OA
HETATM    7  C   UNL     1      39.964  -9.659   6.095  1.00  0.00     0.059 A 
HETATM    8  C   UNL     1      41.215 -10.199   5.811  1.00  0.00     0.056 A 
HETATM    9  C   UNL     1      38.844  -9.995   5.322  1.00  0.00     0.020 A 
HETATM   10  C   UNL     1      38.978 -10.845   4.222  1.00  0.00     0.018 A 
HETATM   11  C   UNL     1      40.236 -11.353   3.883  1.00  0.00     0.034 A 
HETATM   12  C   UNL     1      41.343 -11.046   4.701  1.00  0.00     0.048 A 
ENDROOT
BRANCH   1  13
HETATM   13  C   UNL     1      43.559 -10.608   6.616  1.00  0.00     0.237 C 
BRANCH  13  14
HETATM   14  C   UNL     1      43.524 -12.045   7.146  1.00  0.00     0.240 C 
HETATM   15  N   UNL     1      43.179 -12.991   6.204  1.00  0.00    -0.325 N 
HETATM   16  H   UNL     1      43.303 -12.669   5.246  1.00  0.00     0.169 HD
HETATM   17  O   UNL     1      43.949 -12.269   8.276  1.00  0.00    -0.271 OA
BRANCH  15  18
HETATM   18  C   UNL     1      43.076 -14.394   6.356  1.00  0.00     0.040 A 
HETATM   19  C   UNL     1      41.893 -15.150   6.452  1.00  0.00    -0.035 A 
HETATM   20  C   UNL     1      40.499 -14.604   6.315  1.00  0.00     0.050 C 
HETATM   21  C   UNL     1      41.993 -16.541   6.675  1.00  0.00     0.009 A 
HETATM   22  C   UNL     1      43.227 -17.184   6.734  1.00  0.00     0.001 A 
HETATM   23  C   UNL     1      44.391 -16.448   6.569  1.00  0.00     0.002 A 
HETATM   24  C   UNL     1      44.313 -15.069   6.380  1.00  0.00     0.030 A 
ENDBRANCH  15  18
ENDBRANCH  13  14
ENDBRANCH   1  13
BRANCH   4  25
HETATM   25  C   UNL     1      40.862  -7.310   8.907  1.00  0.00     0.175 C 
BRANCH  25  26
HETATM   26  C   UNL     1      40.823  -7.781  10.348  1.00  0.00    -0.037 A 
HETATM   27  C   UNL     1      41.978  -7.768  11.150  1.00  0.00     0.048 A 
HETATM   28  C   UNL     1      41.856  -8.166  12.465  1.00  0.00     0.105 A 
HETATM   29  C   UNL     1      40.657  -8.589  12.991  1.00  0.00     0.105 A 
HETATM   30  O   UNL     1      42.858  -8.186  13.387  1.00  0.00    -0.323 OA
HETATM   31  O   UNL     1      40.752  -8.926  14.305  1.00  0.00    -0.323 OA
HETATM   32  C   UNL     1      39.510  -8.642  12.232  1.00  0.00     0.040 A 
HETATM   33  C   UNL     1      42.142  -8.639  14.557  1.00  0.00     0.352 A 
HETATM   34  C   UNL     1      39.599  -8.235  10.898  1.00  0.00     0.012 A 
ENDBRANCH  25  26
ENDBRANCH   4  25
BRANCH  11  35
HETATM   35  C   UNL     1      40.480 -12.198   2.672  1.00  0.00     0.252 C 
HETATM   36  N   UNL     1      41.331 -13.279   2.804  1.00  0.00    -0.352 N 
HETATM   37  H   UNL     1      41.666 -13.548   3.716  1.00  0.00     0.163 HD
HETATM   38  O   UNL     1      39.900 -11.928   1.626  1.00  0.00    -0.268 OA
BRANCH  36  39
HETATM   39  C   UNL     1      41.506 -14.256   1.729  1.00  0.00     0.084 C 
HETATM   40  C   UNL     1      42.950 -14.772   1.689  1.00  0.00     0.025 C 
HETATM   41  C   UNL     1      43.282 -15.714   2.845  1.00  0.00     0.002 C 
HETATM   42  C   UNL     1      42.279 -16.858   2.945  1.00  0.00     0.000 C 
HETATM   43  C   UNL     1      40.845 -16.343   3.042  1.00  0.00     0.002 C 
HETATM   44  C   UNL     1      40.501 -15.408   1.882  1.00  0.00     0.025 C 
ENDBRANCH  36  39
ENDBRANCH  11  35
TORSDOF 7
ENDMDL
MODEL 4
REMARK VINA RESULT:      -9.4      4.378      8.565
REMARK  7 active torsions:
REMARK  status: ('A' for Active; 'I' for Inactive)
REMARK    1  A    between atoms: C_3  and  N_4 
REMARK       I    between atoms: N_4  and  C_5 
REMARK    2  A    between atoms: C_5  and  C_6 
REMARK    3  A    between atoms: C_6  and  N_7 
REMARK    4  A    between atoms: N_10  and  C_11 
REMARK    5  A    between atoms: C_11  and  C_12 
REMARK    6  A    between atoms: C_27  and  C_28 
REMARK       I    between atoms: C_28  and  N_29 
REMARK    7  A    between atoms: N_29  and  C_30 
ROOT
HETATM    1  N   UNL     1      41.606 -13.571   3.253  1.00  0.00    -0.290 N 
HETATM    2  C   UNL     1      42.408 -13.624   4.382  1.00  0.00     0.332 C 
HETATM    3  O   UNL     1      43.535 -14.117   4.297  1.00  0.00    -0.246 OA
HETATM    4  N   UNL     1      41.894 -13.072   5.543  1.00  0.00    -0.261 N 
HETATM    5  C   UNL     1      40.841 -12.166   5.549  1.00  0.00     0.264 C 
HETATM    6  O   UNL     1      40.473 -11.542   6.542  1.00  0.00    -0.267 OA
HETATM    7  C   UNL     1      40.169 -11.909   4.261  1.00  0.00     0.059 A 
HETATM    8  C   UNL     1      40.563 -12.623   3.132  1.00  0.00     0.056 A 
HETATM    9  C   UNL     1      39.146 -10.954   4.187  1.00  0.00     0.020 A 
HETATM   10  C   UNL     1      38.535 -10.670   2.963  1.00  0.00     0.018 A 
HETATM   11  C   UNL     1      38.955 -11.333   1.805  1.00  0.00     0.034 A 
HETATM   12  C   UNL     1      39.950 -12.327   1.905  1.00  0.00     0.048 A 
ENDROOT
BRANCH   1  13
HETATM   13  C   UNL     1      41.822 -14.599   2.228  1.00  0.00     0.237 C 
BRANCH  13  14
HETATM   14  C   UNL     1      41.774 -16.074   2.639  1.00  0.00     0.240 C 
HETATM   15  N   UNL     1      43.004 -16.697   2.670  1.00  0.00    -0.325 N 
HETATM   16  H   UNL     1      43.784 -16.045   2.728  1.00  0.00     0.169 HD
HETATM   17  O   UNL     1      40.717 -16.537   3.058  1.00  0.00    -0.271 OA
BRANCH  15  18
HETATM   18  C   UNL     1      43.310 -18.032   3.024  1.00  0.00     0.040 A 
HETATM   19  C   UNL     1      43.853 -18.481   4.242  1.00  0.00    -0.035 A 
HETATM   20  C   UNL     1      44.127 -17.619   5.442  1.00  0.00     0.050 C 
HETATM   21  C   UNL     1      44.160 -19.853   4.383  1.00  0.00     0.009 A 
HETATM   22  C   UNL     1      43.875 -20.772   3.377  1.00  0.00     0.001 A 
HETATM   23  C   UNL     1      43.274 -20.339   2.205  1.00  0.00     0.002 A 
HETATM   24  C   UNL     1      42.994 -18.983   2.033  1.00  0.00     0.030 A 
ENDBRANCH  15  18
ENDBRANCH  13  14
ENDBRANCH   1  13
BRANCH   4  25
HETATM   25  C   UNL     1      42.671 -13.191   6.777  1.00  0.00     0.175 C 
BRANCH  25  26
HETATM   26  C   UNL     1      43.646 -12.059   7.037  1.00  0.00    -0.037 A 
HETATM   27  C   UNL     1      43.289 -10.959   7.837  1.00  0.00     0.048 A 
HETATM   28  C   UNL     1      44.245  -9.991   8.068  1.00  0.00     0.105 A 
HETATM   29  C   UNL     1      45.507 -10.067   7.525  1.00  0.00     0.105 A 
HETATM   30  O   UNL     1      44.082  -8.881   8.839  1.00  0.00    -0.323 OA
HETATM   31  O   UNL     1      46.295  -9.019   7.886  1.00  0.00    -0.323 OA
HETATM   32  C   UNL     1      45.886 -11.113   6.716  1.00  0.00     0.040 A 
HETATM   33  C   UNL     1      45.396  -8.288   8.743  1.00  0.00     0.352 A 
HETATM   34  C   UNL     1      44.944 -12.116   6.471  1.00  0.00     0.012 A 
ENDBRANCH  25  26
ENDBRANCH   4  25
BRANCH  11  35
HETATM   35  C   UNL     1      38.415 -11.025   0.444  1.00  0.00     0.252 C 
HETATM   36  N   UNL     1      39.158 -11.429  -0.649  1.00  0.00    -0.352 N 
HETATM   37  H   UNL     1      39.966 -12.017  -0.519  1.00  0.00     0.163 HD
HETATM   38  O   UNL     1      37.330 -10.463   0.343  1.00  0.00    -0.268 OA
BRANCH  36  39
HETATM   39  C   UNL     1      38.641 -11.322  -2.014  1.00  0.00     0.084 C 
HETATM   40  C   UNL     1      39.754 -11.569  -3.040  1.00  0.00     0.025 C 
HETATM   41  C   UNL     1      40.179 -13.033  -3.123  1.00  0.00     0.002 C 
HETATM   42  C   UNL     1      38.986 -13.954  -3.354  1.00  0.00     0.000 C 
HETATM   43  C   UNL     1      37.903 -13.749  -2.299  1.00  0.00     0.002 C 
HETATM   44  C   UNL     1      37.463 -12.286  -2.218  1.00  0.00     0.025 C 
ENDBRANCH  36  39
ENDBRANCH  11  35
TORSDOF 7
ENDMDL
MODEL 5
REMARK VINA RESULT:      -9.3      4.036      9.799
REMARK  7 active torsions:
REMARK  status: ('A' for Active; 'I' for Inactive)
REMARK    1  A    between atoms: C_3  and  N_4 
REMARK       I    between atoms: N_4  and  C_5 
REMARK    2  A    between atoms: C_5  and  C_6 
REMARK    3  A    between atoms: C_6  and  N_7 
REMARK    4  A    between atoms: N_10  and  C_11 
REMARK    5  A    between atoms: C_11  and  C_12 
REMARK    6  A    between atoms: C_27  and  C_28 
REMARK       I    between atoms: C_28  and  N_29 
REMARK    7  A    between atoms: N_29  and  C_30 
ROOT
HETATM    1  N   UNL     1      40.705 -13.226   4.615  1.00  0.00    -0.290 N 
HETATM    2  C   UNL     1      40.784 -13.616   3.287  1.00  0.00     0.332 C 
HETATM    3  O   UNL     1      40.144 -14.601   2.910  1.00  0.00    -0.246 OA
HETATM    4  N   UNL     1      41.561 -12.835   2.449  1.00  0.00    -0.261 N 
HETATM    5  C   UNL     1      41.930 -11.531   2.754  1.00  0.00     0.264 C 
HETATM    6  O   UNL     1      42.478 -10.765   1.964  1.00  0.00    -0.267 OA
HETATM    7  C   UNL     1      41.582 -11.033   4.099  1.00  0.00     0.059 A 
HETATM    8  C   UNL     1      40.977 -11.895   5.011  1.00  0.00     0.056 A 
HETATM    9  C   UNL     1      41.862  -9.704   4.444  1.00  0.00     0.020 A 
HETATM   10  C   UNL     1      41.496  -9.210   5.698  1.00  0.00     0.018 A 
HETATM   11  C   UNL     1      40.835 -10.041   6.608  1.00  0.00     0.034 A 
HETATM   12  C   UNL     1      40.606 -11.389   6.265  1.00  0.00     0.048 A 
ENDROOT
BRANCH   1  13
HETATM   13  C   UNL     1      40.419 -14.270   5.605  1.00  0.00     0.237 C 
BRANCH  13  14
HETATM   14  C   UNL     1      40.857 -15.709   5.310  1.00  0.00     0.240 C 
HETATM   15  N   UNL     1      42.169 -15.833   4.905  1.00  0.00    -0.325 N 
HETATM   16  H   UNL     1      42.745 -15.031   5.154  1.00  0.00     0.169 HD
HETATM   17  O   UNL     1      40.099 -16.629   5.602  1.00  0.00    -0.271 OA
BRANCH  15  18
HETATM   18  C   UNL     1      42.886 -17.008   4.579  1.00  0.00     0.040 A 
HETATM   19  C   UNL     1      43.284 -17.428   3.296  1.00  0.00    -0.035 A 
HETATM   20  C   UNL     1      43.094 -16.645   2.027  1.00  0.00     0.050 C 
HETATM   21  C   UNL     1      43.934 -18.676   3.162  1.00  0.00     0.009 A 
HETATM   22  C   UNL     1      44.246 -19.459   4.270  1.00  0.00     0.001 A 
HETATM   23  C   UNL     1      43.917 -19.010   5.540  1.00  0.00     0.002 A 
HETATM   24  C   UNL     1      43.246 -17.797   5.690  1.00  0.00     0.030 A 
ENDBRANCH  15  18
ENDBRANCH  13  14
ENDBRANCH   1  13
BRANCH   4  25
HETATM   25  C   UNL     1      41.745 -13.266   1.063  1.00  0.00     0.175 C 
BRANCH  25  26
HETATM   26  C   UNL     1      40.527 -13.111   0.172  1.00  0.00    -0.037 A 
HETATM   27  C   UNL     1      39.826 -11.895   0.104  1.00  0.00     0.048 A 
HETATM   28  C   UNL     1      38.756 -11.814  -0.765  1.00  0.00     0.105 A 
HETATM   29  C   UNL     1      38.358 -12.884  -1.533  1.00  0.00     0.105 A 
HETATM   30  O   UNL     1      37.988 -10.711  -0.981  1.00  0.00    -0.323 OA
HETATM   31  O   UNL     1      37.293 -12.590  -2.327  1.00  0.00    -0.323 OA
HETATM   32  C   UNL     1      39.002 -14.098  -1.475  1.00  0.00     0.040 A 
HETATM   33  C   UNL     1      37.084 -11.203  -1.995  1.00  0.00     0.352 A 
HETATM   34  C   UNL     1      40.095 -14.209  -0.612  1.00  0.00     0.012 A 
ENDBRANCH  25  26
ENDBRANCH   4  25
BRANCH  11  35
HETATM   35  C   UNL     1      40.331  -9.566   7.935  1.00  0.00     0.252 C 
HETATM   36  N   UNL     1      41.231  -9.515   8.983  1.00  0.00    -0.352 N 
HETATM   37  H   UNL     1      42.212  -9.673   8.812  1.00  0.00     0.163 HD
HETATM   38  O   UNL     1      39.162  -9.212   8.040  1.00  0.00    -0.268 OA
BRANCH  36  39
HETATM   39  C   UNL     1      40.880  -8.914  10.270  1.00  0.00     0.084 C 
HETATM   40  C   UNL     1      41.331  -9.809  11.431  1.00  0.00     0.025 C 
HETATM   41  C   UNL     1      42.844  -9.805  11.638  1.00  0.00     0.002 C 
HETATM   42  C   UNL     1      43.391  -8.389  11.774  1.00  0.00     0.000 C 
HETATM   43  C   UNL     1      42.990  -7.514  10.590  1.00  0.00     0.002 C 
HETATM   44  C   UNL     1      41.475  -7.503  10.383  1.00  0.00     0.025 C 
ENDBRANCH  36  39
ENDBRANCH  11  35
TORSDOF 7
ENDMDL
MODEL 6
REMARK VINA RESULT:      -9.3      3.771      7.595
REMARK  7 active torsions:
REMARK  status: ('A' for Active; 'I' for Inactive)
REMARK    1  A    between atoms: C_3  and  N_4 
REMARK       I    between atoms: N_4  and  C_5 
REMARK    2  A    between atoms: C_5  and  C_6 
REMARK    3  A    between atoms: C_6  and  N_7 
REMARK    4  A    between atoms: N_10  and  C_11 
REMARK    5  A    between atoms: C_11  and  C_12 
REMARK    6  A    between atoms: C_27  and  C_28 
REMARK       I    between atoms: C_28  and  N_29 
REMARK    7  A    between atoms: N_29  and  C_30 
ROOT
HETATM    1  N   UNL     1      41.872 -12.023   5.698  1.00  0.00    -0.290 N 
HETATM    2  C   UNL     1      42.823 -11.471   6.542  1.00  0.00     0.332 C 
HETATM    3  O   UNL     1      43.788 -12.155   6.890  1.00  0.00    -0.246 OA
HETATM    4  N   UNL     1      42.642 -10.149   6.912  1.00  0.00    -0.261 N 
HETATM    5  C   UNL     1      41.823  -9.272   6.212  1.00  0.00     0.264 C 
HETATM    6  O   UNL     1      41.770  -8.062   6.420  1.00  0.00    -0.267 OA
HETATM    7  C   UNL     1      41.014  -9.840   5.116  1.00  0.00     0.059 A 
HETATM    8  C   UNL     1      41.050 -11.212   4.881  1.00  0.00     0.056 A 
HETATM    9  C   UNL     1      40.221  -8.996   4.327  1.00  0.00     0.020 A 
HETATM   10  C   UNL     1      39.487  -9.516   3.259  1.00  0.00     0.018 A 
HETATM   11  C   UNL     1      39.554 -10.882   2.967  1.00  0.00     0.034 A 
HETATM   12  C   UNL     1      40.316 -11.726   3.802  1.00  0.00     0.048 A 
ENDROOT
BRANCH   1  13
HETATM   13  C   UNL     1      41.687 -13.478   5.756  1.00  0.00     0.237 C 
BRANCH  13  14
HETATM   14  C   UNL     1      42.480 -14.362   4.787  1.00  0.00     0.240 C 
HETATM   15  N   UNL     1      42.212 -15.710   4.896  1.00  0.00    -0.325 N 
HETATM   16  H   UNL     1      41.327 -15.908   5.359  1.00  0.00     0.169 HD
HETATM   17  O   UNL     1      43.144 -13.824   3.905  1.00  0.00    -0.271 OA
BRANCH  15  18
HETATM   18  C   UNL     1      42.749 -16.782   4.146  1.00  0.00     0.040 A 
HETATM   19  C   UNL     1      42.362 -17.189   2.856  1.00  0.00    -0.035 A 
HETATM   20  C   UNL     1      41.352 -16.491   1.990  1.00  0.00     0.050 C 
HETATM   21  C   UNL     1      42.969 -18.336   2.296  1.00  0.00     0.009 A 
HETATM   22  C   UNL     1      43.982 -19.024   2.960  1.00  0.00     0.001 A 
HETATM   23  C   UNL     1      44.413 -18.578   4.200  1.00  0.00     0.002 A 
HETATM   24  C   UNL     1      43.802 -17.468   4.784  1.00  0.00     0.030 A 
ENDBRANCH  15  18
ENDBRANCH  13  14
ENDBRANCH   1  13
BRANCH   4  25
HETATM   25  C   UNL     1      43.573  -9.559   7.874  1.00  0.00     0.175 C 
BRANCH  25  26
HETATM   26  C   UNL     1      43.168  -9.692   9.329  1.00  0.00    -0.037 A 
HETATM   27  C   UNL     1      41.960  -9.151   9.801  1.00  0.00     0.048 A 
HETATM   28  C   UNL     1      41.636  -9.353  11.127  1.00  0.00     0.105 A 
HETATM   29  C   UNL     1      42.464 -10.041  11.984  1.00  0.00     0.105 A 
HETATM   30  O   UNL     1      40.498  -8.928  11.742  1.00  0.00    -0.323 OA
HETATM   31  O   UNL     1      41.953 -10.136  13.241  1.00  0.00    -0.323 OA
HETATM   32  C   UNL     1      43.667 -10.563  11.567  1.00  0.00     0.040 A 
HETATM   33  C   UNL     1      40.694  -9.456  13.072  1.00  0.00     0.352 A 
HETATM   34  C   UNL     1      44.019 -10.384  10.226  1.00  0.00     0.012 A 
ENDBRANCH  25  26
ENDBRANCH   4  25
BRANCH  11  35
HETATM   35  C   UNL     1      38.870 -11.504   1.790  1.00  0.00     0.252 C 
HETATM   36  N   UNL     1      39.635 -11.779   0.673  1.00  0.00    -0.352 N 
HETATM   37  H   UNL     1      40.637 -11.677   0.712  1.00  0.00     0.163 HD
HETATM   38  O   UNL     1      37.676 -11.775   1.866  1.00  0.00    -0.268 OA
BRANCH  36  39
HETATM   39  C   UNL     1      39.099 -12.532  -0.461  1.00  0.00     0.084 C 
HETATM   40  C   UNL     1      38.244 -11.630  -1.359  1.00  0.00     0.025 C 
HETATM   41  C   UNL     1      39.071 -10.639  -2.176  1.00  0.00     0.002 C 
HETATM   42  C   UNL     1      40.170 -11.340  -2.966  1.00  0.00     0.000 C 
HETATM   43  C   UNL     1      41.057 -12.193  -2.064  1.00  0.00     0.002 C 
HETATM   44  C   UNL     1      40.236 -13.196  -1.251  1.00  0.00     0.025 C 
ENDBRANCH  36  39
ENDBRANCH  11  35
TORSDOF 7
ENDMDL
MODEL 7
REMARK VINA RESULT:      -9.2      3.866      9.550
REMARK  7 active torsions:
REMARK  status: ('A' for Active; 'I' for Inactive)
REMARK    1  A    between atoms: C_3  and  N_4 
REMARK       I    between atoms: N_4  and  C_5 
REMARK    2  A    between atoms: C_5  and  C_6 
REMARK    3  A    between atoms: C_6  and  N_7 
REMARK    4  A    between atoms: N_10  and  C_11 
REMARK    5  A    between atoms: C_11  and  C_12 
REMARK    6  A    between atoms: C_27  and  C_28 
REMARK       I    between atoms: C_28  and  N_29 
REMARK    7  A    between atoms: N_29  and  C_30 
ROOT
HETATM    1  N   UNL     1      40.902 -11.638   5.358  1.00  0.00    -0.290 N 
HETATM    2  C   UNL     1      39.899 -12.099   4.519  1.00  0.00     0.332 C 
HETATM    3  O   UNL     1      39.442 -13.232   4.693  1.00  0.00    -0.246 OA
HETATM    4  N   UNL     1      39.443 -11.225   3.547  1.00  0.00    -0.261 N 
HETATM    5  C   UNL     1      39.641  -9.851   3.611  1.00  0.00     0.264 C 
HETATM    6  O   UNL     1      39.112  -9.041   2.852  1.00  0.00    -0.267 OA
HETATM    7  C   UNL     1      40.501  -9.348   4.699  1.00  0.00     0.059 A 
HETATM    8  C   UNL     1      41.122 -10.254   5.554  1.00  0.00     0.056 A 
HETATM    9  C   UNL     1      40.683  -7.967   4.860  1.00  0.00     0.020 A 
HETATM   10  C   UNL     1      41.458  -7.478   5.914  1.00  0.00     0.018 A 
HETATM   11  C   UNL     1      42.042  -8.368   6.821  1.00  0.00     0.034 A 
HETATM   12  C   UNL     1      41.891  -9.755   6.615  1.00  0.00     0.048 A 
ENDROOT
BRANCH   1  13
HETATM   13  C   UNL     1      41.785 -12.642   5.963  1.00  0.00     0.237 C 
BRANCH  13  14
HETATM   14  C   UNL     1      42.550 -13.601   5.045  1.00  0.00     0.240 C 
HETATM   15  N   UNL     1      42.107 -14.906   5.088  1.00  0.00    -0.325 N 
HETATM   16  H   UNL     1      41.163 -14.998   5.460  1.00  0.00     0.169 HD
HETATM   17  O   UNL     1      43.358 -13.136   4.245  1.00  0.00    -0.271 OA
BRANCH  15  18
HETATM   18  C   UNL     1      42.575 -16.023   4.358  1.00  0.00     0.040 A 
HETATM   19  C   UNL     1      43.628 -16.886   4.716  1.00  0.00    -0.035 A 
HETATM   20  C   UNL     1      44.399 -16.829   6.005  1.00  0.00     0.050 C 
HETATM   21  C   UNL     1      44.000 -17.911   3.817  1.00  0.00     0.009 A 
HETATM   22  C   UNL     1      43.309 -18.125   2.627  1.00  0.00     0.001 A 
HETATM   23  C   UNL     1      42.227 -17.319   2.310  1.00  0.00     0.002 A 
HETATM   24  C   UNL     1      41.865 -16.281   3.169  1.00  0.00     0.030 A 
ENDBRANCH  15  18
ENDBRANCH  13  14
ENDBRANCH   1  13
BRANCH   4  25
HETATM   25  C   UNL     1      38.452 -11.706   2.584  1.00  0.00     0.175 C 
BRANCH  25  26
HETATM   26  C   UNL     1      39.020 -12.205   1.269  1.00  0.00    -0.037 A 
HETATM   27  C   UNL     1      38.744 -11.545   0.059  1.00  0.00     0.048 A 
HETATM   28  C   UNL     1      39.335 -12.030  -1.090  1.00  0.00     0.105 A 
HETATM   29  C   UNL     1      40.153 -13.135  -1.080  1.00  0.00     0.105 A 
HETATM   30  O   UNL     1      39.204 -11.498  -2.337  1.00  0.00    -0.323 OA
HETATM   31  O   UNL     1      40.640 -13.438  -2.313  1.00  0.00    -0.323 OA
HETATM   32  C   UNL     1      40.426 -13.824   0.080  1.00  0.00     0.040 A 
HETATM   33  C   UNL     1      40.059 -12.378  -3.099  1.00  0.00     0.352 A 
HETATM   34  C   UNL     1      39.852 -13.352   1.263  1.00  0.00     0.012 A 
ENDBRANCH  25  26
ENDBRANCH   4  25
BRANCH  11  35
HETATM   35  C   UNL     1      42.812  -7.924   8.025  1.00  0.00     0.252 C 
HETATM   36  N   UNL     1      42.993  -8.839   9.045  1.00  0.00    -0.352 N 
HETATM   37  H   UNL     1      42.721  -9.800   8.913  1.00  0.00     0.163 HD
HETATM   38  O   UNL     1      43.279  -6.791   8.053  1.00  0.00    -0.268 OA
BRANCH  36  39
HETATM   39  C   UNL     1      43.865  -8.557  10.186  1.00  0.00     0.084 C 
HETATM   40  C   UNL     1      43.071  -7.928  11.337  1.00  0.00     0.025 C 
HETATM   41  C   UNL     1      42.159  -8.924  12.051  1.00  0.00     0.002 C 
HETATM   42  C   UNL     1      42.923 -10.163  12.504  1.00  0.00     0.000 C 
HETATM   43  C   UNL     1      43.667 -10.822  11.346  1.00  0.00     0.002 C 
HETATM   44  C   UNL     1      44.592  -9.834  10.634  1.00  0.00     0.025 C 
ENDBRANCH  36  39
ENDBRANCH  11  35
TORSDOF 7
ENDMDL
MODEL 8
REMARK VINA RESULT:      -9.2      2.696      4.019
REMARK  7 active torsions:
REMARK  status: ('A' for Active; 'I' for Inactive)
REMARK    1  A    between atoms: C_3  and  N_4 
REMARK       I    between atoms: N_4  and  C_5 
REMARK    2  A    between atoms: C_5  and  C_6 
REMARK    3  A    between atoms: C_6  and  N_7 
REMARK    4  A    between atoms: N_10  and  C_11 
REMARK    5  A    between atoms: C_11  and  C_12 
REMARK    6  A    between atoms: C_27  and  C_28 
REMARK       I    between atoms: C_28  and  N_29 
REMARK    7  A    between atoms: N_29  and  C_30 
ROOT
HETATM    1  N   UNL     1      43.578  -9.387   8.225  1.00  0.00    -0.290 N 
HETATM    2  C   UNL     1      43.467  -8.015   8.385  1.00  0.00     0.332 C 
HETATM    3  O   UNL     1      44.395  -7.392   8.908  1.00  0.00    -0.246 OA
HETATM    4  N   UNL     1      42.316  -7.418   7.900  1.00  0.00    -0.261 N 
HETATM    5  C   UNL     1      41.486  -8.020   6.963  1.00  0.00     0.264 C 
HETATM    6  O   UNL     1      40.553  -7.452   6.400  1.00  0.00    -0.267 OA
HETATM    7  C   UNL     1      41.796  -9.415   6.593  1.00  0.00     0.059 A 
HETATM    8  C   UNL     1      42.837 -10.077   7.236  1.00  0.00     0.056 A 
HETATM    9  C   UNL     1      41.040 -10.056   5.601  1.00  0.00     0.020 A 
HETATM   10  C   UNL     1      41.353 -11.360   5.211  1.00  0.00     0.018 A 
HETATM   11  C   UNL     1      42.433 -12.024   5.802  1.00  0.00     0.034 A 
HETATM   12  C   UNL     1      43.151 -11.384   6.834  1.00  0.00     0.048 A 
ENDROOT
BRANCH   1  13
HETATM   13  C   UNL     1      44.424 -10.108   9.183  1.00  0.00     0.237 C 
BRANCH  13  14
HETATM   14  C   UNL     1      44.051 -10.074  10.669  1.00  0.00     0.240 C 
HETATM   15  N   UNL     1      43.312  -8.973  11.047  1.00  0.00    -0.325 N 
HETATM   16  H   UNL     1      42.853  -8.509  10.265  1.00  0.00     0.169 HD
HETATM   17  O   UNL     1      44.278 -11.065  11.358  1.00  0.00    -0.271 OA
BRANCH  15  18
HETATM   18  C   UNL     1      42.795  -8.651  12.323  1.00  0.00     0.040 A 
HETATM   19  C   UNL     1      41.633  -9.173  12.921  1.00  0.00    -0.035 A 
HETATM   20  C   UNL     1      40.765 -10.253  12.339  1.00  0.00     0.050 C 
HETATM   21  C   UNL     1      41.234  -8.671  14.181  1.00  0.00     0.009 A 
HETATM   22  C   UNL     1      41.998  -7.730  14.867  1.00  0.00     0.001 A 
HETATM   23  C   UNL     1      43.181  -7.270  14.308  1.00  0.00     0.002 A 
HETATM   24  C   UNL     1      43.573  -7.728  13.050  1.00  0.00     0.030 A 
ENDBRANCH  15  18
ENDBRANCH  13  14
ENDBRANCH   1  13
BRANCH   4  25
HETATM   25  C   UNL     1      42.120  -5.986   8.133  1.00  0.00     0.175 C 
BRANCH  25  26
HETATM   26  C   UNL     1      41.729  -5.610   9.549  1.00  0.00    -0.037 A 
HETATM   27  C   UNL     1      40.552  -6.107  10.136  1.00  0.00     0.048 A 
HETATM   28  C   UNL     1      40.287  -5.759  11.445  1.00  0.00     0.105 A 
HETATM   29  C   UNL     1      41.121  -4.935  12.164  1.00  0.00     0.105 A 
HETATM   30  O   UNL     1      39.216  -6.173  12.177  1.00  0.00    -0.323 OA
HETATM   31  O   UNL     1      40.682  -4.727  13.435  1.00  0.00    -0.323 OA
HETATM   32  C   UNL     1      42.267  -4.406  11.617  1.00  0.00     0.040 A 
HETATM   33  C   UNL     1      39.492  -5.539  13.445  1.00  0.00     0.352 A 
HETATM   34  C   UNL     1      42.570  -4.749  10.296  1.00  0.00     0.012 A 
ENDBRANCH  25  26
ENDBRANCH   4  25
BRANCH  11  35
HETATM   35  C   UNL     1      42.888 -13.386   5.380  1.00  0.00     0.252 C 
HETATM   36  N   UNL     1      42.520 -13.826   4.123  1.00  0.00    -0.352 N 
HETATM   37  H   UNL     1      42.072 -13.193   3.480  1.00  0.00     0.163 HD
HETATM   38  O   UNL     1      43.590 -14.044   6.140  1.00  0.00    -0.268 OA
BRANCH  36  39
HETATM   39  C   UNL     1      43.049 -15.067   3.557  1.00  0.00     0.084 C 
HETATM   40  C   UNL     1      42.206 -16.270   3.998  1.00  0.00     0.025 C 
HETATM   41  C   UNL     1      40.841 -16.328   3.315  1.00  0.00     0.002 C 
HETATM   42  C   UNL     1      40.967 -16.255   1.797  1.00  0.00     0.000 C 
HETATM   43  C   UNL     1      41.758 -15.026   1.356  1.00  0.00     0.002 C 
HETATM   44  C   UNL     1      43.131 -14.967   2.027  1.00  0.00     0.025 C 
ENDBRANCH  36  39
ENDBRANCH  11  35
TORSDOF 7
ENDMDL
MODEL 9
REMARK VINA RESULT:      -9.1      5.662      9.480
REMARK  7 active torsions:
REMARK  status: ('A' for Active; 'I' for Inactive)
REMARK    1  A    between atoms: C_3  and  N_4 
REMARK       I    between atoms: N_4  and  C_5 
REMARK    2  A    between atoms: C_5  and  C_6 
REMARK    3  A    between atoms: C_6  and  N_7 
REMARK    4  A    between atoms: N_10  and  C_11 
REMARK    5  A    between atoms: C_11  and  C_12 
REMARK    6  A    between atoms: C_27  and  C_28 
REMARK       I    between atoms: C_28  and  N_29 
REMARK    7  A    between atoms: N_29  and  C_30 
ROOT
HETATM    1  N   UNL     1      40.331 -11.789   1.659  1.00  0.00    -0.290 N 
HETATM    2  C   UNL     1      39.849 -12.877   2.370  1.00  0.00     0.332 C 
HETATM    3  O   UNL     1      39.342 -12.694   3.479  1.00  0.00    -0.246 OA
HETATM    4  N   UNL     1      39.933 -14.115   1.756  1.00  0.00    -0.261 N 
HETATM    5  C   UNL     1      40.103 -14.271   0.386  1.00  0.00     0.264 C 
HETATM    6  O   UNL     1      40.020 -15.348  -0.201  1.00  0.00    -0.267 OA
HETATM    7  C   UNL     1      40.342 -13.048  -0.404  1.00  0.00     0.059 A 
HETATM    8  C   UNL     1      40.457 -11.824   0.250  1.00  0.00     0.056 A 
HETATM    9  C   UNL     1      40.451 -13.131  -1.799  1.00  0.00     0.020 A 
HETATM   10  C   UNL     1      40.632 -11.974  -2.561  1.00  0.00     0.018 A 
HETATM   11  C   UNL     1      40.691 -10.727  -1.930  1.00  0.00     0.034 A 
HETATM   12  C   UNL     1      40.630 -10.666  -0.522  1.00  0.00     0.048 A 
ENDROOT
BRANCH   1  13
HETATM   13  C   UNL     1      40.794 -10.633   2.434  1.00  0.00     0.237 C 
BRANCH  13  14
HETATM   14  C   UNL     1      42.010 -10.798   3.353  1.00  0.00     0.240 C 
HETATM   15  N   UNL     1      41.703 -10.889   4.694  1.00  0.00    -0.325 N 
HETATM   16  H   UNL     1      40.734 -11.149   4.868  1.00  0.00     0.169 HD
HETATM   17  O   UNL     1      43.111 -10.999   2.846  1.00  0.00    -0.271 OA
BRANCH  15  18
HETATM   18  C   UNL     1      42.577 -11.066   5.791  1.00  0.00     0.040 A 
HETATM   19  C   UNL     1      43.301 -12.228   6.118  1.00  0.00    -0.035 A 
HETATM   20  C   UNL     1      43.346 -13.485   5.294  1.00  0.00     0.050 C 
HETATM   21  C   UNL     1      44.072 -12.237   7.302  1.00  0.00     0.009 A 
HETATM   22  C   UNL     1      44.183 -11.107   8.109  1.00  0.00     0.001 A 
HETATM   23  C   UNL     1      43.527  -9.941   7.747  1.00  0.00     0.002 A 
HETATM   24  C   UNL     1      42.735  -9.923   6.599  1.00  0.00     0.030 A 
ENDBRANCH  15  18
ENDBRANCH  13  14
ENDBRANCH   1  13
BRANCH   4  25
HETATM   25  C   UNL     1      39.520 -15.298   2.510  1.00  0.00     0.175 C 
BRANCH  25  26
HETATM   26  C   UNL     1      40.622 -15.977   3.301  1.00  0.00    -0.037 A 
HETATM   27  C   UNL     1      41.670 -16.654   2.654  1.00  0.00     0.048 A 
HETATM   28  C   UNL     1      42.662 -17.207   3.438  1.00  0.00     0.105 A 
HETATM   29  C   UNL     1      42.636 -17.129   4.812  1.00  0.00     0.105 A 
HETATM   30  O   UNL     1      43.762 -17.868   2.982  1.00  0.00    -0.323 OA
HETATM   31  O   UNL     1      43.711 -17.727   5.391  1.00  0.00    -0.323 OA
HETATM   32  C   UNL     1      41.613 -16.498   5.482  1.00  0.00     0.040 A 
HETATM   33  C   UNL     1      44.436 -18.166   4.224  1.00  0.00     0.352 A 
HETATM   34  C   UNL     1      40.598 -15.919   4.716  1.00  0.00     0.012 A 
ENDBRANCH  25  26
ENDBRANCH   4  25
BRANCH  11  35
HETATM   35  C   UNL     1      40.794  -9.434  -2.677  1.00  0.00     0.252 C 
HETATM   36  N   UNL     1      41.124  -8.301  -1.958  1.00  0.00    -0.352 N 
HETATM   37  H   UNL     1      41.404  -8.381  -0.993  1.00  0.00     0.163 HD
HETATM   38  O   UNL     1      40.618  -9.428  -3.890  1.00  0.00    -0.268 OA
BRANCH  36  39
HETATM   39  C   UNL     1      41.408  -7.027  -2.618  1.00  0.00     0.084 C 
HETATM   40  C   UNL     1      40.985  -5.847  -1.733  1.00  0.00     0.025 C 
HETATM   41  C   UNL     1      41.907  -5.638  -0.533  1.00  0.00     0.002 C 
HETATM   42  C   UNL     1      43.367  -5.528  -0.957  1.00  0.00     0.000 C 
HETATM   43  C   UNL     1      43.804  -6.730  -1.790  1.00  0.00     0.002 C 
HETATM   44  C   UNL     1      42.893  -6.940  -3.000  1.00  0.00     0.025 C 
ENDBRANCH  36  39
ENDBRANCH  11  35
TORSDOF 7
ENDMDL
MODEL 10
REMARK VINA RESULT:      -8.9      2.877      6.064
REMARK  7 active torsions:
REMARK  status: ('A' for Active; 'I' for Inactive)
REMARK    1  A    between atoms: C_3  and  N_4 
REMARK       I    between atoms: N_4  and  C_5 
REMARK    2  A    between atoms: C_5  and  C_6 
REMARK    3  A    between atoms: C_6  and  N_7 
REMARK    4  A    between atoms: N_10  and  C_11 
REMARK    5  A    between atoms: C_11  and  C_12 
REMARK    6  A    between atoms: C_27  and  C_28 
REMARK       I    between atoms: C_28  and  N_29 
REMARK    7  A    between atoms: N_29  and  C_30 
ROOT
HETATM    1  N   UNL     1      41.560  -9.784   7.286  1.00  0.00    -0.290 N 
HETATM    2  C   UNL     1      41.716  -8.677   8.105  1.00  0.00     0.332 C 
HETATM    3  O   UNL     1      40.723  -8.178   8.639  1.00  0.00    -0.246 OA
HETATM    4  N   UNL     1      43.008  -8.222   8.305  1.00  0.00    -0.261 N 
HETATM    5  C   UNL     1      44.132  -9.002   8.064  1.00  0.00     0.264 C 
HETATM    6  O   UNL     1      45.276  -8.683   8.383  1.00  0.00    -0.267 OA
HETATM    7  C   UNL     1      43.912 -10.319   7.435  1.00  0.00     0.059 A 
HETATM    8  C   UNL     1      42.625 -10.686   7.052  1.00  0.00     0.056 A 
HETATM    9  C   UNL     1      44.997 -11.183   7.230  1.00  0.00     0.020 A 
HETATM   10  C   UNL     1      44.793 -12.449   6.677  1.00  0.00     0.018 A 
HETATM   11  C   UNL     1      43.500 -12.862   6.340  1.00  0.00     0.034 A 
HETATM   12  C   UNL     1      42.427 -11.962   6.505  1.00  0.00     0.048 A 
ENDROOT
BRANCH   1  13
HETATM   13  C   UNL     1      40.273  -9.932   6.597  1.00  0.00     0.237 C 
BRANCH  13  14
HETATM   14  C   UNL     1      40.238  -9.842   5.068  1.00  0.00     0.240 C 
HETATM   15  N   UNL     1      40.051 -11.050   4.430  1.00  0.00    -0.325 N 
HETATM   16  H   UNL     1      39.654 -11.767   5.034  1.00  0.00     0.169 HD
HETATM   17  O   UNL     1      40.210  -8.733   4.542  1.00  0.00    -0.271 OA
BRANCH  15  18
HETATM   18  C   UNL     1      39.951 -11.311   3.044  1.00  0.00     0.040 A 
HETATM   19  C   UNL     1      41.009 -11.401   2.121  1.00  0.00    -0.035 A 
HETATM   20  C   UNL     1      42.471 -11.323   2.463  1.00  0.00     0.050 C 
HETATM   21  C   UNL     1      40.704 -11.598   0.755  1.00  0.00     0.009 A 
HETATM   22  C   UNL     1      39.393 -11.772   0.318  1.00  0.00     0.001 A 
HETATM   23  C   UNL     1      38.357 -11.755   1.238  1.00  0.00     0.002 A 
HETATM   24  C   UNL     1      38.636 -11.528   2.586  1.00  0.00     0.030 A 
ENDBRANCH  15  18
ENDBRANCH  13  14
ENDBRANCH   1  13
BRANCH   4  25
HETATM   25  C   UNL     1      43.207  -7.001   9.087  1.00  0.00     0.175 C 
BRANCH  25  26
HETATM   26  C   UNL     1      42.984  -7.148  10.579  1.00  0.00    -0.037 A 
HETATM   27  C   UNL     1      42.281  -6.174  11.310  1.00  0.00     0.048 A 
HETATM   28  C   UNL     1      42.077  -6.399  12.656  1.00  0.00     0.105 A 
HETATM   29  C   UNL     1      42.556  -7.523  13.289  1.00  0.00     0.105 A 
HETATM   30  O   UNL     1      41.395  -5.582  13.505  1.00  0.00    -0.323 OA
HETATM   31  O   UNL     1      42.235  -7.555  14.610  1.00  0.00    -0.323 OA
HETATM   32  C   UNL     1      43.271  -8.486  12.615  1.00  0.00     0.040 A 
HETATM   33  C   UNL     1      41.474  -6.338  14.733  1.00  0.00     0.352 A 
HETATM   34  C   UNL     1      43.485  -8.292  11.248  1.00  0.00     0.012 A 
ENDBRANCH  25  26
ENDBRANCH   4  25
BRANCH  11  35
HETATM   35  C   UNL     1      43.185 -14.232   5.826  1.00  0.00     0.252 C 
HETATM   36  N   UNL     1      42.756 -14.344   4.516  1.00  0.00    -0.352 N 
HETATM   37  H   UNL     1      42.781 -13.541   3.908  1.00  0.00     0.163 HD
HETATM   38  O   UNL     1      43.347 -15.199   6.561  1.00  0.00    -0.268 OA
BRANCH  36  39
HETATM   39  C   UNL     1      42.580 -15.646   3.873  1.00  0.00     0.084 C 
HETATM   40  C   UNL     1      41.099 -16.039   3.832  1.00  0.00     0.025 C 
HETATM   41  C   UNL     1      40.292 -15.229   2.820  1.00  0.00     0.002 C 
HETATM   42  C   UNL     1      40.924 -15.269   1.433  1.00  0.00     0.000 C 
HETATM   43  C   UNL     1      42.383 -14.824   1.465  1.00  0.00     0.002 C 
HETATM   44  C   UNL     1      43.200 -15.639   2.468  1.00  0.00     0.025 C 
ENDBRANCH  36  39
ENDBRANCH  11  35
TORSDOF 7
ENDMDL
